[H]c1nc2c([H])c(OC([H])([H])[H])c(OC([H])([H])[H])c([H])c2c(Oc2c([H])c([H])c(N([H])C(=O)N([H])c3c([H])c([H])c([H])c(C#N)c3[H])c([H])c2F)c1[H]


 36 39  0  0  0  0  0  0  0  0999 V2000
   14.7868   26.3113   -2.2144 C   0  0  0  0  0  0  0  0  0  0  0  0
   15.3683   25.2879   -1.5109 C   0  0  0  0  0  0  0  0  0  0  0  0
   14.6752   24.2327   -0.9319 C   0  0  0  0  0  0  0  0  0  0  0  0
   13.2800   24.1744   -1.0535 C   0  0  0  0  0  0  0  0  0  0  0  0
   12.7022   25.1817   -1.7477 C   0  0  0  0  0  0  0  0  0  0  0  0
   13.3754   26.2227   -2.3198 C   0  0  0  0  0  0  0  0  0  0  0  0
   12.7399   27.1965   -2.9993 F   0  0  0  0  0  0  0  0  0  0  0  0
   12.6180   23.0910   -0.4749 N   0  0  0  0  0  0  0  0  0  0  0  0
   11.3937   23.1346    0.2386 C   0  0  0  0  0  0  0  0  0  0  0  0
   10.8045   24.2076    0.4077 O   0  0  0  0  0  0  0  0  0  0  0  0
   10.8264   21.9529    0.7681 N   0  0  0  0  0  0  0  0  0  0  0  0
   13.0520   22.1187   -0.5630 H   0  0  0  0  0  0  0  0  0  0  0  0
   11.3841   21.0504    0.5882 H   0  0  0  0  0  0  0  0  0  0  0  0
    9.6270   21.8838    1.4957 C   0  0  0  0  0  0  0  0  0  0  0  0
    8.6673   21.0010    0.9736 C   0  0  0  0  0  0  0  0  0  0  0  0
    7.4774   20.8559    1.6326 C   0  0  0  0  0  0  0  0  0  0  0  0
    7.1427   21.5213    2.7899 C   0  0  0  0  0  0  0  0  0  0  0  0
    8.0873   22.3817    3.2929 C   0  0  0  0  0  0  0  0  0  0  0  0
    9.3201   22.5595    2.6484 C   0  0  0  0  0  0  0  0  0  0  0  0
    7.7845   23.0986    4.4977 C   0  0  0  0  0  0  0  0  0  0  0  0
    7.5237   23.6768    5.4641 N   0  0  0  0  0  0  0  0  0  0  0  0
   15.4181   27.3306   -2.7774 O   0  0  0  0  0  0  0  0  0  0  0  0
   15.5861   25.1930   -7.1947 C   0  0  0  0  0  0  0  0  0  0  0  0
   16.1172   26.4536   -7.3434 C   0  0  0  0  0  0  0  0  0  0  0  0
   16.2171   27.3360   -6.2589 C   0  0  0  0  0  0  0  0  0  0  0  0
   16.7438   28.5677   -6.4396 N   0  0  0  0  0  0  0  0  0  0  0  0
   16.8520   29.4290   -5.4289 C   0  0  0  0  0  0  0  0  0  0  0  0
   16.4233   29.0775   -4.1611 C   0  0  0  0  0  0  0  0  0  0  0  0
   15.8706   27.8174   -3.9155 C   0  0  0  0  0  0  0  0  0  0  0  0
   15.7801   26.9375   -5.0352 C   0  0  0  0  0  0  0  0  0  0  0  0
   15.2477   25.6666   -4.8984 C   0  0  0  0  0  0  0  0  0  0  0  0
   15.1394   24.7737   -5.9643 C   0  0  0  0  0  0  0  0  0  0  0  0
   14.3037   23.7958   -8.7541 C   0  0  0  0  0  0  0  0  0  0  0  0
   15.5139   24.3615   -8.3129 O   0  0  0  0  0  0  0  0  0  0  0  0
   14.6014   23.5045   -5.8003 O   0  0  0  0  0  0  0  0  0  0  0  0
   15.3733   22.5576   -5.0868 C   0  0  0  0  0  0  0  0  0  0  0  0
 33 34  1  0  0  0
 34 23  1  0  0  0
 23 24  2  0  0  0
 24 25  1  0  0  0
 25 26  2  0  0  0
 26 27  1  0  0  0
 27 28  2  0  0  0
 28 29  1  0  0  0
 29 22  1  0  0  0
 22  1  1  0  0  0
  1  2  2  0  0  0
  2  3  1  0  0  0
  3  4  2  0  0  0
  4  8  1  0  0  0
  8  9  1  0  0  0
  9 10  2  0  0  0
  9 11  1  0  0  0
 11 14  1  0  0  0
 14 15  2  0  0  0
 15 16  1  0  0  0
 16 17  2  0  0  0
 17 18  1  0  0  0
 18 19  2  0  0  0
 18 20  1  0  0  0
 20 21  3  0  0  0
  4  5  1  0  0  0
  5  6  2  0  0  0
  6  7  1  0  0  0
 29 30  2  0  0  0
 30 31  1  0  0  0
 31 32  2  0  0  0
 32 35  1  0  0  0
 35 36  1  0  0  0
 32 23  1  0  0  0
 30 25  1  0  0  0
  6  1  1  0  0  0
 19 14  1  0  0  0
  8 12  1  0  0  0
 11 13  1  0  0  0
M  END
> <minimizedAffinity>
12.82692

> <CNNscore>
0.4408901334

> <CNNaffinity>
6.8381071091

> <CNN_VS>
3.0148539543

> <CNNaffinity_variance>
0.3815215230

$$$$
[H]c1nc2c([H])c(OC([H])([H])[H])c(OC([H])([H])[H])c([H])c2c(Oc2c([H])c([H])c(N([H])C(=O)N([H])c3c([H])c([H])c([H])c(C#N)c3[H])c([H])c2F)c1[H]


 36 39  0  0  0  0  0  0  0  0999 V2000
   14.3823   23.3605   -3.2783 C   0  0  0  0  0  0  0  0  0  0  0  0
   14.6825   22.2651   -2.5100 C   0  0  0  0  0  0  0  0  0  0  0  0
   14.2054   22.0466   -1.2240 C   0  0  0  0  0  0  0  0  0  0  0  0
   13.3534   22.9908   -0.6347 C   0  0  0  0  0  0  0  0  0  0  0  0
   13.0538   24.0727   -1.3896 C   0  0  0  0  0  0  0  0  0  0  0  0
   13.5182   24.2958   -2.6540 C   0  0  0  0  0  0  0  0  0  0  0  0
   13.1821   25.3960   -3.3543 F   0  0  0  0  0  0  0  0  0  0  0  0
   12.8788   22.7304    0.6514 N   0  0  0  0  0  0  0  0  0  0  0  0
   11.5222   22.7176    1.0626 C   0  0  0  0  0  0  0  0  0  0  0  0
   10.6196   22.9595    0.2539 O   0  0  0  0  0  0  0  0  0  0  0  0
   11.1787   22.4283    2.4031 N   0  0  0  0  0  0  0  0  0  0  0  0
   13.5843   22.5144    1.4241 H   0  0  0  0  0  0  0  0  0  0  0  0
   12.0066   22.2251    3.0597 H   0  0  0  0  0  0  0  0  0  0  0  0
    9.8723   22.3975    2.9177 C   0  0  0  0  0  0  0  0  0  0  0  0
    9.7195   22.9889    4.1826 C   0  0  0  0  0  0  0  0  0  0  0  0
    8.4747   23.0219    4.7489 C   0  0  0  0  0  0  0  0  0  0  0  0
    7.3395   22.5102    4.1629 C   0  0  0  0  0  0  0  0  0  0  0  0
    7.4987   21.9344    2.9265 C   0  0  0  0  0  0  0  0  0  0  0  0
    8.7574   21.8800    2.3104 C   0  0  0  0  0  0  0  0  0  0  0  0
    6.3441   21.3866    2.2753 C   0  0  0  0  0  0  0  0  0  0  0  0
    5.4166   20.9552    1.7368 N   0  0  0  0  0  0  0  0  0  0  0  0
   14.8203   23.5985   -4.5055 O   0  0  0  0  0  0  0  0  0  0  0  0
   17.2641   27.7939   -3.7728 C   0  0  0  0  0  0  0  0  0  0  0  0
   16.9252   27.7597   -5.1059 C   0  0  0  0  0  0  0  0  0  0  0  0
   16.2120   26.6827   -5.6502 C   0  0  0  0  0  0  0  0  0  0  0  0
   15.8953   26.6805   -6.9643 N   0  0  0  0  0  0  0  0  0  0  0  0
   15.2186   25.6714   -7.5112 C   0  0  0  0  0  0  0  0  0  0  0  0
   14.8222   24.5944   -6.7382 C   0  0  0  0  0  0  0  0  0  0  0  0
   15.1219   24.5429   -5.3740 C   0  0  0  0  0  0  0  0  0  0  0  0
   15.8481   25.6510   -4.8438 C   0  0  0  0  0  0  0  0  0  0  0  0
   16.1950   25.6971   -3.5041 C   0  0  0  0  0  0  0  0  0  0  0  0
   16.9039   26.7590   -2.9430 C   0  0  0  0  0  0  0  0  0  0  0  0
   19.2327   29.2608   -3.8032 C   0  0  0  0  0  0  0  0  0  0  0  0
   17.9746   28.8941   -3.2913 O   0  0  0  0  0  0  0  0  0  0  0  0
   17.2395   26.7808   -1.5961 O   0  0  0  0  0  0  0  0  0  0  0  0
   16.8498   25.6708   -0.8103 C   0  0  0  0  0  0  0  0  0  0  0  0
 33 34  1  0  0  0
 34 23  1  0  0  0
 23 24  2  0  0  0
 24 25  1  0  0  0
 25 26  2  0  0  0
 26 27  1  0  0  0
 27 28  2  0  0  0
 28 29  1  0  0  0
 29 22  1  0  0  0
 22  1  1  0  0  0
  1  2  2  0  0  0
  2  3  1  0  0  0
  3  4  2  0  0  0
  4  8  1  0  0  0
  8  9  1  0  0  0
  9 10  2  0  0  0
  9 11  1  0  0  0
 11 14  1  0  0  0
 14 15  2  0  0  0
 15 16  1  0  0  0
 16 17  2  0  0  0
 17 18  1  0  0  0
 18 19  2  0  0  0
 18 20  1  0  0  0
 20 21  3  0  0  0
  4  5  1  0  0  0
  5  6  2  0  0  0
  6  7  1  0  0  0
 29 30  2  0  0  0
 30 31  1  0  0  0
 31 32  2  0  0  0
 32 35  1  0  0  0
 35 36  1  0  0  0
 32 23  1  0  0  0
 30 25  1  0  0  0
  6  1  1  0  0  0
 19 14  1  0  0  0
  8 12  1  0  0  0
 11 13  1  0  0  0
M  END
> <minimizedAffinity>
-1.53153

> <CNNscore>
0.4405557513

> <CNNaffinity>
7.2610459328

> <CNN_VS>
3.1988954544

> <CNNaffinity_variance>
0.4496515393

$$$$
[H]c1nc2c([H])c(OC([H])([H])[H])c(OC([H])([H])[H])c([H])c2c(Oc2c([H])c([H])c(N([H])C(=O)N([H])c3c([H])c([H])c([H])c(C#N)c3[H])c([H])c2F)c1[H]


 36 39  0  0  0  0  0  0  0  0999 V2000
   14.2292   23.4201   -0.3308 C   0  0  0  0  0  0  0  0  0  0  0  0
   13.1725   24.0593    0.2653 C   0  0  0  0  0  0  0  0  0  0  0  0
   12.0188   23.4297    0.7143 C   0  0  0  0  0  0  0  0  0  0  0  0
   11.8876   22.0422    0.5651 C   0  0  0  0  0  0  0  0  0  0  0  0
   12.9282   21.4073   -0.0217 C   0  0  0  0  0  0  0  0  0  0  0  0
   14.0657   22.0180   -0.4662 C   0  0  0  0  0  0  0  0  0  0  0  0
   15.0676   21.3277   -1.0436 F   0  0  0  0  0  0  0  0  0  0  0  0
   10.7232   21.4404    1.0436 N   0  0  0  0  0  0  0  0  0  0  0  0
    9.5255   21.2252    0.3164 C   0  0  0  0  0  0  0  0  0  0  0  0
    9.4331   21.5885   -0.8611 O   0  0  0  0  0  0  0  0  0  0  0  0
    8.4176   20.5920    0.9248 N   0  0  0  0  0  0  0  0  0  0  0  0
   10.7027   21.0960    2.0548 H   0  0  0  0  0  0  0  0  0  0  0  0
    8.5580   20.2975    1.9502 H   0  0  0  0  0  0  0  0  0  0  0  0
    7.1849   20.3378    0.3014 C   0  0  0  0  0  0  0  0  0  0  0  0
    6.4212   21.4803    0.0106 C   0  0  0  0  0  0  0  0  0  0  0  0
    5.2155   21.3251   -0.6166 C   0  0  0  0  0  0  0  0  0  0  0  0
    4.6837   20.1124   -0.9914 C   0  0  0  0  0  0  0  0  0  0  0  0
    5.4376   19.0015   -0.7033 C   0  0  0  0  0  0  0  0  0  0  0  0
    6.6793   19.1163   -0.0616 C   0  0  0  0  0  0  0  0  0  0  0  0
    4.9251   17.7143   -1.0745 C   0  0  0  0  0  0  0  0  0  0  0  0
    4.5015   16.6845   -1.3851 N   0  0  0  0  0  0  0  0  0  0  0  0
   15.3412   23.9904   -0.7698 O   0  0  0  0  0  0  0  0  0  0  0  0
   15.7667   24.7067   -5.6088 C   0  0  0  0  0  0  0  0  0  0  0  0
   16.2724   25.8298   -4.9954 C   0  0  0  0  0  0  0  0  0  0  0  0
   16.2999   25.9489   -3.5990 C   0  0  0  0  0  0  0  0  0  0  0  0
   16.8034   27.0660   -3.0285 N   0  0  0  0  0  0  0  0  0  0  0  0
   16.8431   27.2092   -1.7044 C   0  0  0  0  0  0  0  0  0  0  0  0
   16.3653   26.2077   -0.8777 C   0  0  0  0  0  0  0  0  0  0  0  0
   15.8335   25.0307   -1.4120 C   0  0  0  0  0  0  0  0  0  0  0  0
   15.8169   24.9335   -2.8356 C   0  0  0  0  0  0  0  0  0  0  0  0
   15.3107   23.8085   -3.4646 C   0  0  0  0  0  0  0  0  0  0  0  0
   15.2742   23.6704   -4.8519 C   0  0  0  0  0  0  0  0  0  0  0  0
   15.3285   25.7203   -7.8017 C   0  0  0  0  0  0  0  0  0  0  0  0
   15.7672   24.6485   -7.0029 O   0  0  0  0  0  0  0  0  0  0  0  0
   14.7611   22.5316   -5.4580 O   0  0  0  0  0  0  0  0  0  0  0  0
   14.6830   21.3564   -4.6743 C   0  0  0  0  0  0  0  0  0  0  0  0
 33 34  1  0  0  0
 34 23  1  0  0  0
 23 24  2  0  0  0
 24 25  1  0  0  0
 25 26  2  0  0  0
 26 27  1  0  0  0
 27 28  2  0  0  0
 28 29  1  0  0  0
 29 22  1  0  0  0
 22  1  1  0  0  0
  1  2  2  0  0  0
  2  3  1  0  0  0
  3  4  2  0  0  0
  4  8  1  0  0  0
  8  9  1  0  0  0
  9 10  2  0  0  0
  9 11  1  0  0  0
 11 14  1  0  0  0
 14 15  2  0  0  0
 15 16  1  0  0  0
 16 17  2  0  0  0
 17 18  1  0  0  0
 18 19  2  0  0  0
 18 20  1  0  0  0
 20 21  3  0  0  0
  4  5  1  0  0  0
  5  6  2  0  0  0
  6  7  1  0  0  0
 29 30  2  0  0  0
 30 31  1  0  0  0
 31 32  2  0  0  0
 32 35  1  0  0  0
 35 36  1  0  0  0
 32 23  1  0  0  0
 30 25  1  0  0  0
  6  1  1  0  0  0
 19 14  1  0  0  0
  8 12  1  0  0  0
 11 13  1  0  0  0
M  END
> <minimizedAffinity>
-1.16767

> <CNNscore>
0.4183989465

> <CNNaffinity>
7.2518692017

> <CNN_VS>
3.0341744423

> <CNNaffinity_variance>
1.0692608356

$$$$
[H]c1nc2c([H])c(OC([H])([H])[H])c(OC([H])([H])[H])c([H])c2c(Oc2c([H])c([H])c(N([H])C(=O)N([H])c3c([H])c([H])c([H])c(C#N)c3[H])c([H])c2F)c1[H]


 36 39  0  0  0  0  0  0  0  0999 V2000
   15.3182   25.7383   -0.8340 C   0  0  0  0  0  0  0  0  0  0  0  0
   15.6585   24.8449    0.1492 C   0  0  0  0  0  0  0  0  0  0  0  0
   14.7747   23.9611    0.7547 C   0  0  0  0  0  0  0  0  0  0  0  0
   13.4298   23.9514    0.3598 C   0  0  0  0  0  0  0  0  0  0  0  0
   13.0899   24.8306   -0.6107 C   0  0  0  0  0  0  0  0  0  0  0  0
   13.9516   25.7030   -1.2111 C   0  0  0  0  0  0  0  0  0  0  0  0
   13.5496   26.5553   -2.1732 F   0  0  0  0  0  0  0  0  0  0  0  0
   12.5738   23.0382    0.9765 N   0  0  0  0  0  0  0  0  0  0  0  0
   11.2152   23.2547    1.3185 C   0  0  0  0  0  0  0  0  0  0  0  0
   10.6743   24.3402    1.0812 O   0  0  0  0  0  0  0  0  0  0  0  0
   10.4566   22.2341    1.9360 N   0  0  0  0  0  0  0  0  0  0  0  0
   12.9512   22.0705    1.2267 H   0  0  0  0  0  0  0  0  0  0  0  0
   10.9810   21.3119    2.1163 H   0  0  0  0  0  0  0  0  0  0  0  0
    9.1110   22.3443    2.3232 C   0  0  0  0  0  0  0  0  0  0  0  0
    8.2788   21.3046    1.8765 C   0  0  0  0  0  0  0  0  0  0  0  0
    6.9566   21.3219    2.2268 C   0  0  0  0  0  0  0  0  0  0  0  0
    6.3686   22.2984    2.9980 C   0  0  0  0  0  0  0  0  0  0  0  0
    7.1902   23.3102    3.4303 C   0  0  0  0  0  0  0  0  0  0  0  0
    8.5515   23.3304    3.0940 C   0  0  0  0  0  0  0  0  0  0  0  0
    6.6231   24.3517    4.2371 C   0  0  0  0  0  0  0  0  0  0  0  0
    6.1597   25.1791    4.8982 N   0  0  0  0  0  0  0  0  0  0  0  0
   16.1354   26.5933   -1.4303 O   0  0  0  0  0  0  0  0  0  0  0  0
   15.6266   25.5225   -6.1953 C   0  0  0  0  0  0  0  0  0  0  0  0
   15.9759   26.8515   -6.1223 C   0  0  0  0  0  0  0  0  0  0  0  0
   16.1993   27.4807   -4.8897 C   0  0  0  0  0  0  0  0  0  0  0  0
   16.5408   28.7880   -4.8535 N   0  0  0  0  0  0  0  0  0  0  0  0
   16.7594   29.4143   -3.6980 C   0  0  0  0  0  0  0  0  0  0  0  0
   16.6402   28.7332   -2.4995 C   0  0  0  0  0  0  0  0  0  0  0  0
   16.2897   27.3803   -2.4762 C   0  0  0  0  0  0  0  0  0  0  0  0
   16.0680   26.7626   -3.7433 C   0  0  0  0  0  0  0  0  0  0  0  0
   15.7162   25.4261   -3.8299 C   0  0  0  0  0  0  0  0  0  0  0  0
   15.4896   24.7815   -5.0457 C   0  0  0  0  0  0  0  0  0  0  0  0
   14.1339   24.8052   -8.0078 C   0  0  0  0  0  0  0  0  0  0  0  0
   15.4178   24.9540   -7.4523 O   0  0  0  0  0  0  0  0  0  0  0  0
   15.1377   23.4399   -5.1051 O   0  0  0  0  0  0  0  0  0  0  0  0
   15.8700   22.5386   -4.2971 C   0  0  0  0  0  0  0  0  0  0  0  0
 33 34  1  0  0  0
 34 23  1  0  0  0
 23 24  2  0  0  0
 24 25  1  0  0  0
 25 26  2  0  0  0
 26 27  1  0  0  0
 27 28  2  0  0  0
 28 29  1  0  0  0
 29 22  1  0  0  0
 22  1  1  0  0  0
  1  2  2  0  0  0
  2  3  1  0  0  0
  3  4  2  0  0  0
  4  8  1  0  0  0
  8  9  1  0  0  0
  9 10  2  0  0  0
  9 11  1  0  0  0
 11 14  1  0  0  0
 14 15  2  0  0  0
 15 16  1  0  0  0
 16 17  2  0  0  0
 17 18  1  0  0  0
 18 19  2  0  0  0
 18 20  1  0  0  0
 20 21  3  0  0  0
  4  5  1  0  0  0
  5  6  2  0  0  0
  6  7  1  0  0  0
 29 30  2  0  0  0
 30 31  1  0  0  0
 31 32  2  0  0  0
 32 35  1  0  0  0
 35 36  1  0  0  0
 32 23  1  0  0  0
 30 25  1  0  0  0
  6  1  1  0  0  0
 19 14  1  0  0  0
  8 12  1  0  0  0
 11 13  1  0  0  0
M  END
> <minimizedAffinity>
4.05648

> <CNNscore>
0.4141890705

> <CNNaffinity>
6.9230942726

> <CNN_VS>
2.8674700260

> <CNNaffinity_variance>
0.3406698108

$$$$
[H]c1nc2c([H])c(OC([H])([H])[H])c(OC([H])([H])[H])c([H])c2c(Oc2c([H])c([H])c(N([H])C(=O)N([H])c3c([H])c([H])c([H])c(C#N)c3[H])c([H])c2F)c1[H]


 36 39  0  0  0  0  0  0  0  0999 V2000
   15.4119   24.6316   -0.8669 C   0  0  0  0  0  0  0  0  0  0  0  0
   15.6425   23.7183    0.1296 C   0  0  0  0  0  0  0  0  0  0  0  0
   14.6557   22.9775    0.7671 C   0  0  0  0  0  0  0  0  0  0  0  0
   13.3156   23.1475    0.3930 C   0  0  0  0  0  0  0  0  0  0  0  0
   13.0835   24.0470   -0.5905 C   0  0  0  0  0  0  0  0  0  0  0  0
   14.0470   24.7795   -1.2224 C   0  0  0  0  0  0  0  0  0  0  0  0
   13.7498   25.6612   -2.1961 F   0  0  0  0  0  0  0  0  0  0  0  0
   12.3525   22.3741    1.0419 N   0  0  0  0  0  0  0  0  0  0  0  0
   11.1761   22.8491    1.6747 C   0  0  0  0  0  0  0  0  0  0  0  0
   10.9206   24.0579    1.6966 O   0  0  0  0  0  0  0  0  0  0  0  0
   10.2763   21.9494    2.2906 N   0  0  0  0  0  0  0  0  0  0  0  0
   12.4869   21.3149    1.0809 H   0  0  0  0  0  0  0  0  0  0  0  0
   10.5516   20.9105    2.2383 H   0  0  0  0  0  0  0  0  0  0  0  0
    9.0906   22.3117    2.9505 C   0  0  0  0  0  0  0  0  0  0  0  0
    8.3914   21.2459    3.5405 C   0  0  0  0  0  0  0  0  0  0  0  0
    7.2361   21.5127    4.2228 C   0  0  0  0  0  0  0  0  0  0  0  0
    6.6966   22.7692    4.3781 C   0  0  0  0  0  0  0  0  0  0  0  0
    7.3874   23.8047    3.7982 C   0  0  0  0  0  0  0  0  0  0  0  0
    8.5759   23.5747    3.0902 C   0  0  0  0  0  0  0  0  0  0  0  0
    6.8644   25.1335    3.9326 C   0  0  0  0  0  0  0  0  0  0  0  0
    6.4282   26.1979    4.0474 N   0  0  0  0  0  0  0  0  0  0  0  0
   16.3289   25.3532   -1.4936 O   0  0  0  0  0  0  0  0  0  0  0  0
   15.5488   25.5108   -6.3389 C   0  0  0  0  0  0  0  0  0  0  0  0
   16.0280   26.7479   -5.9737 C   0  0  0  0  0  0  0  0  0  0  0  0
   16.3553   27.0397   -4.6423 C   0  0  0  0  0  0  0  0  0  0  0  0
   16.8235   28.2654   -4.3174 N   0  0  0  0  0  0  0  0  0  0  0  0
   17.1430   28.5734   -3.0612 C   0  0  0  0  0  0  0  0  0  0  0  0
   17.0009   27.6362   -2.0532 C   0  0  0  0  0  0  0  0  0  0  0  0
   16.5215   26.3529   -2.3306 C   0  0  0  0  0  0  0  0  0  0  0  0
   16.1958   26.0804   -3.6929 C   0  0  0  0  0  0  0  0  0  0  0  0
   15.7128   24.8395   -4.0730 C   0  0  0  0  0  0  0  0  0  0  0  0
   15.3814   24.5290   -5.3916 C   0  0  0  0  0  0  0  0  0  0  0  0
   16.1937   25.4220   -8.7063 C   0  0  0  0  0  0  0  0  0  0  0  0
   15.2410   25.2822   -7.6806 O   0  0  0  0  0  0  0  0  0  0  0  0
   14.8988   23.2766   -5.7465 O   0  0  0  0  0  0  0  0  0  0  0  0
   15.1569   22.2046   -4.8601 C   0  0  0  0  0  0  0  0  0  0  0  0
 33 34  1  0  0  0
 34 23  1  0  0  0
 23 24  2  0  0  0
 24 25  1  0  0  0
 25 26  2  0  0  0
 26 27  1  0  0  0
 27 28  2  0  0  0
 28 29  1  0  0  0
 29 22  1  0  0  0
 22  1  1  0  0  0
  1  2  2  0  0  0
  2  3  1  0  0  0
  3  4  2  0  0  0
  4  8  1  0  0  0
  8  9  1  0  0  0
  9 10  2  0  0  0
  9 11  1  0  0  0
 11 14  1  0  0  0
 14 15  2  0  0  0
 15 16  1  0  0  0
 16 17  2  0  0  0
 17 18  1  0  0  0
 18 19  2  0  0  0
 18 20  1  0  0  0
 20 21  3  0  0  0
  4  5  1  0  0  0
  5  6  2  0  0  0
  6  7  1  0  0  0
 29 30  2  0  0  0
 30 31  1  0  0  0
 31 32  2  0  0  0
 32 35  1  0  0  0
 35 36  1  0  0  0
 32 23  1  0  0  0
 30 25  1  0  0  0
  6  1  1  0  0  0
 19 14  1  0  0  0
  8 12  1  0  0  0
 11 13  1  0  0  0
M  END
> <minimizedAffinity>
-2.24848

> <CNNscore>
0.4082089067

> <CNNaffinity>
7.2702560425

> <CNN_VS>
2.9677832127

> <CNNaffinity_variance>
0.3101211488

$$$$
[H]c1nc2c([H])c(OC([H])([H])[H])c(OC([H])([H])[H])c([H])c2c(Oc2c([H])c([H])c(N([H])C(=O)N([H])c3c([H])c([H])c([H])c(C#N)c3[H])c([H])c2F)c1[H]


 36 39  0  0  0  0  0  0  0  0999 V2000
   14.6858   25.5715   -4.3678 C   0  0  0  0  0  0  0  0  0  0  0  0
   13.9296   25.9512   -3.2887 C   0  0  0  0  0  0  0  0  0  0  0  0
   13.0225   27.0029   -3.2898 C   0  0  0  0  0  0  0  0  0  0  0  0
   12.8388   27.7542   -4.4588 C   0  0  0  0  0  0  0  0  0  0  0  0
   13.5823   27.3825   -5.5262 C   0  0  0  0  0  0  0  0  0  0  0  0
   14.4762   26.3504   -5.5341 C   0  0  0  0  0  0  0  0  0  0  0  0
   15.1876   26.0305   -6.6320 F   0  0  0  0  0  0  0  0  0  0  0  0
   11.9065   28.7920   -4.4293 N   0  0  0  0  0  0  0  0  0  0  0  0
   10.4954   28.6573   -4.4170 C   0  0  0  0  0  0  0  0  0  0  0  0
    9.9722   27.5380   -4.4404 O   0  0  0  0  0  0  0  0  0  0  0  0
    9.6633   29.7995   -4.3778 N   0  0  0  0  0  0  0  0  0  0  0  0
   12.2616   29.7995   -4.4124 H   0  0  0  0  0  0  0  0  0  0  0  0
   10.1758   30.7454   -4.3578 H   0  0  0  0  0  0  0  0  0  0  0  0
    8.2589   29.7807   -4.3711 C   0  0  0  0  0  0  0  0  0  0  0  0
    7.6633   30.3932   -3.2561 C   0  0  0  0  0  0  0  0  0  0  0  0
    6.2983   30.4389   -3.1798 C   0  0  0  0  0  0  0  0  0  0  0  0
    5.4481   29.9209   -4.1301 C   0  0  0  0  0  0  0  0  0  0  0  0
    6.0395   29.3246   -5.2165 C   0  0  0  0  0  0  0  0  0  0  0  0
    7.4353   29.2567   -5.3337 C   0  0  0  0  0  0  0  0  0  0  0  0
    5.1945   28.7696   -6.2339 C   0  0  0  0  0  0  0  0  0  0  0  0
    4.5084   28.3382   -7.0583 N   0  0  0  0  0  0  0  0  0  0  0  0
   15.5585   24.5755   -4.3992 O   0  0  0  0  0  0  0  0  0  0  0  0
   13.8239   21.3836   -1.0957 C   0  0  0  0  0  0  0  0  0  0  0  0
   14.5138   20.6493   -2.0328 C   0  0  0  0  0  0  0  0  0  0  0  0
   15.1406   21.2647   -3.1252 C   0  0  0  0  0  0  0  0  0  0  0  0
   15.8101   20.5137   -4.0278 N   0  0  0  0  0  0  0  0  0  0  0  0
   16.4158   21.0690   -5.0767 C   0  0  0  0  0  0  0  0  0  0  0  0
   16.3719   22.4390   -5.2656 C   0  0  0  0  0  0  0  0  0  0  0  0
   15.6943   23.2650   -4.3644 C   0  0  0  0  0  0  0  0  0  0  0  0
   15.0650   22.6149   -3.2610 C   0  0  0  0  0  0  0  0  0  0  0  0
   14.3679   23.3428   -2.3113 C   0  0  0  0  0  0  0  0  0  0  0  0
   13.7375   22.7500   -1.2176 C   0  0  0  0  0  0  0  0  0  0  0  0
   13.6886   20.8247    1.2912 C   0  0  0  0  0  0  0  0  0  0  0  0
   13.2216   20.7123   -0.0310 O   0  0  0  0  0  0  0  0  0  0  0  0
   13.0446   23.5028   -0.2793 O   0  0  0  0  0  0  0  0  0  0  0  0
   13.6665   24.6805    0.1979 C   0  0  0  0  0  0  0  0  0  0  0  0
 33 34  1  0  0  0
 34 23  1  0  0  0
 23 24  2  0  0  0
 24 25  1  0  0  0
 25 26  2  0  0  0
 26 27  1  0  0  0
 27 28  2  0  0  0
 28 29  1  0  0  0
 29 22  1  0  0  0
 22  1  1  0  0  0
  1  2  2  0  0  0
  2  3  1  0  0  0
  3  4  2  0  0  0
  4  8  1  0  0  0
  8  9  1  0  0  0
  9 10  2  0  0  0
  9 11  1  0  0  0
 11 14  1  0  0  0
 14 15  2  0  0  0
 15 16  1  0  0  0
 16 17  2  0  0  0
 17 18  1  0  0  0
 18 19  2  0  0  0
 18 20  1  0  0  0
 20 21  3  0  0  0
  4  5  1  0  0  0
  5  6  2  0  0  0
  6  7  1  0  0  0
 29 30  2  0  0  0
 30 31  1  0  0  0
 31 32  2  0  0  0
 32 35  1  0  0  0
 35 36  1  0  0  0
 32 23  1  0  0  0
 30 25  1  0  0  0
  6  1  1  0  0  0
 19 14  1  0  0  0
  8 12  1  0  0  0
 11 13  1  0  0  0
M  END
> <minimizedAffinity>
24.86961

> <CNNscore>
0.3896061778

> <CNNaffinity>
6.2123751640

> <CNN_VS>
2.4203796387

> <CNNaffinity_variance>
0.2129278630

$$$$
[H]c1nc2c([H])c(OC([H])([H])[H])c(OC([H])([H])[H])c([H])c2c(Oc2c([H])c([H])c(N([H])C(=O)N([H])c3c([H])c([H])c([H])c(C#N)c3[H])c([H])c2F)c1[H]


 36 39  0  0  0  0  0  0  0  0999 V2000
   13.7467   22.4940    0.2295 C   0  0  0  0  0  0  0  0  0  0  0  0
   13.2682   23.7729    0.3556 C   0  0  0  0  0  0  0  0  0  0  0  0
   13.1075   24.6643   -0.6973 C   0  0  0  0  0  0  0  0  0  0  0  0
   13.4479   24.2652   -1.9971 C   0  0  0  0  0  0  0  0  0  0  0  0
   13.9196   23.0038   -2.1262 C   0  0  0  0  0  0  0  0  0  0  0  0
   14.0811   22.1210   -1.0972 C   0  0  0  0  0  0  0  0  0  0  0  0
   14.5571   20.8764   -1.2923 F   0  0  0  0  0  0  0  0  0  0  0  0
   13.2568   25.1801   -3.0332 N   0  0  0  0  0  0  0  0  0  0  0  0
   12.6087   26.4374   -2.9385 C   0  0  0  0  0  0  0  0  0  0  0  0
   12.1370   26.8201   -1.8624 O   0  0  0  0  0  0  0  0  0  0  0  0
   12.4912   27.2740   -4.0720 N   0  0  0  0  0  0  0  0  0  0  0  0
   13.6259   24.9372   -4.0059 H   0  0  0  0  0  0  0  0  0  0  0  0
   12.9216   26.8877   -4.9794 H   0  0  0  0  0  0  0  0  0  0  0  0
   11.8637   28.5305   -4.0918 C   0  0  0  0  0  0  0  0  0  0  0  0
   12.4518   29.4996   -3.2625 C   0  0  0  0  0  0  0  0  0  0  0  0
   11.9168   30.7584   -3.2376 C   0  0  0  0  0  0  0  0  0  0  0  0
   10.8259   31.1550   -3.9770 C   0  0  0  0  0  0  0  0  0  0  0  0
   10.2582   30.2008   -4.7850 C   0  0  0  0  0  0  0  0  0  0  0  0
   10.7757   28.8985   -4.8402 C   0  0  0  0  0  0  0  0  0  0  0  0
    9.1183   30.5664   -5.5751 C   0  0  0  0  0  0  0  0  0  0  0  0
    8.2099   30.8707   -6.2220 N   0  0  0  0  0  0  0  0  0  0  0  0
   13.9122   21.6208    1.2117 O   0  0  0  0  0  0  0  0  0  0  0  0
    9.4421   22.0040    3.2072 C   0  0  0  0  0  0  0  0  0  0  0  0
    9.9759   20.8171    3.6543 C   0  0  0  0  0  0  0  0  0  0  0  0
   11.2571   20.4011    3.2664 C   0  0  0  0  0  0  0  0  0  0  0  0
   11.7514   19.2292    3.7238 N   0  0  0  0  0  0  0  0  0  0  0  0
   12.9653   18.8064    3.3731 C   0  0  0  0  0  0  0  0  0  0  0  0
   13.7528   19.5652    2.5254 C   0  0  0  0  0  0  0  0  0  0  0  0
   13.2933   20.7854    2.0217 C   0  0  0  0  0  0  0  0  0  0  0  0
   11.9867   21.1869    2.4313 C   0  0  0  0  0  0  0  0  0  0  0  0
   11.4386   22.3789    1.9884 C   0  0  0  0  0  0  0  0  0  0  0  0
   10.1663   22.8108    2.3623 C   0  0  0  0  0  0  0  0  0  0  0  0
    7.9411   23.2169    4.7251 C   0  0  0  0  0  0  0  0  0  0  0  0
    8.1614   22.3624    3.6294 O   0  0  0  0  0  0  0  0  0  0  0  0
    9.6397   24.0107    1.9038 O   0  0  0  0  0  0  0  0  0  0  0  0
   10.3785   25.1883    2.1667 C   0  0  0  0  0  0  0  0  0  0  0  0
 33 34  1  0  0  0
 34 23  1  0  0  0
 23 24  2  0  0  0
 24 25  1  0  0  0
 25 26  2  0  0  0
 26 27  1  0  0  0
 27 28  2  0  0  0
 28 29  1  0  0  0
 29 22  1  0  0  0
 22  1  1  0  0  0
  1  2  2  0  0  0
  2  3  1  0  0  0
  3  4  2  0  0  0
  4  8  1  0  0  0
  8  9  1  0  0  0
  9 10  2  0  0  0
  9 11  1  0  0  0
 11 14  1  0  0  0
 14 15  2  0  0  0
 15 16  1  0  0  0
 16 17  2  0  0  0
 17 18  1  0  0  0
 18 19  2  0  0  0
 18 20  1  0  0  0
 20 21  3  0  0  0
  4  5  1  0  0  0
  5  6  2  0  0  0
  6  7  1  0  0  0
 29 30  2  0  0  0
 30 31  1  0  0  0
 31 32  2  0  0  0
 32 35  1  0  0  0
 35 36  1  0  0  0
 32 23  1  0  0  0
 30 25  1  0  0  0
  6  1  1  0  0  0
 19 14  1  0  0  0
  8 12  1  0  0  0
 11 13  1  0  0  0
M  END
> <minimizedAffinity>
15.10699

> <CNNscore>
0.3322582245

> <CNNaffinity>
6.4336266518

> <CNN_VS>
2.1376254559

> <CNNaffinity_variance>
0.4139050543

$$$$
[H]c1nc2c([H])c(OC([H])([H])[H])c(OC([H])([H])[H])c([H])c2c(Oc2c([H])c([H])c(N([H])C(=O)N([H])c3c([H])c([H])c([H])c(C#N)c3[H])c([H])c2F)c1[H]


 36 39  0  0  0  0  0  0  0  0999 V2000
   13.0639   21.9043    1.3101 C   0  0  0  0  0  0  0  0  0  0  0  0
   12.6062   23.1953    1.2438 C   0  0  0  0  0  0  0  0  0  0  0  0
   12.8047   24.0503    0.1675 C   0  0  0  0  0  0  0  0  0  0  0  0
   13.5196   23.5979   -0.9501 C   0  0  0  0  0  0  0  0  0  0  0  0
   13.9723   22.3245   -0.8894 C   0  0  0  0  0  0  0  0  0  0  0  0
   13.7821   21.4772    0.1643 C   0  0  0  0  0  0  0  0  0  0  0  0
   14.2599   20.2181    0.1631 F   0  0  0  0  0  0  0  0  0  0  0  0
   13.6846   24.4775   -2.0207 N   0  0  0  0  0  0  0  0  0  0  0  0
   12.8205   25.5435   -2.3766 C   0  0  0  0  0  0  0  0  0  0  0  0
   11.7978   25.7674   -1.7201 O   0  0  0  0  0  0  0  0  0  0  0  0
   13.1134   26.3678   -3.4871 N   0  0  0  0  0  0  0  0  0  0  0  0
   14.5387   24.3618   -2.6521 H   0  0  0  0  0  0  0  0  0  0  0  0
   14.0169   26.1249   -4.0187 H   0  0  0  0  0  0  0  0  0  0  0  0
   12.3247   27.4417   -3.9313 C   0  0  0  0  0  0  0  0  0  0  0  0
   11.3039   27.0946   -4.8317 C   0  0  0  0  0  0  0  0  0  0  0  0
   10.4741   28.0770   -5.2981 C   0  0  0  0  0  0  0  0  0  0  0  0
   10.5648   29.4044   -4.9459 C   0  0  0  0  0  0  0  0  0  0  0  0
   11.5654   29.7339   -4.0650 C   0  0  0  0  0  0  0  0  0  0  0  0
   12.4376   28.7573   -3.5626 C   0  0  0  0  0  0  0  0  0  0  0  0
   11.7003   31.1055   -3.6680 C   0  0  0  0  0  0  0  0  0  0  0  0
   11.7944   32.2096   -3.3387 N   0  0  0  0  0  0  0  0  0  0  0  0
   12.8924   21.0649    2.3201 O   0  0  0  0  0  0  0  0  0  0  0  0
    8.3719   22.5275    3.5597 C   0  0  0  0  0  0  0  0  0  0  0  0
    8.5641   21.2957    4.1420 C   0  0  0  0  0  0  0  0  0  0  0  0
    9.7664   20.5928    3.9828 C   0  0  0  0  0  0  0  0  0  0  0  0
    9.9222   19.3845    4.5683 N   0  0  0  0  0  0  0  0  0  0  0  0
   11.0527   18.6919    4.4355 C   0  0  0  0  0  0  0  0  0  0  0  0
   12.1008   19.1999    3.6884 C   0  0  0  0  0  0  0  0  0  0  0  0
   11.9958   20.4442    3.0604 C   0  0  0  0  0  0  0  0  0  0  0  0
   10.7627   21.1400    3.2378 C   0  0  0  0  0  0  0  0  0  0  0  0
   10.5572   22.3801    2.6570 C   0  0  0  0  0  0  0  0  0  0  0  0
    9.3690   23.0956    2.8031 C   0  0  0  0  0  0  0  0  0  0  0  0
    6.9125   24.0106    4.8631 C   0  0  0  0  0  0  0  0  0  0  0  0
    7.1525   23.1769    3.7556 O   0  0  0  0  0  0  0  0  0  0  0  0
    9.1882   24.3377    2.2100 O   0  0  0  0  0  0  0  0  0  0  0  0
    9.6577   25.4703    2.9159 C   0  0  0  0  0  0  0  0  0  0  0  0
 33 34  1  0  0  0
 34 23  1  0  0  0
 23 24  2  0  0  0
 24 25  1  0  0  0
 25 26  2  0  0  0
 26 27  1  0  0  0
 27 28  2  0  0  0
 28 29  1  0  0  0
 29 22  1  0  0  0
 22  1  1  0  0  0
  1  2  2  0  0  0
  2  3  1  0  0  0
  3  4  2  0  0  0
  4  8  1  0  0  0
  8  9  1  0  0  0
  9 10  2  0  0  0
  9 11  1  0  0  0
 11 14  1  0  0  0
 14 15  2  0  0  0
 15 16  1  0  0  0
 16 17  2  0  0  0
 17 18  1  0  0  0
 18 19  2  0  0  0
 18 20  1  0  0  0
 20 21  3  0  0  0
  4  5  1  0  0  0
  5  6  2  0  0  0
  6  7  1  0  0  0
 29 30  2  0  0  0
 30 31  1  0  0  0
 31 32  2  0  0  0
 32 35  1  0  0  0
 35 36  1  0  0  0
 32 23  1  0  0  0
 30 25  1  0  0  0
  6  1  1  0  0  0
 19 14  1  0  0  0
  8 12  1  0  0  0
 11 13  1  0  0  0
M  END
> <minimizedAffinity>
11.03166

> <CNNscore>
0.2535386384

> <CNNaffinity>
6.4673910141

> <CNN_VS>
1.6397335529

> <CNNaffinity_variance>
0.1724926382

$$$$
[H]c1nc2c([H])c(OC([H])([H])[H])c(OC([H])([H])[H])c([H])c2c(Oc2c([H])c([H])c(N([H])C(=O)N([H])c3c([H])c([H])c([H])c(C#N)c3[H])c([H])c2F)c1[H]


 36 39  0  0  0  0  0  0  0  0999 V2000
   10.3762   23.6244    1.0425 C   0  0  0  0  0  0  0  0  0  0  0  0
   11.2311   24.6957    1.0859 C   0  0  0  0  0  0  0  0  0  0  0  0
   11.6008   25.4573   -0.0152 C   0  0  0  0  0  0  0  0  0  0  0  0
   11.0840   25.1393   -1.2787 C   0  0  0  0  0  0  0  0  0  0  0  0
   10.2394   24.0836   -1.3260 C   0  0  0  0  0  0  0  0  0  0  0  0
    9.8707   23.3293   -0.2492 C   0  0  0  0  0  0  0  0  0  0  0  0
    9.0241   22.2882   -0.3630 F   0  0  0  0  0  0  0  0  0  0  0  0
   11.4626   25.9366   -2.3595 N   0  0  0  0  0  0  0  0  0  0  0  0
   12.7404   25.9743   -2.9723 C   0  0  0  0  0  0  0  0  0  0  0  0
   13.6581   25.2608   -2.5530 O   0  0  0  0  0  0  0  0  0  0  0  0
   12.9866   26.8276   -4.0722 N   0  0  0  0  0  0  0  0  0  0  0  0
   10.7384   26.5933   -2.7904 H   0  0  0  0  0  0  0  0  0  0  0  0
   12.1498   27.4235   -4.3925 H   0  0  0  0  0  0  0  0  0  0  0  0
   14.2128   26.9498   -4.7461 C   0  0  0  0  0  0  0  0  0  0  0  0
   15.1961   27.6811   -4.0596 C   0  0  0  0  0  0  0  0  0  0  0  0
   16.4282   27.8306   -4.6347 C   0  0  0  0  0  0  0  0  0  0  0  0
   16.7846   27.3093   -5.8576 C   0  0  0  0  0  0  0  0  0  0  0  0
   15.8169   26.5957   -6.5209 C   0  0  0  0  0  0  0  0  0  0  0  0
   14.5410   26.4185   -5.9666 C   0  0  0  0  0  0  0  0  0  0  0  0
   16.1408   26.0327   -7.7997 C   0  0  0  0  0  0  0  0  0  0  0  0
   16.4187   25.5801   -8.8265 N   0  0  0  0  0  0  0  0  0  0  0  0
   10.0047   22.8785    2.0721 O   0  0  0  0  0  0  0  0  0  0  0  0
   13.8635   19.8692    1.6678 C   0  0  0  0  0  0  0  0  0  0  0  0
   13.1062   19.4045    2.7184 C   0  0  0  0  0  0  0  0  0  0  0  0
   11.9206   20.0457    3.1033 C   0  0  0  0  0  0  0  0  0  0  0  0
   11.2005   19.5631    4.1403 N   0  0  0  0  0  0  0  0  0  0  0  0
   10.0698   20.1503    4.5302 C   0  0  0  0  0  0  0  0  0  0  0  0
    9.6047   21.2771    3.8755 C   0  0  0  0  0  0  0  0  0  0  0  0
   10.3080   21.8202    2.7966 C   0  0  0  0  0  0  0  0  0  0  0  0
   11.5111   21.1494    2.4241 C   0  0  0  0  0  0  0  0  0  0  0  0
   12.2818   21.6072    1.3686 C   0  0  0  0  0  0  0  0  0  0  0  0
   13.4640   20.9840    0.9700 C   0  0  0  0  0  0  0  0  0  0  0  0
   16.0890   19.7992    0.6331 C   0  0  0  0  0  0  0  0  0  0  0  0
   15.0338   19.1868    1.3335 O   0  0  0  0  0  0  0  0  0  0  0  0
   14.2187   21.4635   -0.0921 O   0  0  0  0  0  0  0  0  0  0  0  0
   14.3498   22.8667   -0.2161 C   0  0  0  0  0  0  0  0  0  0  0  0
 33 34  1  0  0  0
 34 23  1  0  0  0
 23 24  2  0  0  0
 24 25  1  0  0  0
 25 26  2  0  0  0
 26 27  1  0  0  0
 27 28  2  0  0  0
 28 29  1  0  0  0
 29 22  1  0  0  0
 22  1  1  0  0  0
  1  2  2  0  0  0
  2  3  1  0  0  0
  3  4  2  0  0  0
  4  8  1  0  0  0
  8  9  1  0  0  0
  9 10  2  0  0  0
  9 11  1  0  0  0
 11 14  1  0  0  0
 14 15  2  0  0  0
 15 16  1  0  0  0
 16 17  2  0  0  0
 17 18  1  0  0  0
 18 19  2  0  0  0
 18 20  1  0  0  0
 20 21  3  0  0  0
  4  5  1  0  0  0
  5  6  2  0  0  0
  6  7  1  0  0  0
 29 30  2  0  0  0
 30 31  1  0  0  0
 31 32  2  0  0  0
 32 35  1  0  0  0
 35 36  1  0  0  0
 32 23  1  0  0  0
 30 25  1  0  0  0
  6  1  1  0  0  0
 19 14  1  0  0  0
  8 12  1  0  0  0
 11 13  1  0  0  0
M  END
> <minimizedAffinity>
1.54884

> <CNNscore>
0.2444361746

> <CNNaffinity>
6.7228345871

> <CNN_VS>
1.6433039904

> <CNNaffinity_variance>
0.2163564712

$$$$
[H]c1c([H])c(N2C([H])([H])C([H])([H])C([H])([H])[C@@]([H])(C(=O)N3C([H])([H])C([H])([H])N(C(=O)c4c([H])c([H])c(OC([H])([H])[H])c([H])c4[H])C([H])([H])C3([H])[H])C2([H])[H])c([H])c([H])c1Cl


 31 34  0  0  0  0  0  0  0  0999 V2000
   12.6227   25.9915   -2.3103 C   0  0  0  0  0  0  0  0  0  0  0  0
   12.5002   27.2346   -1.8501 O   0  0  0  0  0  0  0  0  0  0  0  0
   11.9432   25.0154   -1.6207 N   0  0  0  0  0  0  0  0  0  0  0  0
   11.2071   25.4648   -0.4078 C   0  0  0  0  0  0  0  0  0  0  0  0
   11.5752   24.5885    0.7309 C   0  0  0  0  0  0  0  0  0  0  0  0
   12.1986   23.3406    0.4324 N   0  0  0  0  0  0  0  0  0  0  0  0
   12.6929   22.9213   -0.8673 C   0  0  0  0  0  0  0  0  0  0  0  0
   11.7869   23.6419   -1.8872 C   0  0  0  0  0  0  0  0  0  0  0  0
   12.3424   22.4122    1.5109 C   0  0  0  0  0  0  0  0  0  0  0  0
   11.9076   22.7212    2.6375 O   0  0  0  0  0  0  0  0  0  0  0  0
   15.3000   25.8550   -5.6862 C   0  0  0  0  0  0  0  0  0  0  0  0
   14.3054   26.7897   -5.6166 C   0  0  0  0  0  0  0  0  0  0  0  0
   13.4118   26.8332   -4.5288 C   0  0  0  0  0  0  0  0  0  0  0  0
   13.4787   25.9560   -3.4813 C   0  0  0  0  0  0  0  0  0  0  0  0
   14.5097   25.0035   -3.5764 C   0  0  0  0  0  0  0  0  0  0  0  0
   15.3772   24.9660   -4.6403 C   0  0  0  0  0  0  0  0  0  0  0  0
   15.7914   26.0674   -8.0789 C   0  0  0  0  0  0  0  0  0  0  0  0
   16.1929   25.7899   -6.7451 O   0  0  0  0  0  0  0  0  0  0  0  0
   13.0038   21.1023    1.2800 C   0  0  0  0  0  0  0  0  0  0  0  0
   14.4477   21.2590    1.7116 C   0  0  0  0  0  0  0  0  0  0  0  0
   15.1717   19.9979    1.2746 C   0  0  0  0  0  0  0  0  0  0  0  0
   15.3288   20.1072   -0.2224 C   0  0  0  0  0  0  0  0  0  0  0  0
   14.0697   20.3687   -0.8385 N   0  0  0  0  0  0  0  0  0  0  0  0
   12.8633   20.6255   -0.1297 C   0  0  0  0  0  0  0  0  0  0  0  0
   14.0241   20.3716   -2.2777 C   0  0  0  0  0  0  0  0  0  0  0  0
   13.1692   19.5142   -2.9658 C   0  0  0  0  0  0  0  0  0  0  0  0
   13.1033   19.5002   -4.3411 C   0  0  0  0  0  0  0  0  0  0  0  0
   13.8886   20.3424   -5.0986 C   0  0  0  0  0  0  0  0  0  0  0  0
   13.8258   20.3466   -6.8522 Cl  0  0  0  0  0  0  0  0  0  0  0  0
   14.7399   21.1972   -4.4354 C   0  0  0  0  0  0  0  0  0  0  0  0
   14.8037   21.2086   -3.0478 C   0  0  0  0  0  0  0  0  0  0  0  0
 17 18  1  0  0  0
 18 11  1  0  0  0
 11 12  2  0  0  0
 12 13  1  0  0  0
 13 14  2  0  0  0
 14 15  1  0  0  0
 15 16  2  0  0  0
 14  1  1  0  0  0
  1  2  2  0  0  0
  1  3  1  0  0  0
  3  4  1  0  0  0
  4  5  1  0  0  0
  5  6  1  0  0  0
  6  7  1  0  0  0
  7  8  1  0  0  0
  6  9  1  0  0  0
  9 10  2  0  0  0
  9 19  1  0  0  0
 19 20  1  0  0  0
 20 21  1  0  0  0
 21 22  1  0  0  0
 22 23  1  0  0  0
 23 24  1  0  0  0
 23 25  1  0  0  0
 25 26  2  0  0  0
 26 27  1  0  0  0
 27 28  2  0  0  0
 28 29  1  0  0  0
 28 30  1  0  0  0
 30 31  2  0  0  0
 16 11  1  0  0  0
  8  3  1  0  0  0
 24 19  1  0  0  0
 31 25  1  0  0  0
M  END
> <minimizedAffinity>
15.86903

> <CNNscore>
0.5903967619

> <CNNaffinity>
7.1224470139

> <CNN_VS>
4.2050695419

> <CNNaffinity_variance>
1.2071897984

$$$$
[H]c1c([H])c(N2C([H])([H])C([H])([H])C([H])([H])[C@@]([H])(C(=O)N3C([H])([H])C([H])([H])N(C(=O)c4c([H])c([H])c(OC([H])([H])[H])c([H])c4[H])C([H])([H])C3([H])[H])C2([H])[H])c([H])c([H])c1Cl


 31 34  0  0  0  0  0  0  0  0999 V2000
   13.3659   27.2989   -4.7964 C   0  0  0  0  0  0  0  0  0  0  0  0
   13.6722   27.3597   -6.0904 O   0  0  0  0  0  0  0  0  0  0  0  0
   14.1578   26.4873   -4.0190 N   0  0  0  0  0  0  0  0  0  0  0  0
   15.2191   25.7295   -4.7362 C   0  0  0  0  0  0  0  0  0  0  0  0
   15.1324   24.2994   -4.3521 C   0  0  0  0  0  0  0  0  0  0  0  0
   14.3888   23.9719   -3.1796 N   0  0  0  0  0  0  0  0  0  0  0  0
   13.5376   24.8764   -2.4268 C   0  0  0  0  0  0  0  0  0  0  0  0
   14.1655   26.2712   -2.6279 C   0  0  0  0  0  0  0  0  0  0  0  0
   14.4984   22.6307   -2.6947 C   0  0  0  0  0  0  0  0  0  0  0  0
   15.2396   21.8287   -3.2956 O   0  0  0  0  0  0  0  0  0  0  0  0
    9.9163   29.7795   -4.0681 C   0  0  0  0  0  0  0  0  0  0  0  0
   11.1311   30.0894   -3.5240 C   0  0  0  0  0  0  0  0  0  0  0  0
   12.2617   29.2771   -3.7381 C   0  0  0  0  0  0  0  0  0  0  0  0
   12.2218   28.1392   -4.4962 C   0  0  0  0  0  0  0  0  0  0  0  0
   10.9608   27.8413   -5.0443 C   0  0  0  0  0  0  0  0  0  0  0  0
    9.8622   28.6371   -4.8310 C   0  0  0  0  0  0  0  0  0  0  0  0
    7.5623   30.0045   -3.4204 C   0  0  0  0  0  0  0  0  0  0  0  0
    8.7879   30.5614   -3.8734 O   0  0  0  0  0  0  0  0  0  0  0  0
   13.7338   22.2109   -1.4924 C   0  0  0  0  0  0  0  0  0  0  0  0
   12.2879   22.0667   -1.9216 C   0  0  0  0  0  0  0  0  0  0  0  0
   11.4774   21.8532   -0.6555 C   0  0  0  0  0  0  0  0  0  0  0  0
   11.4179   23.1962    0.0304 C   0  0  0  0  0  0  0  0  0  0  0  0
   12.7293   23.7322    0.1925 N   0  0  0  0  0  0  0  0  0  0  0  0
   13.9111   23.1462   -0.3400 C   0  0  0  0  0  0  0  0  0  0  0  0
   12.8583   24.9511    0.9483 C   0  0  0  0  0  0  0  0  0  0  0  0
   11.7362   25.7057    1.2815 C   0  0  0  0  0  0  0  0  0  0  0  0
   11.8318   26.8723    2.0067 C   0  0  0  0  0  0  0  0  0  0  0  0
   13.0538   27.3440    2.4357 C   0  0  0  0  0  0  0  0  0  0  0  0
   13.2059   28.8270    3.3612 Cl  0  0  0  0  0  0  0  0  0  0  0  0
   14.1743   26.6110    2.1156 C   0  0  0  0  0  0  0  0  0  0  0  0
   14.0740   25.4345    1.3838 C   0  0  0  0  0  0  0  0  0  0  0  0
 17 18  1  0  0  0
 18 11  1  0  0  0
 11 12  2  0  0  0
 12 13  1  0  0  0
 13 14  2  0  0  0
 14 15  1  0  0  0
 15 16  2  0  0  0
 14  1  1  0  0  0
  1  2  2  0  0  0
  1  3  1  0  0  0
  3  4  1  0  0  0
  4  5  1  0  0  0
  5  6  1  0  0  0
  6  7  1  0  0  0
  7  8  1  0  0  0
  6  9  1  0  0  0
  9 10  2  0  0  0
  9 19  1  0  0  0
 19 20  1  0  0  0
 20 21  1  0  0  0
 21 22  1  0  0  0
 22 23  1  0  0  0
 23 24  1  0  0  0
 23 25  1  0  0  0
 25 26  2  0  0  0
 26 27  1  0  0  0
 27 28  2  0  0  0
 28 29  1  0  0  0
 28 30  1  0  0  0
 30 31  2  0  0  0
 16 11  1  0  0  0
  8  3  1  0  0  0
 24 19  1  0  0  0
 31 25  1  0  0  0
M  END
> <minimizedAffinity>
27.22981

> <CNNscore>
0.5379052162

> <CNNaffinity>
6.9212503433

> <CNN_VS>
3.7229766846

> <CNNaffinity_variance>
1.3354644775

$$$$
[H]c1c([H])c(N2C([H])([H])C([H])([H])C([H])([H])[C@@]([H])(C(=O)N3C([H])([H])C([H])([H])N(C(=O)c4c([H])c([H])c(OC([H])([H])[H])c([H])c4[H])C([H])([H])C3([H])[H])C2([H])[H])c([H])c([H])c1Cl


 31 34  0  0  0  0  0  0  0  0999 V2000
   14.4484   22.3109   -2.5264 C   0  0  0  0  0  0  0  0  0  0  0  0
   15.0165   21.5273   -3.4402 O   0  0  0  0  0  0  0  0  0  0  0  0
   13.9360   21.6821   -1.4164 N   0  0  0  0  0  0  0  0  0  0  0  0
   14.0255   20.1966   -1.4076 C   0  0  0  0  0  0  0  0  0  0  0  0
   12.6898   19.6358   -1.0892 C   0  0  0  0  0  0  0  0  0  0  0  0
   11.7247   20.5112   -0.5085 N   0  0  0  0  0  0  0  0  0  0  0  0
   11.8477   21.9523   -0.3767 C   0  0  0  0  0  0  0  0  0  0  0  0
   13.3630   22.2102   -0.2438 C   0  0  0  0  0  0  0  0  0  0  0  0
   10.5284   19.9137   -0.0008 C   0  0  0  0  0  0  0  0  0  0  0  0
   10.3936   18.6764   -0.0696 O   0  0  0  0  0  0  0  0  0  0  0  0
   14.7829   26.4533   -3.6721 C   0  0  0  0  0  0  0  0  0  0  0  0
   13.6400   25.9746   -3.0955 C   0  0  0  0  0  0  0  0  0  0  0  0
   13.5103   24.6195   -2.7340 C   0  0  0  0  0  0  0  0  0  0  0  0
   14.5065   23.7030   -2.9313 C   0  0  0  0  0  0  0  0  0  0  0  0
   15.6718   24.2195   -3.5267 C   0  0  0  0  0  0  0  0  0  0  0  0
   15.7915   25.5418   -3.8775 C   0  0  0  0  0  0  0  0  0  0  0  0
   15.6737   28.1587   -5.1917 C   0  0  0  0  0  0  0  0  0  0  0  0
   14.9370   27.7820   -4.0373 O   0  0  0  0  0  0  0  0  0  0  0  0
    9.4681   20.7658    0.5960 C   0  0  0  0  0  0  0  0  0  0  0  0
    8.5285   21.1478   -0.5295 C   0  0  0  0  0  0  0  0  0  0  0  0
    7.5769   22.1890    0.0326 C   0  0  0  0  0  0  0  0  0  0  0  0
    8.3786   23.4620    0.1526 C   0  0  0  0  0  0  0  0  0  0  0  0
    9.5785   23.2287    0.8867 N   0  0  0  0  0  0  0  0  0  0  0  0
   10.0202   21.9490    1.3238 C   0  0  0  0  0  0  0  0  0  0  0  0
   10.3945   24.3721    1.2036 C   0  0  0  0  0  0  0  0  0  0  0  0
   11.5066   24.6912    0.4285 C   0  0  0  0  0  0  0  0  0  0  0  0
   12.3006   25.7811    0.7075 C   0  0  0  0  0  0  0  0  0  0  0  0
   12.0234   26.6073    1.7755 C   0  0  0  0  0  0  0  0  0  0  0  0
   13.0173   28.0028    2.1548 Cl  0  0  0  0  0  0  0  0  0  0  0  0
   10.9276   26.3072    2.5530 C   0  0  0  0  0  0  0  0  0  0  0  0
   10.1288   25.2069    2.2685 C   0  0  0  0  0  0  0  0  0  0  0  0
 17 18  1  0  0  0
 18 11  1  0  0  0
 11 12  2  0  0  0
 12 13  1  0  0  0
 13 14  2  0  0  0
 14 15  1  0  0  0
 15 16  2  0  0  0
 14  1  1  0  0  0
  1  2  2  0  0  0
  1  3  1  0  0  0
  3  4  1  0  0  0
  4  5  1  0  0  0
  5  6  1  0  0  0
  6  7  1  0  0  0
  7  8  1  0  0  0
  6  9  1  0  0  0
  9 10  2  0  0  0
  9 19  1  0  0  0
 19 20  1  0  0  0
 20 21  1  0  0  0
 21 22  1  0  0  0
 22 23  1  0  0  0
 23 24  1  0  0  0
 23 25  1  0  0  0
 25 26  2  0  0  0
 26 27  1  0  0  0
 27 28  2  0  0  0
 28 29  1  0  0  0
 28 30  1  0  0  0
 30 31  2  0  0  0
 16 11  1  0  0  0
  8  3  1  0  0  0
 24 19  1  0  0  0
 31 25  1  0  0  0
M  END
> <minimizedAffinity>
2.31221

> <CNNscore>
0.5342590809

> <CNNaffinity>
6.9686799049

> <CNN_VS>
3.7230806351

> <CNNaffinity_variance>
0.6399496794

$$$$
[H]c1c([H])c(N2C([H])([H])C([H])([H])C([H])([H])[C@@]([H])(C(=O)N3C([H])([H])C([H])([H])N(C(=O)c4c([H])c([H])c(OC([H])([H])[H])c([H])c4[H])C([H])([H])C3([H])[H])C2([H])[H])c([H])c([H])c1Cl


 31 34  0  0  0  0  0  0  0  0999 V2000
   15.0328   23.0549   -4.9418 C   0  0  0  0  0  0  0  0  0  0  0  0
   14.6746   22.7116   -6.1770 O   0  0  0  0  0  0  0  0  0  0  0  0
   14.8630   22.0985   -3.9689 N   0  0  0  0  0  0  0  0  0  0  0  0
   14.2402   20.8210   -4.4104 C   0  0  0  0  0  0  0  0  0  0  0  0
   13.1166   20.4932   -3.4993 C   0  0  0  0  0  0  0  0  0  0  0  0
   13.0645   21.1657   -2.2424 N   0  0  0  0  0  0  0  0  0  0  0  0
   13.8917   22.2894   -1.8393 C   0  0  0  0  0  0  0  0  0  0  0  0
   15.2171   22.1012   -2.6062 C   0  0  0  0  0  0  0  0  0  0  0  0
   12.1161   20.6833   -1.2866 C   0  0  0  0  0  0  0  0  0  0  0  0
   11.4044   19.7035   -1.5818 O   0  0  0  0  0  0  0  0  0  0  0  0
   16.4772   27.1087   -4.6886 C   0  0  0  0  0  0  0  0  0  0  0  0
   15.9272   26.6305   -5.8447 C   0  0  0  0  0  0  0  0  0  0  0  0
   15.4691   25.3025   -5.9470 C   0  0  0  0  0  0  0  0  0  0  0  0
   15.5409   24.4136   -4.9098 C   0  0  0  0  0  0  0  0  0  0  0  0
   16.1113   24.9290   -3.7316 C   0  0  0  0  0  0  0  0  0  0  0  0
   16.5568   26.2246   -3.6387 C   0  0  0  0  0  0  0  0  0  0  0  0
   18.1240   28.7177   -3.8456 C   0  0  0  0  0  0  0  0  0  0  0  0
   16.9358   28.4110   -4.5608 O   0  0  0  0  0  0  0  0  0  0  0  0
   11.9888   21.3497    0.0349 C   0  0  0  0  0  0  0  0  0  0  0  0
   11.1220   22.5746   -0.1744 C   0  0  0  0  0  0  0  0  0  0  0  0
   11.1722   23.3692    1.1185 C   0  0  0  0  0  0  0  0  0  0  0  0
   12.5366   24.0131    1.1570 C   0  0  0  0  0  0  0  0  0  0  0  0
   13.5559   23.0342    0.9672 N   0  0  0  0  0  0  0  0  0  0  0  0
   13.3132   21.6688    0.6502 C   0  0  0  0  0  0  0  0  0  0  0  0
   14.9228   23.4649    1.1073 C   0  0  0  0  0  0  0  0  0  0  0  0
   15.9272   22.5560    1.4306 C   0  0  0  0  0  0  0  0  0  0  0  0
   17.2422   22.9412    1.5662 C   0  0  0  0  0  0  0  0  0  0  0  0
   17.6201   24.2544    1.3858 C   0  0  0  0  0  0  0  0  0  0  0  0
   19.2879   24.7740    1.5522 Cl  0  0  0  0  0  0  0  0  0  0  0  0
   16.6404   25.1671    1.0657 C   0  0  0  0  0  0  0  0  0  0  0  0
   15.3148   24.7749    0.9296 C   0  0  0  0  0  0  0  0  0  0  0  0
 17 18  1  0  0  0
 18 11  1  0  0  0
 11 12  2  0  0  0
 12 13  1  0  0  0
 13 14  2  0  0  0
 14 15  1  0  0  0
 15 16  2  0  0  0
 14  1  1  0  0  0
  1  2  2  0  0  0
  1  3  1  0  0  0
  3  4  1  0  0  0
  4  5  1  0  0  0
  5  6  1  0  0  0
  6  7  1  0  0  0
  7  8  1  0  0  0
  6  9  1  0  0  0
  9 10  2  0  0  0
  9 19  1  0  0  0
 19 20  1  0  0  0
 20 21  1  0  0  0
 21 22  1  0  0  0
 22 23  1  0  0  0
 23 24  1  0  0  0
 23 25  1  0  0  0
 25 26  2  0  0  0
 26 27  1  0  0  0
 27 28  2  0  0  0
 28 29  1  0  0  0
 28 30  1  0  0  0
 30 31  2  0  0  0
 16 11  1  0  0  0
  8  3  1  0  0  0
 24 19  1  0  0  0
 31 25  1  0  0  0
M  END
> <minimizedAffinity>
12.72148

> <CNNscore>
0.5297977924

> <CNNaffinity>
7.5391511917

> <CNN_VS>
3.9942257404

> <CNNaffinity_variance>
1.5095651150

$$$$
[H]c1c([H])c(N2C([H])([H])C([H])([H])C([H])([H])[C@@]([H])(C(=O)N3C([H])([H])C([H])([H])N(C(=O)c4c([H])c([H])c(OC([H])([H])[H])c([H])c4[H])C([H])([H])C3([H])[H])C2([H])[H])c([H])c([H])c1Cl


 31 34  0  0  0  0  0  0  0  0999 V2000
   17.2305   24.4697   -0.8628 C   0  0  0  0  0  0  0  0  0  0  0  0
   18.4594   23.9589   -0.8958 O   0  0  0  0  0  0  0  0  0  0  0  0
   16.4441   24.0999    0.2025 N   0  0  0  0  0  0  0  0  0  0  0  0
   17.0462   23.1239    1.1511 C   0  0  0  0  0  0  0  0  0  0  0  0
   16.0918   22.0088    1.3648 C   0  0  0  0  0  0  0  0  0  0  0  0
   14.7324   22.2181    0.9864 N   0  0  0  0  0  0  0  0  0  0  0  0
   14.2203   23.3454    0.2273 C   0  0  0  0  0  0  0  0  0  0  0  0
   15.1553   24.5201    0.5826 C   0  0  0  0  0  0  0  0  0  0  0  0
   13.7838   21.2310    1.4006 C   0  0  0  0  0  0  0  0  0  0  0  0
   14.1765   20.2605    2.0771 O   0  0  0  0  0  0  0  0  0  0  0  0
   16.4813   27.1569   -4.1492 C   0  0  0  0  0  0  0  0  0  0  0  0
   16.2187   25.8205   -4.2616 C   0  0  0  0  0  0  0  0  0  0  0  0
   16.4769   24.9286   -3.2025 C   0  0  0  0  0  0  0  0  0  0  0  0
   16.9992   25.3340   -2.0050 C   0  0  0  0  0  0  0  0  0  0  0  0
   17.2616   26.7132   -1.9143 C   0  0  0  0  0  0  0  0  0  0  0  0
   17.0083   27.5773   -2.9511 C   0  0  0  0  0  0  0  0  0  0  0  0
   15.5337   27.6767   -6.3500 C   0  0  0  0  0  0  0  0  0  0  0  0
   16.2367   28.0565   -5.1757 O   0  0  0  0  0  0  0  0  0  0  0  0
   12.3541   21.3702    1.0224 C   0  0  0  0  0  0  0  0  0  0  0  0
   12.0281   20.2071    0.1077 C   0  0  0  0  0  0  0  0  0  0  0  0
   10.6402   20.4680   -0.4500 C   0  0  0  0  0  0  0  0  0  0  0  0
   10.8027   21.5694   -1.4690 C   0  0  0  0  0  0  0  0  0  0  0  0
   11.4818   22.6840   -0.8948 N   0  0  0  0  0  0  0  0  0  0  0  0
   12.0456   22.6990    0.4112 C   0  0  0  0  0  0  0  0  0  0  0  0
   11.6016   23.8728   -1.6986 C   0  0  0  0  0  0  0  0  0  0  0  0
   12.8519   24.4087   -1.9971 C   0  0  0  0  0  0  0  0  0  0  0  0
   12.9940   25.5416   -2.7668 C   0  0  0  0  0  0  0  0  0  0  0  0
   11.8937   26.1965   -3.2770 C   0  0  0  0  0  0  0  0  0  0  0  0
   12.0445   27.6419   -4.2605 Cl  0  0  0  0  0  0  0  0  0  0  0  0
   10.6494   25.6810   -2.9921 C   0  0  0  0  0  0  0  0  0  0  0  0
   10.5098   24.5378   -2.2154 C   0  0  0  0  0  0  0  0  0  0  0  0
 17 18  1  0  0  0
 18 11  1  0  0  0
 11 12  2  0  0  0
 12 13  1  0  0  0
 13 14  2  0  0  0
 14 15  1  0  0  0
 15 16  2  0  0  0
 14  1  1  0  0  0
  1  2  2  0  0  0
  1  3  1  0  0  0
  3  4  1  0  0  0
  4  5  1  0  0  0
  5  6  1  0  0  0
  6  7  1  0  0  0
  7  8  1  0  0  0
  6  9  1  0  0  0
  9 10  2  0  0  0
  9 19  1  0  0  0
 19 20  1  0  0  0
 20 21  1  0  0  0
 21 22  1  0  0  0
 22 23  1  0  0  0
 23 24  1  0  0  0
 23 25  1  0  0  0
 25 26  2  0  0  0
 26 27  1  0  0  0
 27 28  2  0  0  0
 28 29  1  0  0  0
 28 30  1  0  0  0
 30 31  2  0  0  0
 16 11  1  0  0  0
  8  3  1  0  0  0
 24 19  1  0  0  0
 31 25  1  0  0  0
M  END
> <minimizedAffinity>
6.58956

> <CNNscore>
0.5236809850

> <CNNaffinity>
7.2775373459

> <CNN_VS>
3.8111078739

> <CNNaffinity_variance>
0.6653689742

$$$$
[H]c1c([H])c(N2C([H])([H])C([H])([H])C([H])([H])[C@@]([H])(C(=O)N3C([H])([H])C([H])([H])N(C(=O)c4c([H])c([H])c(OC([H])([H])[H])c([H])c4[H])C([H])([H])C3([H])[H])C2([H])[H])c([H])c([H])c1Cl


 31 34  0  0  0  0  0  0  0  0999 V2000
   13.9008   24.0816   -0.3592 C   0  0  0  0  0  0  0  0  0  0  0  0
   14.2178   22.9410    0.2494 O   0  0  0  0  0  0  0  0  0  0  0  0
   13.6974   24.0130   -1.7171 N   0  0  0  0  0  0  0  0  0  0  0  0
   13.9199   22.6819   -2.3445 C   0  0  0  0  0  0  0  0  0  0  0  0
   14.8207   22.8445   -3.5117 C   0  0  0  0  0  0  0  0  0  0  0  0
   14.9936   24.1592   -4.0375 N   0  0  0  0  0  0  0  0  0  0  0  0
   14.5320   25.3924   -3.4246 C   0  0  0  0  0  0  0  0  0  0  0  0
   13.2696   24.9932   -2.6327 C   0  0  0  0  0  0  0  0  0  0  0  0
   15.6770   24.2735   -5.2888 C   0  0  0  0  0  0  0  0  0  0  0  0
   16.0666   23.2376   -5.8623 O   0  0  0  0  0  0  0  0  0  0  0  0
   13.6178   27.4160    2.3584 C   0  0  0  0  0  0  0  0  0  0  0  0
   14.8063   26.7710    2.1602 C   0  0  0  0  0  0  0  0  0  0  0  0
   14.9085   25.6682    1.2900 C   0  0  0  0  0  0  0  0  0  0  0  0
   13.8402   25.1755    0.5921 C   0  0  0  0  0  0  0  0  0  0  0  0
   12.6286   25.8553    0.8135 C   0  0  0  0  0  0  0  0  0  0  0  0
   12.5355   26.9295    1.6641 C   0  0  0  0  0  0  0  0  0  0  0  0
   12.9182   28.3764    4.5031 C   0  0  0  0  0  0  0  0  0  0  0  0
   13.4894   28.5036    3.2089 O   0  0  0  0  0  0  0  0  0  0  0  0
   15.9149   25.6128   -5.8854 C   0  0  0  0  0  0  0  0  0  0  0  0
   17.0781   26.2267   -5.1332 C   0  0  0  0  0  0  0  0  0  0  0  0
   17.1792   27.6707   -5.5916 C   0  0  0  0  0  0  0  0  0  0  0  0
   16.0283   28.3953   -4.9375 C   0  0  0  0  0  0  0  0  0  0  0  0
   14.7992   27.7234   -5.2046 N   0  0  0  0  0  0  0  0  0  0  0  0
   14.6931   26.4739   -5.8764 C   0  0  0  0  0  0  0  0  0  0  0  0
   13.5861   28.3594   -4.7605 C   0  0  0  0  0  0  0  0  0  0  0  0
   12.3665   27.6897   -4.8208 C   0  0  0  0  0  0  0  0  0  0  0  0
   11.1931   28.2736   -4.3987 C   0  0  0  0  0  0  0  0  0  0  0  0
   11.1790   29.5566   -3.8950 C   0  0  0  0  0  0  0  0  0  0  0  0
    9.6991   30.3259   -3.3498 Cl  0  0  0  0  0  0  0  0  0  0  0  0
   12.3755   30.2340   -3.8278 C   0  0  0  0  0  0  0  0  0  0  0  0
   13.5574   29.6418   -4.2545 C   0  0  0  0  0  0  0  0  0  0  0  0
 17 18  1  0  0  0
 18 11  1  0  0  0
 11 12  2  0  0  0
 12 13  1  0  0  0
 13 14  2  0  0  0
 14 15  1  0  0  0
 15 16  2  0  0  0
 14  1  1  0  0  0
  1  2  2  0  0  0
  1  3  1  0  0  0
  3  4  1  0  0  0
  4  5  1  0  0  0
  5  6  1  0  0  0
  6  7  1  0  0  0
  7  8  1  0  0  0
  6  9  1  0  0  0
  9 10  2  0  0  0
  9 19  1  0  0  0
 19 20  1  0  0  0
 20 21  1  0  0  0
 21 22  1  0  0  0
 22 23  1  0  0  0
 23 24  1  0  0  0
 23 25  1  0  0  0
 25 26  2  0  0  0
 26 27  1  0  0  0
 27 28  2  0  0  0
 28 29  1  0  0  0
 28 30  1  0  0  0
 30 31  2  0  0  0
 16 11  1  0  0  0
  8  3  1  0  0  0
 24 19  1  0  0  0
 31 25  1  0  0  0
M  END
> <minimizedAffinity>
34.74604

> <CNNscore>
0.5055120587

> <CNNaffinity>
7.0064630508

> <CNN_VS>
3.5418515205

> <CNNaffinity_variance>
1.8729317188

$$$$
[H]c1c([H])c(N2C([H])([H])C([H])([H])C([H])([H])[C@@]([H])(C(=O)N3C([H])([H])C([H])([H])N(C(=O)c4c([H])c([H])c(OC([H])([H])[H])c([H])c4[H])C([H])([H])C3([H])[H])C2([H])[H])c([H])c([H])c1Cl


 31 34  0  0  0  0  0  0  0  0999 V2000
   14.8533   22.2598   -3.2750 C   0  0  0  0  0  0  0  0  0  0  0  0
   14.9253   21.5780   -4.4161 O   0  0  0  0  0  0  0  0  0  0  0  0
   14.4043   21.5658   -2.1764 N   0  0  0  0  0  0  0  0  0  0  0  0
   13.9953   20.1553   -2.4172 C   0  0  0  0  0  0  0  0  0  0  0  0
   12.6466   19.9398   -1.8387 C   0  0  0  0  0  0  0  0  0  0  0  0
   12.1703   20.8961   -0.8935 N   0  0  0  0  0  0  0  0  0  0  0  0
   12.7894   22.1727   -0.5831 C   0  0  0  0  0  0  0  0  0  0  0  0
   14.2967   21.9519   -0.8268 C   0  0  0  0  0  0  0  0  0  0  0  0
   10.9771   20.5635   -0.1782 C   0  0  0  0  0  0  0  0  0  0  0  0
   10.4280   19.4656   -0.3946 O   0  0  0  0  0  0  0  0  0  0  0  0
   16.1816   26.2964   -3.9995 C   0  0  0  0  0  0  0  0  0  0  0  0
   16.4263   25.6809   -2.8041 C   0  0  0  0  0  0  0  0  0  0  0  0
   15.9811   24.3695   -2.5472 C   0  0  0  0  0  0  0  0  0  0  0  0
   15.2845   23.6321   -3.4649 C   0  0  0  0  0  0  0  0  0  0  0  0
   15.0446   24.2874   -4.6865 C   0  0  0  0  0  0  0  0  0  0  0  0
   15.4807   25.5665   -4.9302 C   0  0  0  0  0  0  0  0  0  0  0  0
   16.1222   28.3071   -5.4013 C   0  0  0  0  0  0  0  0  0  0  0  0
   16.6084   27.5858   -4.2785 O   0  0  0  0  0  0  0  0  0  0  0  0
   10.4089   21.5215    0.8045 C   0  0  0  0  0  0  0  0  0  0  0  0
    9.2710   22.2396    0.1081 C   0  0  0  0  0  0  0  0  0  0  0  0
    8.8358   23.3636    1.0316 C   0  0  0  0  0  0  0  0  0  0  0  0
    9.9117   24.4178    0.9377 C   0  0  0  0  0  0  0  0  0  0  0  0
   11.1940   23.8455    1.1859 N   0  0  0  0  0  0  0  0  0  0  0  0
   11.4357   22.4545    1.3609 C   0  0  0  0  0  0  0  0  0  0  0  0
   12.3169   24.7436    1.2631 C   0  0  0  0  0  0  0  0  0  0  0  0
   12.1279   26.1025    1.5022 C   0  0  0  0  0  0  0  0  0  0  0  0
   13.1846   26.9815    1.5848 C   0  0  0  0  0  0  0  0  0  0  0  0
   14.4838   26.5470    1.4325 C   0  0  0  0  0  0  0  0  0  0  0  0
   15.8496   27.6440    1.5328 Cl  0  0  0  0  0  0  0  0  0  0  0  0
   14.6898   25.2066    1.1956 C   0  0  0  0  0  0  0  0  0  0  0  0
   13.6214   24.3227    1.1129 C   0  0  0  0  0  0  0  0  0  0  0  0
 17 18  1  0  0  0
 18 11  1  0  0  0
 11 12  2  0  0  0
 12 13  1  0  0  0
 13 14  2  0  0  0
 14 15  1  0  0  0
 15 16  2  0  0  0
 14  1  1  0  0  0
  1  2  2  0  0  0
  1  3  1  0  0  0
  3  4  1  0  0  0
  4  5  1  0  0  0
  5  6  1  0  0  0
  6  7  1  0  0  0
  7  8  1  0  0  0
  6  9  1  0  0  0
  9 10  2  0  0  0
  9 19  1  0  0  0
 19 20  1  0  0  0
 20 21  1  0  0  0
 21 22  1  0  0  0
 22 23  1  0  0  0
 23 24  1  0  0  0
 23 25  1  0  0  0
 25 26  2  0  0  0
 26 27  1  0  0  0
 27 28  2  0  0  0
 28 29  1  0  0  0
 28 30  1  0  0  0
 30 31  2  0  0  0
 16 11  1  0  0  0
  8  3  1  0  0  0
 24 19  1  0  0  0
 31 25  1  0  0  0
M  END
> <minimizedAffinity>
4.57795

> <CNNscore>
0.4843744636

> <CNNaffinity>
7.0426406860

> <CNN_VS>
3.4112753868

> <CNNaffinity_variance>
0.4655340612

$$$$
[H]c1c([H])c(N2C([H])([H])C([H])([H])C([H])([H])[C@@]([H])(C(=O)N3C([H])([H])C([H])([H])N(C(=O)c4c([H])c([H])c(OC([H])([H])[H])c([H])c4[H])C([H])([H])C3([H])[H])C2([H])[H])c([H])c([H])c1Cl


 31 34  0  0  0  0  0  0  0  0999 V2000
   15.2153   23.1366   -4.0815 C   0  0  0  0  0  0  0  0  0  0  0  0
   14.8254   23.0882   -5.3533 O   0  0  0  0  0  0  0  0  0  0  0  0
   15.0773   21.9770   -3.3560 N   0  0  0  0  0  0  0  0  0  0  0  0
   14.4495   20.8313   -4.0690 C   0  0  0  0  0  0  0  0  0  0  0  0
   13.3528   20.2862   -3.2321 C   0  0  0  0  0  0  0  0  0  0  0  0
   13.3315   20.6449   -1.8516 N   0  0  0  0  0  0  0  0  0  0  0  0
   14.1634   21.6523   -1.2172 C   0  0  0  0  0  0  0  0  0  0  0  0
   15.4683   21.6644   -2.0401 C   0  0  0  0  0  0  0  0  0  0  0  0
   12.4121   19.9410   -1.0119 C   0  0  0  0  0  0  0  0  0  0  0  0
   11.6978   19.0494   -1.5106 O   0  0  0  0  0  0  0  0  0  0  0  0
   16.6903   27.0154   -2.9141 C   0  0  0  0  0  0  0  0  0  0  0  0
   15.8192   26.8810   -3.9586 C   0  0  0  0  0  0  0  0  0  0  0  0
   15.3447   25.6179   -4.3627 C   0  0  0  0  0  0  0  0  0  0  0  0
   15.7169   24.4557   -3.7446 C   0  0  0  0  0  0  0  0  0  0  0  0
   16.6142   24.6202   -2.6736 C   0  0  0  0  0  0  0  0  0  0  0  0
   17.0738   25.8546   -2.2852 C   0  0  0  0  0  0  0  0  0  0  0  0
   17.9480   29.0744   -3.3505 C   0  0  0  0  0  0  0  0  0  0  0  0
   17.1727   28.2462   -2.4958 O   0  0  0  0  0  0  0  0  0  0  0  0
   12.3173   20.2777    0.4317 C   0  0  0  0  0  0  0  0  0  0  0  0
   10.8691   20.0835    0.8323 C   0  0  0  0  0  0  0  0  0  0  0  0
   10.7297   20.6337    2.2406 C   0  0  0  0  0  0  0  0  0  0  0  0
   10.7683   22.1362    2.1049 C   0  0  0  0  0  0  0  0  0  0  0  0
   11.9215   22.5414    1.3705 N   0  0  0  0  0  0  0  0  0  0  0  0
   12.8306   21.6474    0.7397 C   0  0  0  0  0  0  0  0  0  0  0  0
   12.1767   23.9546    1.2643 C   0  0  0  0  0  0  0  0  0  0  0  0
   13.3789   24.4248    0.7415 C   0  0  0  0  0  0  0  0  0  0  0  0
   13.6459   25.7706    0.6252 C   0  0  0  0  0  0  0  0  0  0  0  0
   12.7250   26.7148    1.0255 C   0  0  0  0  0  0  0  0  0  0  0  0
   13.0380   28.4360    0.8891 Cl  0  0  0  0  0  0  0  0  0  0  0  0
   11.5307   26.2684    1.5447 C   0  0  0  0  0  0  0  0  0  0  0  0
   11.2647   24.9100    1.6606 C   0  0  0  0  0  0  0  0  0  0  0  0
 17 18  1  0  0  0
 18 11  1  0  0  0
 11 12  2  0  0  0
 12 13  1  0  0  0
 13 14  2  0  0  0
 14 15  1  0  0  0
 15 16  2  0  0  0
 14  1  1  0  0  0
  1  2  2  0  0  0
  1  3  1  0  0  0
  3  4  1  0  0  0
  4  5  1  0  0  0
  5  6  1  0  0  0
  6  7  1  0  0  0
  7  8  1  0  0  0
  6  9  1  0  0  0
  9 10  2  0  0  0
  9 19  1  0  0  0
 19 20  1  0  0  0
 20 21  1  0  0  0
 21 22  1  0  0  0
 22 23  1  0  0  0
 23 24  1  0  0  0
 23 25  1  0  0  0
 25 26  2  0  0  0
 26 27  1  0  0  0
 27 28  2  0  0  0
 28 29  1  0  0  0
 28 30  1  0  0  0
 30 31  2  0  0  0
 16 11  1  0  0  0
  8  3  1  0  0  0
 24 19  1  0  0  0
 31 25  1  0  0  0
M  END
> <minimizedAffinity>
16.87780

> <CNNscore>
0.4771101773

> <CNNaffinity>
7.0596609116

> <CNN_VS>
3.3682360649

> <CNNaffinity_variance>
1.7436542511

$$$$
[H]c1c([H])c(N2C([H])([H])C([H])([H])C([H])([H])[C@@]([H])(C(=O)N3C([H])([H])C([H])([H])N(C(=O)c4c([H])c([H])c(OC([H])([H])[H])c([H])c4[H])C([H])([H])C3([H])[H])C2([H])[H])c([H])c([H])c1Cl


 31 34  0  0  0  0  0  0  0  0999 V2000
   14.8753   24.6286   -4.2662 C   0  0  0  0  0  0  0  0  0  0  0  0
   15.2304   24.4226   -5.5325 O   0  0  0  0  0  0  0  0  0  0  0  0
   15.1096   23.5950   -3.3906 N   0  0  0  0  0  0  0  0  0  0  0  0
   15.6731   22.3516   -3.9835 C   0  0  0  0  0  0  0  0  0  0  0  0
   14.8562   21.1949   -3.5424 C   0  0  0  0  0  0  0  0  0  0  0  0
   13.9952   21.3809   -2.4203 N   0  0  0  0  0  0  0  0  0  0  0  0
   13.6851   22.6479   -1.7816 C   0  0  0  0  0  0  0  0  0  0  0  0
   14.9417   23.5173   -1.9949 C   0  0  0  0  0  0  0  0  0  0  0  0
   13.3876   20.2102   -1.8669 C   0  0  0  0  0  0  0  0  0  0  0  0
   13.6477   19.0989   -2.3681 O   0  0  0  0  0  0  0  0  0  0  0  0
   13.0170   28.4911   -3.8070 C   0  0  0  0  0  0  0  0  0  0  0  0
   14.2288   28.3644   -4.4262 C   0  0  0  0  0  0  0  0  0  0  0  0
   14.8560   27.1110   -4.5657 C   0  0  0  0  0  0  0  0  0  0  0  0
   14.3018   25.9508   -4.0989 C   0  0  0  0  0  0  0  0  0  0  0  0
   13.0556   26.1074   -3.4651 C   0  0  0  0  0  0  0  0  0  0  0  0
   12.4498   27.3325   -3.3316 C   0  0  0  0  0  0  0  0  0  0  0  0
   11.9651   30.4826   -4.7760 C   0  0  0  0  0  0  0  0  0  0  0  0
   12.3778   29.7123   -3.6563 O   0  0  0  0  0  0  0  0  0  0  0  0
   12.4603   20.3297   -0.7127 C   0  0  0  0  0  0  0  0  0  0  0  0
   11.0539   20.2710   -1.2733 C   0  0  0  0  0  0  0  0  0  0  0  0
   10.1151   20.6109   -0.1294 C   0  0  0  0  0  0  0  0  0  0  0  0
   10.2509   22.0976    0.0912 C   0  0  0  0  0  0  0  0  0  0  0  0
   11.6212   22.4538    0.2603 N   0  0  0  0  0  0  0  0  0  0  0  0
   12.7128   21.5547    0.1059 C   0  0  0  0  0  0  0  0  0  0  0  0
   11.9125   23.8197    0.6113 C   0  0  0  0  0  0  0  0  0  0  0  0
   10.9601   24.6107    1.2490 C   0  0  0  0  0  0  0  0  0  0  0  0
   11.2148   25.9178    1.5990 C   0  0  0  0  0  0  0  0  0  0  0  0
   12.4344   26.5008    1.3294 C   0  0  0  0  0  0  0  0  0  0  0  0
   12.7871   28.1639    1.7638 Cl  0  0  0  0  0  0  0  0  0  0  0  0
   13.3884   25.7337    0.6995 C   0  0  0  0  0  0  0  0  0  0  0  0
   13.1279   24.4153    0.3479 C   0  0  0  0  0  0  0  0  0  0  0  0
 17 18  1  0  0  0
 18 11  1  0  0  0
 11 12  2  0  0  0
 12 13  1  0  0  0
 13 14  2  0  0  0
 14 15  1  0  0  0
 15 16  2  0  0  0
 14  1  1  0  0  0
  1  2  2  0  0  0
  1  3  1  0  0  0
  3  4  1  0  0  0
  4  5  1  0  0  0
  5  6  1  0  0  0
  6  7  1  0  0  0
  7  8  1  0  0  0
  6  9  1  0  0  0
  9 10  2  0  0  0
  9 19  1  0  0  0
 19 20  1  0  0  0
 20 21  1  0  0  0
 21 22  1  0  0  0
 22 23  1  0  0  0
 23 24  1  0  0  0
 23 25  1  0  0  0
 25 26  2  0  0  0
 26 27  1  0  0  0
 27 28  2  0  0  0
 28 29  1  0  0  0
 28 30  1  0  0  0
 30 31  2  0  0  0
 16 11  1  0  0  0
  8  3  1  0  0  0
 24 19  1  0  0  0
 31 25  1  0  0  0
M  END
> <minimizedAffinity>
15.93142

> <CNNscore>
0.4639813602

> <CNNaffinity>
7.0668144226

> <CNN_VS>
3.2788701057

> <CNNaffinity_variance>
1.2611105442

$$$$
[H]OC(=O)C([H])([H])[C@@]([H])(C(=O)O[H])N([H])C(=O)[C@@]([H])(N([H])C(=O)[C@@]([H])(N([H])C(=O)[C@@]1([H])N(C(=O)[C@@]([H])(N([H])C(=O)[C@@]([H])(N([H])C(=O)[C@@]([H])(N([H])C(=O)C([H])([H])[H])C([H])([H])C([H])([H])C([H])([H])N=C(N([H])[H])N([H])[H])C([H])([H])C([H])([H])C([H])([H])N=C(N([H])[H])N([H])[H])C([H])([H])C([H])([H])C([H])([H])C([H])([H])N([H])[H])C([H])([H])C([H])([H])C1([H])[H])C([H])([H])C(=O)O[H])C([H])(C([H])([H])[H])C([H])([H])[H]


 84 84  0  0  0  0  0  0  0  0999 V2000
   11.6932   24.3664    0.2365 C   0  0  0  0  0  0  0  0  0  0  0  0
   10.9660   20.8334    0.3323 C   0  0  0  0  0  0  0  0  0  0  0  0
   10.6948   20.6364    1.7867 C   0  0  0  0  0  0  0  0  0  0  0  0
   12.1691   20.5223    2.2897 C   0  0  0  0  0  0  0  0  0  0  0  0
   13.0422   20.8242    1.0795 C   0  0  0  0  0  0  0  0  0  0  0  0
   12.0211   21.7873    0.3906 N   0  0  0  0  0  0  0  0  0  0  0  0
   12.4174   23.0849    0.2772 C   0  0  0  0  0  0  0  0  0  0  0  0
   13.7165   23.2633    0.1987 O   0  0  0  0  0  0  0  0  0  0  0  0
    8.6395   20.2831   -0.3943 N   0  0  0  0  0  0  0  0  0  0  0  0
    9.9331   20.8364   -0.6335 C   0  0  0  0  0  0  0  0  0  0  0  0
   10.0972   21.3433   -1.7975 O   0  0  0  0  0  0  0  0  0  0  0  0
    8.4604   19.8558    0.5308 H   0  0  0  0  0  0  0  0  0  0  0  0
    7.5901   20.2985   -1.3770 C   0  0  0  0  0  0  0  0  0  0  0  0
    5.0805   20.6216   -1.3136 N   0  0  0  0  0  0  0  0  0  0  0  0
    6.3260   20.9625   -0.8507 C   0  0  0  0  0  0  0  0  0  0  0  0
    6.5408   21.8254    0.0192 O   0  0  0  0  0  0  0  0  0  0  0  0
    5.0822   19.8576   -2.0973 H   0  0  0  0  0  0  0  0  0  0  0  0
    3.7409   21.0499   -0.9995 C   0  0  0  0  0  0  0  0  0  0  0  0
    3.1674   20.2561    0.0628 C   0  0  0  0  0  0  0  0  0  0  0  0
    1.9920   20.6381    0.4682 O   0  0  0  0  0  0  0  0  0  0  0  0
    3.6685   19.1243    0.7379 N   0  0  0  0  0  0  0  0  0  0  0  0
    4.5685   18.7134    0.4843 H   0  0  0  0  0  0  0  0  0  0  0  0
    2.9082   18.4843    1.7976 C   0  0  0  0  0  0  0  0  0  0  0  0
    3.7365   18.2594    3.0118 C   0  0  0  0  0  0  0  0  0  0  0  0
    4.9806   17.6764    2.8029 O   0  0  0  0  0  0  0  0  0  0  0  0
    3.3992   18.5497    4.1672 O   0  0  0  0  0  0  0  0  0  0  0  0
    5.1782   16.9861    2.0890 H   0  0  0  0  0  0  0  0  0  0  0  0
    2.3590   17.1600    1.3553 C   0  0  0  0  0  0  0  0  0  0  0  0
    3.0440   16.5475    0.2093 C   0  0  0  0  0  0  0  0  0  0  0  0
    2.3601   16.1822   -0.9593 O   0  0  0  0  0  0  0  0  0  0  0  0
    4.2765   16.3081    0.1884 O   0  0  0  0  0  0  0  0  0  0  0  0
    1.7893   16.8273   -1.4782 H   0  0  0  0  0  0  0  0  0  0  0  0
    2.6822   19.9406   -2.9983 C   0  0  0  0  0  0  0  0  0  0  0  0
    2.8535   21.2209   -2.1914 C   0  0  0  0  0  0  0  0  0  0  0  0
    3.3399   22.2601   -3.1509 C   0  0  0  0  0  0  0  0  0  0  0  0
    7.1802   18.9160   -1.8170 C   0  0  0  0  0  0  0  0  0  0  0  0
    7.1833   17.9134   -0.7311 C   0  0  0  0  0  0  0  0  0  0  0  0
    6.4359   18.1939    0.3994 O   0  0  0  0  0  0  0  0  0  0  0  0
    7.8106   16.8286   -0.7545 O   0  0  0  0  0  0  0  0  0  0  0  0
    5.8887   17.4935    0.8745 H   0  0  0  0  0  0  0  0  0  0  0  0
   11.0653   24.7034    1.5053 N   0  0  0  0  0  0  0  0  0  0  0  0
    9.7315   24.3924    1.8510 C   0  0  0  0  0  0  0  0  0  0  0  0
    9.0380   23.7346    1.0303 O   0  0  0  0  0  0  0  0  0  0  0  0
   11.6527   25.1995    2.2047 H   0  0  0  0  0  0  0  0  0  0  0  0
    9.0827   24.8007    3.1232 C   0  0  0  0  0  0  0  0  0  0  0  0
    7.8822   25.5658    2.8822 N   0  0  0  0  0  0  0  0  0  0  0  0
    7.7135   26.8969    3.3214 C   0  0  0  0  0  0  0  0  0  0  0  0
    8.6537   27.4441    3.9359 O   0  0  0  0  0  0  0  0  0  0  0  0
    7.1073   25.1117    2.3647 H   0  0  0  0  0  0  0  0  0  0  0  0
    6.4106   27.6368    3.0431 C   0  0  0  0  0  0  0  0  0  0  0  0
    5.6935   27.8325    4.2327 N   0  0  0  0  0  0  0  0  0  0  0  0
    4.9682   26.8008    4.9359 C   0  0  0  0  0  0  0  0  0  0  0  0
    4.2260   27.0480    6.1793 C   0  0  0  0  0  0  0  0  0  0  0  0
    5.0149   25.6619    4.4045 O   0  0  0  0  0  0  0  0  0  0  0  0
    5.6595   28.7813    4.6872 H   0  0  0  0  0  0  0  0  0  0  0  0
    6.6310   28.7357    2.0888 C   0  0  0  0  0  0  0  0  0  0  0  0
    5.6901   28.8109    0.9507 C   0  0  0  0  0  0  0  0  0  0  0  0
    5.9614   29.7237   -0.1778 C   0  0  0  0  0  0  0  0  0  0  0  0
    5.6532   29.0547   -1.4681 N   0  0  0  0  0  0  0  0  0  0  0  0
    6.3015   29.3954   -2.5107 C   0  0  0  0  0  0  0  0  0  0  0  0
    7.2990   30.3912   -2.4522 N   0  0  0  0  0  0  0  0  0  0  0  0
    6.0183   28.7671   -3.7447 N   0  0  0  0  0  0  0  0  0  0  0  0
    7.0945   31.3958   -2.5362 H   0  0  0  0  0  0  0  0  0  0  0  0
    8.2942   30.0988   -2.3173 H   0  0  0  0  0  0  0  0  0  0  0  0
    6.0563   27.7379   -3.8486 H   0  0  0  0  0  0  0  0  0  0  0  0
    5.7638   29.3270   -4.5813 H   0  0  0  0  0  0  0  0  0  0  0  0
    8.8214   23.7003    4.0674 C   0  0  0  0  0  0  0  0  0  0  0  0
    8.9576   24.1233    5.5053 C   0  0  0  0  0  0  0  0  0  0  0  0
    8.9696   22.8584    6.3735 C   0  0  0  0  0  0  0  0  0  0  0  0
    9.6062   21.7666    5.7102 N   0  0  0  0  0  0  0  0  0  0  0  0
   10.1377   20.7360    6.2487 C   0  0  0  0  0  0  0  0  0  0  0  0
   10.7205   19.7646    5.3940 N   0  0  0  0  0  0  0  0  0  0  0  0
   10.1746   20.5144    7.6453 N   0  0  0  0  0  0  0  0  0  0  0  0
   10.7803   18.7569    5.6399 H   0  0  0  0  0  0  0  0  0  0  0  0
   11.1253   20.0292    4.4553 H   0  0  0  0  0  0  0  0  0  0  0  0
    9.3269   20.2099    8.1846 H   0  0  0  0  0  0  0  0  0  0  0  0
   11.1053   20.6713    8.1152 H   0  0  0  0  0  0  0  0  0  0  0  0
   12.3344   25.4476   -0.4921 C   0  0  0  0  0  0  0  0  0  0  0  0
   12.2968   25.5022   -1.9744 C   0  0  0  0  0  0  0  0  0  0  0  0
   13.4947   25.1323   -2.7533 C   0  0  0  0  0  0  0  0  0  0  0  0
   14.0718   26.3746   -3.4823 C   0  0  0  0  0  0  0  0  0  0  0  0
   12.9849   27.0075   -4.1977 N   0  0  0  0  0  0  0  0  0  0  0  0
   12.3235   26.2792   -4.5375 H   0  0  0  0  0  0  0  0  0  0  0  0
   13.3842   27.4689   -5.0495 H   0  0  0  0  0  0  0  0  0  0  0  0
 33 34  1  0  0  0
 34 35  1  0  0  0
 34 18  1  0  0  0
 18 14  1  0  0  0
 14 15  1  0  0  0
 15 16  2  0  0  0
 15 13  1  0  0  0
 13 36  1  0  0  0
 36 37  1  0  0  0
 37 38  1  0  0  0
 37 39  2  0  0  0
 13  9  1  0  0  0
  9 10  1  0  0  0
 10 11  2  0  0  0
 10  2  1  0  0  0
  2  3  1  0  0  0
  3  4  1  0  0  0
  4  5  1  0  0  0
  5  6  1  0  0  0
  6  7  1  0  0  0
  7  8  2  0  0  0
  7  1  1  0  0  0
  1 78  1  0  0  0
 78 79  1  0  0  0
 79 80  1  0  0  0
 80 81  1  0  0  0
 81 82  1  0  0  0
  1 41  1  0  0  0
 41 42  1  0  0  0
 42 43  2  0  0  0
 42 45  1  0  0  0
 45 67  1  0  0  0
 67 68  1  0  0  0
 68 69  1  0  0  0
 69 70  1  0  0  0
 70 71  2  0  0  0
 71 72  1  0  0  0
 71 73  1  0  0  0
 45 46  1  0  0  0
 46 47  1  0  0  0
 47 48  2  0  0  0
 47 50  1  0  0  0
 50 56  1  0  0  0
 56 57  1  0  0  0
 57 58  1  0  0  0
 58 59  1  0  0  0
 59 60  2  0  0  0
 60 61  1  0  0  0
 60 62  1  0  0  0
 50 51  1  0  0  0
 51 52  1  0  0  0
 52 53  1  0  0  0
 52 54  2  0  0  0
 18 19  1  0  0  0
 19 20  2  0  0  0
 19 21  1  0  0  0
 21 23  1  0  0  0
 23 28  1  0  0  0
 28 29  1  0  0  0
 29 30  1  0  0  0
 29 31  2  0  0  0
 23 24  1  0  0  0
 24 25  1  0  0  0
 24 26  2  0  0  0
  6  2  1  0  0  0
 14 17  1  0  0  0
 38 40  1  0  0  0
  9 12  1  0  0  0
 82 83  1  0  0  0
 82 84  1  0  0  0
 41 44  1  0  0  0
 72 74  1  0  0  0
 72 75  1  0  0  0
 73 76  1  0  0  0
 73 77  1  0  0  0
 46 49  1  0  0  0
 61 63  1  0  0  0
 61 64  1  0  0  0
 62 65  1  0  0  0
 62 66  1  0  0  0
 51 55  1  0  0  0
 21 22  1  0  0  0
 30 32  1  0  0  0
 25 27  1  0  0  0
M  END
> <minimizedAffinity>
-8.54411

> <CNNscore>
0.2248500437

> <CNNaffinity>
7.7140951157

> <CNN_VS>
1.7345145941

> <CNNaffinity_variance>
0.9978926778

$$$$
[H]OC(=O)C([H])([H])[C@@]([H])(C(=O)O[H])N([H])C(=O)[C@@]([H])(N([H])C(=O)[C@@]([H])(N([H])C(=O)[C@@]1([H])N(C(=O)[C@@]([H])(N([H])C(=O)[C@@]([H])(N([H])C(=O)[C@@]([H])(N([H])C(=O)C([H])([H])[H])C([H])([H])C([H])([H])C([H])([H])N=C(N([H])[H])N([H])[H])C([H])([H])C([H])([H])C([H])([H])N=C(N([H])[H])N([H])[H])C([H])([H])C([H])([H])C([H])([H])C([H])([H])N([H])[H])C([H])([H])C([H])([H])C1([H])[H])C([H])([H])C(=O)O[H])C([H])(C([H])([H])[H])C([H])([H])[H]


 84 84  0  0  0  0  0  0  0  0999 V2000
   10.4758   22.8494   -0.9721 C   0  0  0  0  0  0  0  0  0  0  0  0
   12.6695   21.1140    1.3073 C   0  0  0  0  0  0  0  0  0  0  0  0
   13.6883   22.1692    1.5833 C   0  0  0  0  0  0  0  0  0  0  0  0
   14.5762   21.9800    0.3124 C   0  0  0  0  0  0  0  0  0  0  0  0
   13.8447   20.9643   -0.5543 C   0  0  0  0  0  0  0  0  0  0  0  0
   12.4101   21.3561   -0.0713 N   0  0  0  0  0  0  0  0  0  0  0  0
   11.5936   21.8920   -1.0198 C   0  0  0  0  0  0  0  0  0  0  0  0
   11.8399   21.5004   -2.2492 O   0  0  0  0  0  0  0  0  0  0  0  0
   11.1758   21.6484    3.2378 N   0  0  0  0  0  0  0  0  0  0  0  0
   11.6880   20.7472    2.2570 C   0  0  0  0  0  0  0  0  0  0  0  0
   11.1915   19.5678    2.2951 O   0  0  0  0  0  0  0  0  0  0  0  0
   11.5513   22.6124    3.2509 H   0  0  0  0  0  0  0  0  0  0  0  0
   10.1702   21.2721    4.1941 C   0  0  0  0  0  0  0  0  0  0  0  0
    8.4548   22.3582    5.7054 N   0  0  0  0  0  0  0  0  0  0  0  0
    9.4343   22.4812    4.7530 C   0  0  0  0  0  0  0  0  0  0  0  0
    9.8069   23.5623    4.2632 O   0  0  0  0  0  0  0  0  0  0  0  0
    8.2408   21.3273    6.0044 H   0  0  0  0  0  0  0  0  0  0  0  0
    7.6227   23.2954    6.4166 C   0  0  0  0  0  0  0  0  0  0  0  0
    7.1406   24.3419    5.5448 C   0  0  0  0  0  0  0  0  0  0  0  0
    6.1594   24.0028    4.7611 O   0  0  0  0  0  0  0  0  0  0  0  0
    7.5541   25.6821    5.4013 N   0  0  0  0  0  0  0  0  0  0  0  0
    8.2955   26.0717    5.9860 H   0  0  0  0  0  0  0  0  0  0  0  0
    6.9194   26.5648    4.4376 C   0  0  0  0  0  0  0  0  0  0  0  0
    7.8802   27.5518    3.8777 C   0  0  0  0  0  0  0  0  0  0  0  0
    9.2156   27.3613    4.2121 O   0  0  0  0  0  0  0  0  0  0  0  0
    7.5765   28.5079    3.1520 O   0  0  0  0  0  0  0  0  0  0  0  0
    9.5384   26.9952    5.0992 H   0  0  0  0  0  0  0  0  0  0  0  0
    5.7797   27.3208    5.0545 C   0  0  0  0  0  0  0  0  0  0  0  0
    4.5353   27.3275    4.2740 C   0  0  0  0  0  0  0  0  0  0  0  0
    4.4956   27.7539    2.9385 O   0  0  0  0  0  0  0  0  0  0  0  0
    3.4280   26.9570    4.7360 O   0  0  0  0  0  0  0  0  0  0  0  0
    5.0933   27.3680    2.2277 H   0  0  0  0  0  0  0  0  0  0  0  0
    9.0062   22.7174    8.4410 C   0  0  0  0  0  0  0  0  0  0  0  0
    8.2064   23.7838    7.7043 C   0  0  0  0  0  0  0  0  0  0  0  0
    7.1800   24.2820    8.6715 C   0  0  0  0  0  0  0  0  0  0  0  0
   10.7393   20.5453    5.3860 C   0  0  0  0  0  0  0  0  0  0  0  0
   10.4542   19.0951    5.3989 C   0  0  0  0  0  0  0  0  0  0  0  0
   11.3920   18.2547    4.8249 O   0  0  0  0  0  0  0  0  0  0  0  0
    9.4287   18.5673    5.8892 O   0  0  0  0  0  0  0  0  0  0  0  0
   11.6475   17.3693    5.2329 H   0  0  0  0  0  0  0  0  0  0  0  0
    9.2114   22.2272   -0.6087 N   0  0  0  0  0  0  0  0  0  0  0  0
    8.5157   22.4631    0.5978 C   0  0  0  0  0  0  0  0  0  0  0  0
    8.9878   23.3062    1.4063 O   0  0  0  0  0  0  0  0  0  0  0  0
    8.7936   21.5714   -1.2983 H   0  0  0  0  0  0  0  0  0  0  0  0
    7.2600   21.7711    0.9855 C   0  0  0  0  0  0  0  0  0  0  0  0
    7.0429   20.5856    0.1904 N   0  0  0  0  0  0  0  0  0  0  0  0
    5.9847   20.4599   -0.7358 C   0  0  0  0  0  0  0  0  0  0  0  0
    5.2070   21.4263   -0.8850 O   0  0  0  0  0  0  0  0  0  0  0  0
    7.6950   19.7888    0.3105 H   0  0  0  0  0  0  0  0  0  0  0  0
    5.8094   19.1707   -1.5292 C   0  0  0  0  0  0  0  0  0  0  0  0
    5.1383   19.4236   -2.7347 N   0  0  0  0  0  0  0  0  0  0  0  0
    3.8104   18.9537   -3.0521 C   0  0  0  0  0  0  0  0  0  0  0  0
    3.1431   19.2384   -4.3295 C   0  0  0  0  0  0  0  0  0  0  0  0
    3.2571   18.2750   -2.1495 O   0  0  0  0  0  0  0  0  0  0  0  0
    5.5928   19.9997   -3.4895 H   0  0  0  0  0  0  0  0  0  0  0  0
    7.0405   18.3647   -1.4891 C   0  0  0  0  0  0  0  0  0  0  0  0
    6.9560   17.0789   -0.7641 C   0  0  0  0  0  0  0  0  0  0  0  0
    5.7143   16.7054   -0.0576 C   0  0  0  0  0  0  0  0  0  0  0  0
    5.9685   16.5800    1.4010 N   0  0  0  0  0  0  0  0  0  0  0  0
    5.3693   15.6658    2.0558 C   0  0  0  0  0  0  0  0  0  0  0  0
    4.4765   14.7807    1.4160 N   0  0  0  0  0  0  0  0  0  0  0  0
    5.6019   15.5354    3.4439 N   0  0  0  0  0  0  0  0  0  0  0  0
    3.4826   14.9985    1.2646 H   0  0  0  0  0  0  0  0  0  0  0  0
    4.8378   13.8590    1.0781 H   0  0  0  0  0  0  0  0  0  0  0  0
    6.5580   15.4187    3.8232 H   0  0  0  0  0  0  0  0  0  0  0  0
    4.8140   15.5538    4.1198 H   0  0  0  0  0  0  0  0  0  0  0  0
    7.1369   21.4678    2.4219 C   0  0  0  0  0  0  0  0  0  0  0  0
    6.2089   20.3149    2.6953 C   0  0  0  0  0  0  0  0  0  0  0  0
    5.5078   20.5766    4.0347 C   0  0  0  0  0  0  0  0  0  0  0  0
    6.3492   20.2609    5.1436 N   0  0  0  0  0  0  0  0  0  0  0  0
    6.0070   19.7039    6.2424 C   0  0  0  0  0  0  0  0  0  0  0  0
    7.0137   19.4822    7.2176 N   0  0  0  0  0  0  0  0  0  0  0  0
    4.6837   19.2988    6.5351 N   0  0  0  0  0  0  0  0  0  0  0  0
    6.9740   18.7047    7.9058 H   0  0  0  0  0  0  0  0  0  0  0  0
    7.8609   20.1087    7.2866 H   0  0  0  0  0  0  0  0  0  0  0  0
    4.2548   18.4415    6.1068 H   0  0  0  0  0  0  0  0  0  0  0  0
    4.1513   19.9078    7.2113 H   0  0  0  0  0  0  0  0  0  0  0  0
   10.7638   24.1500   -0.3922 C   0  0  0  0  0  0  0  0  0  0  0  0
   12.0973   24.7817   -0.5487 C   0  0  0  0  0  0  0  0  0  0  0  0
   12.5469   25.2268   -1.8821 C   0  0  0  0  0  0  0  0  0  0  0  0
   14.0514   24.9041   -2.0822 C   0  0  0  0  0  0  0  0  0  0  0  0
   14.1395   23.7079   -2.8917 N   0  0  0  0  0  0  0  0  0  0  0  0
   13.3439   23.0765   -2.6642 H   0  0  0  0  0  0  0  0  0  0  0  0
   15.0131   23.1973   -2.6195 H   0  0  0  0  0  0  0  0  0  0  0  0
 33 34  1  0  0  0
 34 35  1  0  0  0
 34 18  1  0  0  0
 18 14  1  0  0  0
 14 15  1  0  0  0
 15 16  2  0  0  0
 15 13  1  0  0  0
 13 36  1  0  0  0
 36 37  1  0  0  0
 37 38  1  0  0  0
 37 39  2  0  0  0
 13  9  1  0  0  0
  9 10  1  0  0  0
 10 11  2  0  0  0
 10  2  1  0  0  0
  2  3  1  0  0  0
  3  4  1  0  0  0
  4  5  1  0  0  0
  5  6  1  0  0  0
  6  7  1  0  0  0
  7  8  2  0  0  0
  7  1  1  0  0  0
  1 78  1  0  0  0
 78 79  1  0  0  0
 79 80  1  0  0  0
 80 81  1  0  0  0
 81 82  1  0  0  0
  1 41  1  0  0  0
 41 42  1  0  0  0
 42 43  2  0  0  0
 42 45  1  0  0  0
 45 67  1  0  0  0
 67 68  1  0  0  0
 68 69  1  0  0  0
 69 70  1  0  0  0
 70 71  2  0  0  0
 71 72  1  0  0  0
 71 73  1  0  0  0
 45 46  1  0  0  0
 46 47  1  0  0  0
 47 48  2  0  0  0
 47 50  1  0  0  0
 50 56  1  0  0  0
 56 57  1  0  0  0
 57 58  1  0  0  0
 58 59  1  0  0  0
 59 60  2  0  0  0
 60 61  1  0  0  0
 60 62  1  0  0  0
 50 51  1  0  0  0
 51 52  1  0  0  0
 52 53  1  0  0  0
 52 54  2  0  0  0
 18 19  1  0  0  0
 19 20  2  0  0  0
 19 21  1  0  0  0
 21 23  1  0  0  0
 23 28  1  0  0  0
 28 29  1  0  0  0
 29 30  1  0  0  0
 29 31  2  0  0  0
 23 24  1  0  0  0
 24 25  1  0  0  0
 24 26  2  0  0  0
  6  2  1  0  0  0
 14 17  1  0  0  0
 38 40  1  0  0  0
  9 12  1  0  0  0
 82 83  1  0  0  0
 82 84  1  0  0  0
 41 44  1  0  0  0
 72 74  1  0  0  0
 72 75  1  0  0  0
 73 76  1  0  0  0
 73 77  1  0  0  0
 46 49  1  0  0  0
 61 63  1  0  0  0
 61 64  1  0  0  0
 62 65  1  0  0  0
 62 66  1  0  0  0
 51 55  1  0  0  0
 21 22  1  0  0  0
 30 32  1  0  0  0
 25 27  1  0  0  0
M  END
> <minimizedAffinity>
-7.75740

> <CNNscore>
0.1665464342

> <CNNaffinity>
7.2887372971

> <CNN_VS>
1.2139132023

> <CNNaffinity_variance>
2.2144684792

$$$$
[H]OC(=O)C([H])([H])[C@@]([H])(C(=O)O[H])N([H])C(=O)[C@@]([H])(N([H])C(=O)[C@@]([H])(N([H])C(=O)[C@@]1([H])N(C(=O)[C@@]([H])(N([H])C(=O)[C@@]([H])(N([H])C(=O)[C@@]([H])(N([H])C(=O)C([H])([H])[H])C([H])([H])C([H])([H])C([H])([H])N=C(N([H])[H])N([H])[H])C([H])([H])C([H])([H])C([H])([H])N=C(N([H])[H])N([H])[H])C([H])([H])C([H])([H])C([H])([H])C([H])([H])N([H])[H])C([H])([H])C([H])([H])C1([H])[H])C([H])([H])C(=O)O[H])C([H])(C([H])([H])[H])C([H])([H])[H]


 84 84  0  0  0  0  0  0  0  0999 V2000
    6.7951   22.8082    5.2084 C   0  0  0  0  0  0  0  0  0  0  0  0
    9.8813   20.9453    5.3650 C   0  0  0  0  0  0  0  0  0  0  0  0
    9.4448   19.7308    6.1149 C   0  0  0  0  0  0  0  0  0  0  0  0
    9.5184   20.3078    7.5644 C   0  0  0  0  0  0  0  0  0  0  0  0
    9.8317   21.7890    7.4033 C   0  0  0  0  0  0  0  0  0  0  0  0
    9.1144   21.9479    6.0231 N   0  0  0  0  0  0  0  0  0  0  0  0
    8.0274   22.7675    6.0136 C   0  0  0  0  0  0  0  0  0  0  0  0
    8.0482   23.7269    6.9105 O   0  0  0  0  0  0  0  0  0  0  0  0
    9.6957   21.9313    3.0765 N   0  0  0  0  0  0  0  0  0  0  0  0
   10.1459   20.9189    3.9761 C   0  0  0  0  0  0  0  0  0  0  0  0
   10.8153   19.9723    3.4331 O   0  0  0  0  0  0  0  0  0  0  0  0
    9.1446   22.7147    3.4677 H   0  0  0  0  0  0  0  0  0  0  0  0
    9.9768   21.9040    1.6668 C   0  0  0  0  0  0  0  0  0  0  0  0
   12.3701   22.0157    0.8507 N   0  0  0  0  0  0  0  0  0  0  0  0
   11.2544   22.6570    1.3256 C   0  0  0  0  0  0  0  0  0  0  0  0
   11.1783   23.8831    1.5215 O   0  0  0  0  0  0  0  0  0  0  0  0
   12.2651   20.9298    0.7623 H   0  0  0  0  0  0  0  0  0  0  0  0
   13.6787   22.4529    0.4347 C   0  0  0  0  0  0  0  0  0  0  0  0
   13.6503   23.0138   -0.8966 C   0  0  0  0  0  0  0  0  0  0  0  0
   12.7065   22.5615   -1.6690 O   0  0  0  0  0  0  0  0  0  0  0  0
   14.4770   23.9804   -1.5047 N   0  0  0  0  0  0  0  0  0  0  0  0
   15.2329   24.4309   -0.9860 H   0  0  0  0  0  0  0  0  0  0  0  0
   14.2636   24.3921   -2.8815 C   0  0  0  0  0  0  0  0  0  0  0  0
   15.0847   23.5932   -3.8294 C   0  0  0  0  0  0  0  0  0  0  0  0
   14.9934   22.2123   -3.7025 O   0  0  0  0  0  0  0  0  0  0  0  0
   15.8256   24.0653   -4.7018 O   0  0  0  0  0  0  0  0  0  0  0  0
   14.8642   21.7241   -2.8249 H   0  0  0  0  0  0  0  0  0  0  0  0
   14.6000   25.8409   -3.0788 C   0  0  0  0  0  0  0  0  0  0  0  0
   13.8452   26.5219   -4.1391 C   0  0  0  0  0  0  0  0  0  0  0  0
   14.3493   26.6620   -5.4403 O   0  0  0  0  0  0  0  0  0  0  0  0
   12.7071   27.0230   -3.9643 O   0  0  0  0  0  0  0  0  0  0  0  0
   14.6651   25.8793   -5.9871 H   0  0  0  0  0  0  0  0  0  0  0  0
   16.1100   22.0842    0.9820 C   0  0  0  0  0  0  0  0  0  0  0  0
   14.7641   21.4486    0.6592 C   0  0  0  0  0  0  0  0  0  0  0  0
   14.9947   20.5497   -0.5139 C   0  0  0  0  0  0  0  0  0  0  0  0
    8.8876   22.5393    0.8406 C   0  0  0  0  0  0  0  0  0  0  0  0
    7.7878   21.6184    0.4842 C   0  0  0  0  0  0  0  0  0  0  0  0
    6.6664   22.1645   -0.1151 O   0  0  0  0  0  0  0  0  0  0  0  0
    7.7920   20.3810    0.6831 O   0  0  0  0  0  0  0  0  0  0  0  0
    6.1852   21.7129   -0.8769 H   0  0  0  0  0  0  0  0  0  0  0  0
    6.2739   21.4844    4.9022 N   0  0  0  0  0  0  0  0  0  0  0  0
    5.8203   21.0726    3.6295 C   0  0  0  0  0  0  0  0  0  0  0  0
    5.9114   21.8838    2.6698 O   0  0  0  0  0  0  0  0  0  0  0  0
    6.2475   20.7967    5.6810 H   0  0  0  0  0  0  0  0  0  0  0  0
    5.2287   19.7400    3.3458 C   0  0  0  0  0  0  0  0  0  0  0  0
    5.2362   19.4488    1.9317 N   0  0  0  0  0  0  0  0  0  0  0  0
    4.0603   19.3587    1.1555 C   0  0  0  0  0  0  0  0  0  0  0  0
    2.9611   19.5542    1.7164 O   0  0  0  0  0  0  0  0  0  0  0  0
    6.1504   19.2956    1.4677 H   0  0  0  0  0  0  0  0  0  0  0  0
    4.1457   19.0321   -0.3305 C   0  0  0  0  0  0  0  0  0  0  0  0
    5.4758   19.0951   -0.7713 N   0  0  0  0  0  0  0  0  0  0  0  0
    5.8935   19.5985   -2.0586 C   0  0  0  0  0  0  0  0  0  0  0  0
    7.2990   19.6446   -2.4838 C   0  0  0  0  0  0  0  0  0  0  0  0
    4.9607   19.9992   -2.8007 O   0  0  0  0  0  0  0  0  0  0  0  0
    6.2613   18.7705   -0.1503 H   0  0  0  0  0  0  0  0  0  0  0  0
    3.2794   17.8888   -0.6616 C   0  0  0  0  0  0  0  0  0  0  0  0
    1.9394   18.2173   -1.1934 C   0  0  0  0  0  0  0  0  0  0  0  0
    1.7217   19.4788   -1.9293 C   0  0  0  0  0  0  0  0  0  0  0  0
    1.6953   19.2243   -3.3930 N   0  0  0  0  0  0  0  0  0  0  0  0
    1.9855   20.1748   -4.1903 C   0  0  0  0  0  0  0  0  0  0  0  0
    2.3283   21.4531   -3.7020 N   0  0  0  0  0  0  0  0  0  0  0  0
    1.9643   19.9464   -5.5850 N   0  0  0  0  0  0  0  0  0  0  0  0
    1.6292   22.1719   -3.4723 H   0  0  0  0  0  0  0  0  0  0  0  0
    3.3391   21.6849   -3.5655 H   0  0  0  0  0  0  0  0  0  0  0  0
    2.5182   19.1860   -6.0168 H   0  0  0  0  0  0  0  0  0  0  0  0
    1.3886   20.5400   -6.2130 H   0  0  0  0  0  0  0  0  0  0  0  0
    5.8130   18.6259    4.1127 C   0  0  0  0  0  0  0  0  0  0  0  0
    4.8555   17.4789    4.2929 C   0  0  0  0  0  0  0  0  0  0  0  0
    5.5609   16.1950    3.8367 C   0  0  0  0  0  0  0  0  0  0  0  0
    5.9837   16.2777    2.4759 N   0  0  0  0  0  0  0  0  0  0  0  0
    5.4995   15.6479    1.4742 C   0  0  0  0  0  0  0  0  0  0  0  0
    6.0765   15.8818    0.1990 N   0  0  0  0  0  0  0  0  0  0  0  0
    4.4234   14.7346    1.5702 N   0  0  0  0  0  0  0  0  0  0  0  0
    5.5436   15.7935   -0.6885 H   0  0  0  0  0  0  0  0  0  0  0  0
    7.0898   16.1605    0.0961 H   0  0  0  0  0  0  0  0  0  0  0  0
    3.4309   15.0529    1.6964 H   0  0  0  0  0  0  0  0  0  0  0  0
    4.6753   13.7129    1.5058 H   0  0  0  0  0  0  0  0  0  0  0  0
    5.8286   23.8350    5.5583 C   0  0  0  0  0  0  0  0  0  0  0  0
    5.8757   25.1789    4.9311 C   0  0  0  0  0  0  0  0  0  0  0  0
    4.8427   26.1799    5.2615 C   0  0  0  0  0  0  0  0  0  0  0  0
    5.4853   27.4173    5.9422 C   0  0  0  0  0  0  0  0  0  0  0  0
    4.9027   28.5990    5.3438 N   0  0  0  0  0  0  0  0  0  0  0  0
    4.7036   28.4158    4.3387 H   0  0  0  0  0  0  0  0  0  0  0  0
    5.6200   29.3624    5.3718 H   0  0  0  0  0  0  0  0  0  0  0  0
 33 34  1  0  0  0
 34 35  1  0  0  0
 34 18  1  0  0  0
 18 14  1  0  0  0
 14 15  1  0  0  0
 15 16  2  0  0  0
 15 13  1  0  0  0
 13 36  1  0  0  0
 36 37  1  0  0  0
 37 38  1  0  0  0
 37 39  2  0  0  0
 13  9  1  0  0  0
  9 10  1  0  0  0
 10 11  2  0  0  0
 10  2  1  0  0  0
  2  3  1  0  0  0
  3  4  1  0  0  0
  4  5  1  0  0  0
  5  6  1  0  0  0
  6  7  1  0  0  0
  7  8  2  0  0  0
  7  1  1  0  0  0
  1 78  1  0  0  0
 78 79  1  0  0  0
 79 80  1  0  0  0
 80 81  1  0  0  0
 81 82  1  0  0  0
  1 41  1  0  0  0
 41 42  1  0  0  0
 42 43  2  0  0  0
 42 45  1  0  0  0
 45 67  1  0  0  0
 67 68  1  0  0  0
 68 69  1  0  0  0
 69 70  1  0  0  0
 70 71  2  0  0  0
 71 72  1  0  0  0
 71 73  1  0  0  0
 45 46  1  0  0  0
 46 47  1  0  0  0
 47 48  2  0  0  0
 47 50  1  0  0  0
 50 56  1  0  0  0
 56 57  1  0  0  0
 57 58  1  0  0  0
 58 59  1  0  0  0
 59 60  2  0  0  0
 60 61  1  0  0  0
 60 62  1  0  0  0
 50 51  1  0  0  0
 51 52  1  0  0  0
 52 53  1  0  0  0
 52 54  2  0  0  0
 18 19  1  0  0  0
 19 20  2  0  0  0
 19 21  1  0  0  0
 21 23  1  0  0  0
 23 28  1  0  0  0
 28 29  1  0  0  0
 29 30  1  0  0  0
 29 31  2  0  0  0
 23 24  1  0  0  0
 24 25  1  0  0  0
 24 26  2  0  0  0
  6  2  1  0  0  0
 14 17  1  0  0  0
 38 40  1  0  0  0
  9 12  1  0  0  0
 82 83  1  0  0  0
 82 84  1  0  0  0
 41 44  1  0  0  0
 72 74  1  0  0  0
 72 75  1  0  0  0
 73 76  1  0  0  0
 73 77  1  0  0  0
 46 49  1  0  0  0
 61 63  1  0  0  0
 61 64  1  0  0  0
 62 65  1  0  0  0
 62 66  1  0  0  0
 51 55  1  0  0  0
 21 22  1  0  0  0
 30 32  1  0  0  0
 25 27  1  0  0  0
M  END
> <minimizedAffinity>
-8.23942

> <CNNscore>
0.1181355566

> <CNNaffinity>
6.9943418503

> <CNN_VS>
0.8262804747

> <CNNaffinity_variance>
1.2579495907

$$$$
[H]OC(=O)C([H])([H])[C@@]([H])(C(=O)O[H])N([H])C(=O)[C@@]([H])(N([H])C(=O)[C@@]([H])(N([H])C(=O)[C@@]1([H])N(C(=O)[C@@]([H])(N([H])C(=O)[C@@]([H])(N([H])C(=O)[C@@]([H])(N([H])C(=O)C([H])([H])[H])C([H])([H])C([H])([H])C([H])([H])N=C(N([H])[H])N([H])[H])C([H])([H])C([H])([H])C([H])([H])N=C(N([H])[H])N([H])[H])C([H])([H])C([H])([H])C([H])([H])C([H])([H])N([H])[H])C([H])([H])C([H])([H])C1([H])[H])C([H])([H])C(=O)O[H])C([H])(C([H])([H])[H])C([H])([H])[H]


 84 84  0  0  0  0  0  0  0  0999 V2000
   10.8831   20.7753    0.9850 C   0  0  0  0  0  0  0  0  0  0  0  0
   10.7817   24.3822    1.0051 C   0  0  0  0  0  0  0  0  0  0  0  0
   11.1353   24.6863   -0.4127 C   0  0  0  0  0  0  0  0  0  0  0  0
   12.6880   24.5573   -0.3028 C   0  0  0  0  0  0  0  0  0  0  0  0
   12.9612   24.0532    1.1075 C   0  0  0  0  0  0  0  0  0  0  0  0
   11.6217   23.2589    1.2483 N   0  0  0  0  0  0  0  0  0  0  0  0
   11.7456   21.9079    1.3618 C   0  0  0  0  0  0  0  0  0  0  0  0
   12.8678   21.4977    1.9076 O   0  0  0  0  0  0  0  0  0  0  0  0
    9.1621   25.1382    2.7512 N   0  0  0  0  0  0  0  0  0  0  0  0
    9.4644   24.5220    1.5000 C   0  0  0  0  0  0  0  0  0  0  0  0
    8.4481   24.0990    0.8464 O   0  0  0  0  0  0  0  0  0  0  0  0
    9.9517   25.4907    3.3193 H   0  0  0  0  0  0  0  0  0  0  0  0
    7.8196   25.2866    3.2441 C   0  0  0  0  0  0  0  0  0  0  0  0
    6.3311   27.0948    4.2036 N   0  0  0  0  0  0  0  0  0  0  0  0
    7.5842   26.6617    3.8518 C   0  0  0  0  0  0  0  0  0  0  0  0
    8.6235   27.3314    3.9882 O   0  0  0  0  0  0  0  0  0  0  0  0
    5.5289   26.3814    3.9905 H   0  0  0  0  0  0  0  0  0  0  0  0
    5.8167   28.3015    4.8003 C   0  0  0  0  0  0  0  0  0  0  0  0
    5.0760   28.0198    6.0084 C   0  0  0  0  0  0  0  0  0  0  0  0
    5.4410   28.7011    7.0546 O   0  0  0  0  0  0  0  0  0  0  0  0
    4.0116   27.1265    6.2468 N   0  0  0  0  0  0  0  0  0  0  0  0
    3.6178   26.5606    5.4932 H   0  0  0  0  0  0  0  0  0  0  0  0
    3.4171   27.0019    7.5666 C   0  0  0  0  0  0  0  0  0  0  0  0
    3.1255   25.5844    7.9082 C   0  0  0  0  0  0  0  0  0  0  0  0
    2.1134   24.9756    7.1758 O   0  0  0  0  0  0  0  0  0  0  0  0
    3.7099   24.9278    8.7802 O   0  0  0  0  0  0  0  0  0  0  0  0
    1.2863   25.4501    6.8354 H   0  0  0  0  0  0  0  0  0  0  0  0
    2.1376   27.7790    7.6670 C   0  0  0  0  0  0  0  0  0  0  0  0
    2.1558   28.8980    8.6184 C   0  0  0  0  0  0  0  0  0  0  0  0
    2.4180   30.2152    8.2145 O   0  0  0  0  0  0  0  0  0  0  0  0
    1.9406   28.7630    9.8481 O   0  0  0  0  0  0  0  0  0  0  0  0
    1.8986   30.6727    7.4849 H   0  0  0  0  0  0  0  0  0  0  0  0
    4.1095   28.4874    2.9572 C   0  0  0  0  0  0  0  0  0  0  0  0
    5.1148   29.2115    3.8429 C   0  0  0  0  0  0  0  0  0  0  0  0
    6.0436   29.9345    2.9200 C   0  0  0  0  0  0  0  0  0  0  0  0
    7.4798   24.2918    4.3247 C   0  0  0  0  0  0  0  0  0  0  0  0
    8.5724   24.0576    5.2922 C   0  0  0  0  0  0  0  0  0  0  0  0
    9.6026   23.2201    4.9018 O   0  0  0  0  0  0  0  0  0  0  0  0
    8.6382   24.5586    6.4391 O   0  0  0  0  0  0  0  0  0  0  0  0
   10.5684   23.4136    5.1154 H   0  0  0  0  0  0  0  0  0  0  0  0
    9.4760   21.0153    1.2686 N   0  0  0  0  0  0  0  0  0  0  0  0
    8.8883   20.9352    2.5505 C   0  0  0  0  0  0  0  0  0  0  0  0
    9.6324   20.6854    3.5360 O   0  0  0  0  0  0  0  0  0  0  0  0
    8.8707   21.2738    0.4643 H   0  0  0  0  0  0  0  0  0  0  0  0
    7.4383   21.1172    2.8161 C   0  0  0  0  0  0  0  0  0  0  0  0
    6.6316   20.3875    1.8667 N   0  0  0  0  0  0  0  0  0  0  0  0
    6.1527   20.9526    0.6648 C   0  0  0  0  0  0  0  0  0  0  0  0
    6.4530   22.1369    0.4034 O   0  0  0  0  0  0  0  0  0  0  0  0
    6.3914   19.4025    2.0826 H   0  0  0  0  0  0  0  0  0  0  0  0
    5.2926   20.1247   -0.2824 C   0  0  0  0  0  0  0  0  0  0  0  0
    4.9800   20.8629   -1.4336 N   0  0  0  0  0  0  0  0  0  0  0  0
    3.6591   21.3354   -1.7750 C   0  0  0  0  0  0  0  0  0  0  0  0
    3.3727   22.1040   -2.9938 C   0  0  0  0  0  0  0  0  0  0  0  0
    2.7588   21.0402   -0.9481 O   0  0  0  0  0  0  0  0  0  0  0  0
    5.7315   21.1215   -2.1238 H   0  0  0  0  0  0  0  0  0  0  0  0
    5.7955   18.7439   -0.3676 C   0  0  0  0  0  0  0  0  0  0  0  0
    4.8598   17.7410   -0.9199 C   0  0  0  0  0  0  0  0  0  0  0  0
    4.6109   16.4793   -0.1942 C   0  0  0  0  0  0  0  0  0  0  0  0
    5.2344   16.5278    1.1536 N   0  0  0  0  0  0  0  0  0  0  0  0
    4.9284   15.6335    2.0081 C   0  0  0  0  0  0  0  0  0  0  0  0
    4.0130   14.6083    1.6900 N   0  0  0  0  0  0  0  0  0  0  0  0
    5.5141   15.6678    3.2940 N   0  0  0  0  0  0  0  0  0  0  0  0
    2.9945   14.7160    1.7857 H   0  0  0  0  0  0  0  0  0  0  0  0
    4.3830   13.6946    1.3400 H   0  0  0  0  0  0  0  0  0  0  0  0
    6.5414   15.6801    3.4199 H   0  0  0  0  0  0  0  0  0  0  0  0
    4.9235   15.6817    4.1479 H   0  0  0  0  0  0  0  0  0  0  0  0
    7.0185   20.8204    4.1968 C   0  0  0  0  0  0  0  0  0  0  0  0
    6.3113   19.4974    4.3178 C   0  0  0  0  0  0  0  0  0  0  0  0
    7.0649   18.6487    5.3502 C   0  0  0  0  0  0  0  0  0  0  0  0
    6.3961   17.4150    5.6113 N   0  0  0  0  0  0  0  0  0  0  0  0
    5.7713   17.0823    6.6759 C   0  0  0  0  0  0  0  0  0  0  0  0
    5.1751   15.7953    6.7228 N   0  0  0  0  0  0  0  0  0  0  0  0
    5.6434   17.9261    7.8041 N   0  0  0  0  0  0  0  0  0  0  0  0
    4.3315   15.5823    7.2909 H   0  0  0  0  0  0  0  0  0  0  0  0
    5.5702   14.9852    6.1726 H   0  0  0  0  0  0  0  0  0  0  0  0
    4.9850   18.7438    7.8176 H   0  0  0  0  0  0  0  0  0  0  0  0
    6.2475   17.6854    8.6339 H   0  0  0  0  0  0  0  0  0  0  0  0
   11.2015   20.1095   -0.2664 C   0  0  0  0  0  0  0  0  0  0  0  0
   12.0751   20.7541   -1.2780 C   0  0  0  0  0  0  0  0  0  0  0  0
   13.5126   20.4230   -1.3245 C   0  0  0  0  0  0  0  0  0  0  0  0
   14.3590   21.7094   -1.5154 C   0  0  0  0  0  0  0  0  0  0  0  0
   14.6449   21.8408   -2.9278 N   0  0  0  0  0  0  0  0  0  0  0  0
   14.7602   20.8952   -3.3471 H   0  0  0  0  0  0  0  0  0  0  0  0
   15.5683   22.3260   -3.0267 H   0  0  0  0  0  0  0  0  0  0  0  0
 33 34  1  0  0  0
 34 35  1  0  0  0
 34 18  1  0  0  0
 18 14  1  0  0  0
 14 15  1  0  0  0
 15 16  2  0  0  0
 15 13  1  0  0  0
 13 36  1  0  0  0
 36 37  1  0  0  0
 37 38  1  0  0  0
 37 39  2  0  0  0
 13  9  1  0  0  0
  9 10  1  0  0  0
 10 11  2  0  0  0
 10  2  1  0  0  0
  2  3  1  0  0  0
  3  4  1  0  0  0
  4  5  1  0  0  0
  5  6  1  0  0  0
  6  7  1  0  0  0
  7  8  2  0  0  0
  7  1  1  0  0  0
  1 78  1  0  0  0
 78 79  1  0  0  0
 79 80  1  0  0  0
 80 81  1  0  0  0
 81 82  1  0  0  0
  1 41  1  0  0  0
 41 42  1  0  0  0
 42 43  2  0  0  0
 42 45  1  0  0  0
 45 67  1  0  0  0
 67 68  1  0  0  0
 68 69  1  0  0  0
 69 70  1  0  0  0
 70 71  2  0  0  0
 71 72  1  0  0  0
 71 73  1  0  0  0
 45 46  1  0  0  0
 46 47  1  0  0  0
 47 48  2  0  0  0
 47 50  1  0  0  0
 50 56  1  0  0  0
 56 57  1  0  0  0
 57 58  1  0  0  0
 58 59  1  0  0  0
 59 60  2  0  0  0
 60 61  1  0  0  0
 60 62  1  0  0  0
 50 51  1  0  0  0
 51 52  1  0  0  0
 52 53  1  0  0  0
 52 54  2  0  0  0
 18 19  1  0  0  0
 19 20  2  0  0  0
 19 21  1  0  0  0
 21 23  1  0  0  0
 23 28  1  0  0  0
 28 29  1  0  0  0
 29 30  1  0  0  0
 29 31  2  0  0  0
 23 24  1  0  0  0
 24 25  1  0  0  0
 24 26  2  0  0  0
  6  2  1  0  0  0
 14 17  1  0  0  0
 38 40  1  0  0  0
  9 12  1  0  0  0
 82 83  1  0  0  0
 82 84  1  0  0  0
 41 44  1  0  0  0
 72 74  1  0  0  0
 72 75  1  0  0  0
 73 76  1  0  0  0
 73 77  1  0  0  0
 46 49  1  0  0  0
 61 63  1  0  0  0
 61 64  1  0  0  0
 62 65  1  0  0  0
 62 66  1  0  0  0
 51 55  1  0  0  0
 21 22  1  0  0  0
 30 32  1  0  0  0
 25 27  1  0  0  0
M  END
> <minimizedAffinity>
-6.82233

> <CNNscore>
0.1073761359

> <CNNaffinity>
6.6714653969

> <CNN_VS>
0.7163561583

> <CNNaffinity_variance>
0.3556517661

$$$$
[H]OC(=O)C([H])([H])[C@@]([H])(C(=O)O[H])N([H])C(=O)[C@@]([H])(N([H])C(=O)[C@@]([H])(N([H])C(=O)[C@@]1([H])N(C(=O)[C@@]([H])(N([H])C(=O)[C@@]([H])(N([H])C(=O)[C@@]([H])(N([H])C(=O)C([H])([H])[H])C([H])([H])C([H])([H])C([H])([H])N=C(N([H])[H])N([H])[H])C([H])([H])C([H])([H])C([H])([H])N=C(N([H])[H])N([H])[H])C([H])([H])C([H])([H])C([H])([H])C([H])([H])N([H])[H])C([H])([H])C([H])([H])C1([H])[H])C([H])([H])C(=O)O[H])C([H])(C([H])([H])[H])C([H])([H])[H]


 84 84  0  0  0  0  0  0  0  0999 V2000
   10.5323   22.5657   -1.1637 C   0  0  0  0  0  0  0  0  0  0  0  0
   12.6549   21.1297    1.3764 C   0  0  0  0  0  0  0  0  0  0  0  0
   13.6178   22.2460    1.6094 C   0  0  0  0  0  0  0  0  0  0  0  0
   14.5823   21.9818    0.4097 C   0  0  0  0  0  0  0  0  0  0  0  0
   13.9379   20.8644   -0.3991 C   0  0  0  0  0  0  0  0  0  0  0  0
   12.4652   21.2382   -0.0303 N   0  0  0  0  0  0  0  0  0  0  0  0
   11.6848   21.6544   -1.0654 C   0  0  0  0  0  0  0  0  0  0  0  0
   12.0140   21.1662   -2.2395 O   0  0  0  0  0  0  0  0  0  0  0  0
   11.1110   21.7452    3.2421 N   0  0  0  0  0  0  0  0  0  0  0  0
   11.6352   20.8082    2.3019 C   0  0  0  0  0  0  0  0  0  0  0  0
   11.1122   19.6409    2.3533 O   0  0  0  0  0  0  0  0  0  0  0  0
   11.5068   22.7011    3.2433 H   0  0  0  0  0  0  0  0  0  0  0  0
   10.0668   21.4150    4.1738 C   0  0  0  0  0  0  0  0  0  0  0  0
    8.2788   22.5716    5.5417 N   0  0  0  0  0  0  0  0  0  0  0  0
    9.3536   22.6547    4.6935 C   0  0  0  0  0  0  0  0  0  0  0  0
    9.8376   23.7212    4.2744 O   0  0  0  0  0  0  0  0  0  0  0  0
    7.9741   21.5496    5.7879 H   0  0  0  0  0  0  0  0  0  0  0  0
    7.4384   23.5427    6.1956 C   0  0  0  0  0  0  0  0  0  0  0  0
    7.0122   24.5753    5.2794 C   0  0  0  0  0  0  0  0  0  0  0  0
    6.4495   24.1496    4.1865 O   0  0  0  0  0  0  0  0  0  0  0  0
    7.0994   25.9794    5.3717 N   0  0  0  0  0  0  0  0  0  0  0  0
    7.4933   26.4311    6.1988 H   0  0  0  0  0  0  0  0  0  0  0  0
    6.6039   26.8343    4.3066 C   0  0  0  0  0  0  0  0  0  0  0  0
    7.6632   27.7406    3.7894 C   0  0  0  0  0  0  0  0  0  0  0  0
    8.9715   27.3917    4.1020 O   0  0  0  0  0  0  0  0  0  0  0  0
    7.4613   28.7598    3.1159 O   0  0  0  0  0  0  0  0  0  0  0  0
    9.2561   26.9481    4.9666 H   0  0  0  0  0  0  0  0  0  0  0  0
    5.4536   27.6781    4.7712 C   0  0  0  0  0  0  0  0  0  0  0  0
    4.1483   27.0046    4.7898 C   0  0  0  0  0  0  0  0  0  0  0  0
    3.0548   27.4784    4.0506 O   0  0  0  0  0  0  0  0  0  0  0  0
    3.9153   25.9678    5.4588 O   0  0  0  0  0  0  0  0  0  0  0  0
    3.1010   27.6460    3.0601 H   0  0  0  0  0  0  0  0  0  0  0  0
    8.9320   23.0746    8.1695 C   0  0  0  0  0  0  0  0  0  0  0  0
    7.9808   24.0528    7.4928 C   0  0  0  0  0  0  0  0  0  0  0  0
    6.9193   24.3697    8.4978 C   0  0  0  0  0  0  0  0  0  0  0  0
   10.5780   20.6890    5.3922 C   0  0  0  0  0  0  0  0  0  0  0  0
   10.0910   19.2987    5.5126 C   0  0  0  0  0  0  0  0  0  0  0  0
   10.8696   18.2988    4.9565 O   0  0  0  0  0  0  0  0  0  0  0  0
    9.0273   18.9550    6.0792 O   0  0  0  0  0  0  0  0  0  0  0  0
   11.0173   17.4114    5.4110 H   0  0  0  0  0  0  0  0  0  0  0  0
    9.2802   21.9419   -0.7624 N   0  0  0  0  0  0  0  0  0  0  0  0
    8.6046   22.2007    0.4507 C   0  0  0  0  0  0  0  0  0  0  0  0
    9.0838   23.0668    1.2302 O   0  0  0  0  0  0  0  0  0  0  0  0
    8.8557   21.2663   -1.4284 H   0  0  0  0  0  0  0  0  0  0  0  0
    7.3622   21.5077    0.8778 C   0  0  0  0  0  0  0  0  0  0  0  0
    6.9987   20.4583   -0.0449 N   0  0  0  0  0  0  0  0  0  0  0  0
    5.9359   20.5747   -0.9671 C   0  0  0  0  0  0  0  0  0  0  0  0
    5.2877   21.6424   -0.9958 O   0  0  0  0  0  0  0  0  0  0  0  0
    7.5440   19.5770   -0.0243 H   0  0  0  0  0  0  0  0  0  0  0  0
    5.6006   19.4177   -1.9005 C   0  0  0  0  0  0  0  0  0  0  0  0
    5.0110   18.3650   -1.1852 N   0  0  0  0  0  0  0  0  0  0  0  0
    5.7392   17.3772   -0.4243 C   0  0  0  0  0  0  0  0  0  0  0  0
    5.0830   16.2868    0.3096 C   0  0  0  0  0  0  0  0  0  0  0  0
    6.9892   17.5150   -0.4331 O   0  0  0  0  0  0  0  0  0  0  0  0
    3.9647   18.2510   -1.1660 H   0  0  0  0  0  0  0  0  0  0  0  0
    5.0161   19.9162   -3.1562 C   0  0  0  0  0  0  0  0  0  0  0  0
    3.6041   19.5563   -3.4074 C   0  0  0  0  0  0  0  0  0  0  0  0
    2.5166   20.3527   -2.8045 C   0  0  0  0  0  0  0  0  0  0  0  0
    2.1032   19.7613   -1.5056 N   0  0  0  0  0  0  0  0  0  0  0  0
    2.0761   20.5031   -0.4701 C   0  0  0  0  0  0  0  0  0  0  0  0
    2.4310   21.8665   -0.5441 N   0  0  0  0  0  0  0  0  0  0  0  0
    1.6848   19.9534    0.7718 N   0  0  0  0  0  0  0  0  0  0  0  0
    3.4018   22.1983   -0.4695 H   0  0  0  0  0  0  0  0  0  0  0  0
    1.6749   22.5762   -0.6813 H   0  0  0  0  0  0  0  0  0  0  0  0
    0.7781   19.4672    0.8862 H   0  0  0  0  0  0  0  0  0  0  0  0
    2.3018   20.0248    1.6039 H   0  0  0  0  0  0  0  0  0  0  0  0
    7.3770   21.0051    2.2626 C   0  0  0  0  0  0  0  0  0  0  0  0
    6.0116   21.0047    2.8956 C   0  0  0  0  0  0  0  0  0  0  0  0
    5.3514   19.6516    2.6003 C   0  0  0  0  0  0  0  0  0  0  0  0
    5.3418   18.8048    3.7493 N   0  0  0  0  0  0  0  0  0  0  0  0
    4.3866   18.6403    4.5830 C   0  0  0  0  0  0  0  0  0  0  0  0
    4.5931   17.7430    5.6628 N   0  0  0  0  0  0  0  0  0  0  0  0
    3.1404   19.3025    4.4855 N   0  0  0  0  0  0  0  0  0  0  0  0
    3.8211   17.2163    6.1170 H   0  0  0  0  0  0  0  0  0  0  0  0
    5.5570   17.5692    6.0576 H   0  0  0  0  0  0  0  0  0  0  0  0
    2.4134   19.0228    3.7815 H   0  0  0  0  0  0  0  0  0  0  0  0
    2.9820   20.0944    5.1631 H   0  0  0  0  0  0  0  0  0  0  0  0
   10.7547   23.9366   -0.7371 C   0  0  0  0  0  0  0  0  0  0  0  0
   11.6260   24.8509   -1.5161 C   0  0  0  0  0  0  0  0  0  0  0  0
   13.0206   25.0769   -1.0894 C   0  0  0  0  0  0  0  0  0  0  0  0
   13.9794   24.9971   -2.3069 C   0  0  0  0  0  0  0  0  0  0  0  0
   14.0498   23.6119   -2.7195 N   0  0  0  0  0  0  0  0  0  0  0  0
   13.9777   22.9972   -1.8827 H   0  0  0  0  0  0  0  0  0  0  0  0
   14.9987   23.4454   -3.1315 H   0  0  0  0  0  0  0  0  0  0  0  0
 33 34  1  0  0  0
 34 35  1  0  0  0
 34 18  1  0  0  0
 18 14  1  0  0  0
 14 15  1  0  0  0
 15 16  2  0  0  0
 15 13  1  0  0  0
 13 36  1  0  0  0
 36 37  1  0  0  0
 37 38  1  0  0  0
 37 39  2  0  0  0
 13  9  1  0  0  0
  9 10  1  0  0  0
 10 11  2  0  0  0
 10  2  1  0  0  0
  2  3  1  0  0  0
  3  4  1  0  0  0
  4  5  1  0  0  0
  5  6  1  0  0  0
  6  7  1  0  0  0
  7  8  2  0  0  0
  7  1  1  0  0  0
  1 78  1  0  0  0
 78 79  1  0  0  0
 79 80  1  0  0  0
 80 81  1  0  0  0
 81 82  1  0  0  0
  1 41  1  0  0  0
 41 42  1  0  0  0
 42 43  2  0  0  0
 42 45  1  0  0  0
 45 67  1  0  0  0
 67 68  1  0  0  0
 68 69  1  0  0  0
 69 70  1  0  0  0
 70 71  2  0  0  0
 71 72  1  0  0  0
 71 73  1  0  0  0
 45 46  1  0  0  0
 46 47  1  0  0  0
 47 48  2  0  0  0
 47 50  1  0  0  0
 50 56  1  0  0  0
 56 57  1  0  0  0
 57 58  1  0  0  0
 58 59  1  0  0  0
 59 60  2  0  0  0
 60 61  1  0  0  0
 60 62  1  0  0  0
 50 51  1  0  0  0
 51 52  1  0  0  0
 52 53  1  0  0  0
 52 54  2  0  0  0
 18 19  1  0  0  0
 19 20  2  0  0  0
 19 21  1  0  0  0
 21 23  1  0  0  0
 23 28  1  0  0  0
 28 29  1  0  0  0
 29 30  1  0  0  0
 29 31  2  0  0  0
 23 24  1  0  0  0
 24 25  1  0  0  0
 24 26  2  0  0  0
  6  2  1  0  0  0
 14 17  1  0  0  0
 38 40  1  0  0  0
  9 12  1  0  0  0
 82 83  1  0  0  0
 82 84  1  0  0  0
 41 44  1  0  0  0
 72 74  1  0  0  0
 72 75  1  0  0  0
 73 76  1  0  0  0
 73 77  1  0  0  0
 46 49  1  0  0  0
 61 63  1  0  0  0
 61 64  1  0  0  0
 62 65  1  0  0  0
 62 66  1  0  0  0
 51 55  1  0  0  0
 21 22  1  0  0  0
 30 32  1  0  0  0
 25 27  1  0  0  0
M  END
> <minimizedAffinity>
-7.48629

> <CNNscore>
0.0818580166

> <CNNaffinity>
7.1811380386

> <CNN_VS>
0.5878337026

> <CNNaffinity_variance>
1.7938282490

$$$$
[H]OC(=O)C([H])([H])[C@@]([H])(C(=O)O[H])N([H])C(=O)[C@@]([H])(N([H])C(=O)[C@@]([H])(N([H])C(=O)[C@@]1([H])N(C(=O)[C@@]([H])(N([H])C(=O)[C@@]([H])(N([H])C(=O)[C@@]([H])(N([H])C(=O)C([H])([H])[H])C([H])([H])C([H])([H])C([H])([H])N=C(N([H])[H])N([H])[H])C([H])([H])C([H])([H])C([H])([H])N=C(N([H])[H])N([H])[H])C([H])([H])C([H])([H])C([H])([H])C([H])([H])N([H])[H])C([H])([H])C([H])([H])C1([H])[H])C([H])([H])C(=O)O[H])C([H])(C([H])([H])[H])C([H])([H])[H]


 84 84  0  0  0  0  0  0  0  0999 V2000
   11.1270   22.0244    2.7862 C   0  0  0  0  0  0  0  0  0  0  0  0
    9.8046   22.0621   -0.5709 C   0  0  0  0  0  0  0  0  0  0  0  0
   11.0592   21.9689   -1.3738 C   0  0  0  0  0  0  0  0  0  0  0  0
   11.4770   23.4734   -1.3366 C   0  0  0  0  0  0  0  0  0  0  0  0
   10.4890   24.1526   -0.3983 C   0  0  0  0  0  0  0  0  0  0  0  0
   10.2400   22.8957    0.4977 N   0  0  0  0  0  0  0  0  0  0  0  0
   10.6541   23.0008    1.7904 C   0  0  0  0  0  0  0  0  0  0  0  0
   10.6551   24.2216    2.2751 O   0  0  0  0  0  0  0  0  0  0  0  0
    7.4988   21.1118   -0.4153 N   0  0  0  0  0  0  0  0  0  0  0  0
    8.9187   20.9692   -0.4272 C   0  0  0  0  0  0  0  0  0  0  0  0
    9.3423   19.7680   -0.2979 O   0  0  0  0  0  0  0  0  0  0  0  0
    7.1083   22.0652   -0.5106 H   0  0  0  0  0  0  0  0  0  0  0  0
    6.6033   19.9953   -0.2792 C   0  0  0  0  0  0  0  0  0  0  0  0
    4.2010   19.3874   -0.7949 N   0  0  0  0  0  0  0  0  0  0  0  0
    5.2320   20.2890   -0.8702 C   0  0  0  0  0  0  0  0  0  0  0  0
    5.1523   21.4042   -1.4154 O   0  0  0  0  0  0  0  0  0  0  0  0
    4.4578   18.4461   -0.2988 H   0  0  0  0  0  0  0  0  0  0  0  0
    2.8275   19.3942   -1.2310 C   0  0  0  0  0  0  0  0  0  0  0  0
    1.9418   18.9125   -0.1961 C   0  0  0  0  0  0  0  0  0  0  0  0
    0.7022   19.2908   -0.3065 O   0  0  0  0  0  0  0  0  0  0  0  0
    2.1947   18.0905    0.9210 N   0  0  0  0  0  0  0  0  0  0  0  0
    3.1248   17.7058    1.0942 H   0  0  0  0  0  0  0  0  0  0  0  0
    1.1338   17.7367    1.8486 C   0  0  0  0  0  0  0  0  0  0  0  0
    1.5619   17.8984    3.2633 C   0  0  0  0  0  0  0  0  0  0  0  0
    2.9330   17.9019    3.4898 O   0  0  0  0  0  0  0  0  0  0  0  0
    0.7966   18.0265    4.2282 O   0  0  0  0  0  0  0  0  0  0  0  0
    3.6032   17.3562    2.9622 H   0  0  0  0  0  0  0  0  0  0  0  0
    0.6874   16.3174    1.6552 C   0  0  0  0  0  0  0  0  0  0  0  0
    1.7160   15.2972    1.8974 C   0  0  0  0  0  0  0  0  0  0  0  0
    3.0037   15.3927    1.3499 O   0  0  0  0  0  0  0  0  0  0  0  0
    1.5242   14.2766    2.6034 O   0  0  0  0  0  0  0  0  0  0  0  0
    3.5888   16.2006    1.4769 H   0  0  0  0  0  0  0  0  0  0  0  0
    3.1967   17.3757   -2.6925 C   0  0  0  0  0  0  0  0  0  0  0  0
    2.6044   18.7738   -2.5736 C   0  0  0  0  0  0  0  0  0  0  0  0
    3.1805   19.5712   -3.7004 C   0  0  0  0  0  0  0  0  0  0  0  0
    6.3618   19.6109    1.1584 C   0  0  0  0  0  0  0  0  0  0  0  0
    5.5701   20.5992    1.9207 C   0  0  0  0  0  0  0  0  0  0  0  0
    4.2694   20.2591    2.2491 O   0  0  0  0  0  0  0  0  0  0  0  0
    5.9853   21.7216    2.2926 O   0  0  0  0  0  0  0  0  0  0  0  0
    3.8639   20.4729    3.1467 H   0  0  0  0  0  0  0  0  0  0  0  0
   10.4518   22.1507    4.0691 N   0  0  0  0  0  0  0  0  0  0  0  0
    9.2427   21.5045    4.4094 C   0  0  0  0  0  0  0  0  0  0  0  0
    8.7246   20.7221    3.5688 O   0  0  0  0  0  0  0  0  0  0  0  0
   10.9058   22.7542    4.7831 H   0  0  0  0  0  0  0  0  0  0  0  0
    8.5295   21.6945    5.6984 C   0  0  0  0  0  0  0  0  0  0  0  0
    7.4655   22.6628    5.5757 N   0  0  0  0  0  0  0  0  0  0  0  0
    7.4425   23.8797    6.2912 C   0  0  0  0  0  0  0  0  0  0  0  0
    8.3956   24.1376    7.0568 O   0  0  0  0  0  0  0  0  0  0  0  0
    6.6805   22.4495    4.9333 H   0  0  0  0  0  0  0  0  0  0  0  0
    6.2769   24.8468    6.1217 C   0  0  0  0  0  0  0  0  0  0  0  0
    6.6844   25.9873    5.4140 N   0  0  0  0  0  0  0  0  0  0  0  0
    6.9863   26.0160    4.0023 C   0  0  0  0  0  0  0  0  0  0  0  0
    7.4135   27.2325    3.2983 C   0  0  0  0  0  0  0  0  0  0  0  0
    6.8577   24.9147    3.4089 O   0  0  0  0  0  0  0  0  0  0  0  0
    6.7838   26.9138    5.9037 H   0  0  0  0  0  0  0  0  0  0  0  0
    5.0469   24.1203    5.7666 C   0  0  0  0  0  0  0  0  0  0  0  0
    4.1662   23.7384    6.8913 C   0  0  0  0  0  0  0  0  0  0  0  0
    3.6024   22.3756    6.9629 C   0  0  0  0  0  0  0  0  0  0  0  0
    4.5148   21.4047    6.3051 N   0  0  0  0  0  0  0  0  0  0  0  0
    4.0212   20.3610    5.7660 C   0  0  0  0  0  0  0  0  0  0  0  0
    2.6312   20.1211    5.7872 N   0  0  0  0  0  0  0  0  0  0  0  0
    4.8778   19.4292    5.1370 N   0  0  0  0  0  0  0  0  0  0  0  0
    2.1539   19.6570    6.5713 H   0  0  0  0  0  0  0  0  0  0  0  0
    2.0555   20.4278    4.9695 H   0  0  0  0  0  0  0  0  0  0  0  0
    5.5313   19.7160    4.3873 H   0  0  0  0  0  0  0  0  0  0  0  0
    4.8714   18.4286    5.4143 H   0  0  0  0  0  0  0  0  0  0  0  0
    8.0391   20.4544    6.3247 C   0  0  0  0  0  0  0  0  0  0  0  0
    9.1451   19.6300    6.9262 C   0  0  0  0  0  0  0  0  0  0  0  0
    8.6210   19.0090    8.2275 C   0  0  0  0  0  0  0  0  0  0  0  0
    8.9510   17.6236    8.3239 N   0  0  0  0  0  0  0  0  0  0  0  0
    8.2011   16.6753    8.7396 C   0  0  0  0  0  0  0  0  0  0  0  0
    8.7360   15.3609    8.7522 N   0  0  0  0  0  0  0  0  0  0  0  0
    6.8722   16.8668    9.1851 N   0  0  0  0  0  0  0  0  0  0  0  0
    8.1495   14.5098    8.6458 H   0  0  0  0  0  0  0  0  0  0  0  0
    9.7709   15.1888    8.8722 H   0  0  0  0  0  0  0  0  0  0  0  0
    6.0796   17.0394    8.5186 H   0  0  0  0  0  0  0  0  0  0  0  0
    6.7222   16.8245   10.2278 H   0  0  0  0  0  0  0  0  0  0  0  0
   11.3795   20.6783    2.3013 C   0  0  0  0  0  0  0  0  0  0  0  0
   12.7159   20.2848    1.7904 C   0  0  0  0  0  0  0  0  0  0  0  0
   13.4761   21.2134    0.9313 C   0  0  0  0  0  0  0  0  0  0  0  0
   14.9170   20.6845    0.7038 C   0  0  0  0  0  0  0  0  0  0  0  0
   15.8212   21.5476    1.4327 N   0  0  0  0  0  0  0  0  0  0  0  0
   15.4558   22.5221    1.4194 H   0  0  0  0  0  0  0  0  0  0  0  0
   16.7351   21.5643    0.9205 H   0  0  0  0  0  0  0  0  0  0  0  0
 33 34  1  0  0  0
 34 35  1  0  0  0
 34 18  1  0  0  0
 18 14  1  0  0  0
 14 15  1  0  0  0
 15 16  2  0  0  0
 15 13  1  0  0  0
 13 36  1  0  0  0
 36 37  1  0  0  0
 37 38  1  0  0  0
 37 39  2  0  0  0
 13  9  1  0  0  0
  9 10  1  0  0  0
 10 11  2  0  0  0
 10  2  1  0  0  0
  2  3  1  0  0  0
  3  4  1  0  0  0
  4  5  1  0  0  0
  5  6  1  0  0  0
  6  7  1  0  0  0
  7  8  2  0  0  0
  7  1  1  0  0  0
  1 78  1  0  0  0
 78 79  1  0  0  0
 79 80  1  0  0  0
 80 81  1  0  0  0
 81 82  1  0  0  0
  1 41  1  0  0  0
 41 42  1  0  0  0
 42 43  2  0  0  0
 42 45  1  0  0  0
 45 67  1  0  0  0
 67 68  1  0  0  0
 68 69  1  0  0  0
 69 70  1  0  0  0
 70 71  2  0  0  0
 71 72  1  0  0  0
 71 73  1  0  0  0
 45 46  1  0  0  0
 46 47  1  0  0  0
 47 48  2  0  0  0
 47 50  1  0  0  0
 50 56  1  0  0  0
 56 57  1  0  0  0
 57 58  1  0  0  0
 58 59  1  0  0  0
 59 60  2  0  0  0
 60 61  1  0  0  0
 60 62  1  0  0  0
 50 51  1  0  0  0
 51 52  1  0  0  0
 52 53  1  0  0  0
 52 54  2  0  0  0
 18 19  1  0  0  0
 19 20  2  0  0  0
 19 21  1  0  0  0
 21 23  1  0  0  0
 23 28  1  0  0  0
 28 29  1  0  0  0
 29 30  1  0  0  0
 29 31  2  0  0  0
 23 24  1  0  0  0
 24 25  1  0  0  0
 24 26  2  0  0  0
  6  2  1  0  0  0
 14 17  1  0  0  0
 38 40  1  0  0  0
  9 12  1  0  0  0
 82 83  1  0  0  0
 82 84  1  0  0  0
 41 44  1  0  0  0
 72 74  1  0  0  0
 72 75  1  0  0  0
 73 76  1  0  0  0
 73 77  1  0  0  0
 46 49  1  0  0  0
 61 63  1  0  0  0
 61 64  1  0  0  0
 62 65  1  0  0  0
 62 66  1  0  0  0
 51 55  1  0  0  0
 21 22  1  0  0  0
 30 32  1  0  0  0
 25 27  1  0  0  0
M  END
> <minimizedAffinity>
-6.59066

> <CNNscore>
0.0789197087

> <CNNaffinity>
6.8450212479

> <CNN_VS>
0.5402070880

> <CNNaffinity_variance>
0.9799585342

$$$$
[H]OC(=O)C([H])([H])[C@@]([H])(C(=O)O[H])N([H])C(=O)[C@@]([H])(N([H])C(=O)[C@@]([H])(N([H])C(=O)[C@@]1([H])N(C(=O)[C@@]([H])(N([H])C(=O)[C@@]([H])(N([H])C(=O)[C@@]([H])(N([H])C(=O)C([H])([H])[H])C([H])([H])C([H])([H])C([H])([H])N=C(N([H])[H])N([H])[H])C([H])([H])C([H])([H])C([H])([H])N=C(N([H])[H])N([H])[H])C([H])([H])C([H])([H])C([H])([H])C([H])([H])N([H])[H])C([H])([H])C([H])([H])C1([H])[H])C([H])([H])C(=O)O[H])C([H])(C([H])([H])[H])C([H])([H])[H]


 84 84  0  0  0  0  0  0  0  0999 V2000
   10.9242   20.7797    0.9398 C   0  0  0  0  0  0  0  0  0  0  0  0
   10.8858   24.3871    1.0100 C   0  0  0  0  0  0  0  0  0  0  0  0
   11.2933   24.7050   -0.3902 C   0  0  0  0  0  0  0  0  0  0  0  0
   12.8388   24.5462   -0.2294 C   0  0  0  0  0  0  0  0  0  0  0  0
   13.0544   24.0172    1.1818 C   0  0  0  0  0  0  0  0  0  0  0  0
   11.6970   23.2455    1.2650 N   0  0  0  0  0  0  0  0  0  0  0  0
   11.7931   21.8909    1.3626 C   0  0  0  0  0  0  0  0  0  0  0  0
   12.8884   21.4526    1.9401 O   0  0  0  0  0  0  0  0  0  0  0  0
    9.2175   25.2013    2.6826 N   0  0  0  0  0  0  0  0  0  0  0  0
    9.5550   24.5438    1.4617 C   0  0  0  0  0  0  0  0  0  0  0  0
    8.5574   24.0998    0.7934 O   0  0  0  0  0  0  0  0  0  0  0  0
    9.9909   25.5721    3.2613 H   0  0  0  0  0  0  0  0  0  0  0  0
    7.8616   25.3664    3.1313 C   0  0  0  0  0  0  0  0  0  0  0  0
    6.3454   27.2124    3.9680 N   0  0  0  0  0  0  0  0  0  0  0  0
    7.6093   26.7626    3.6815 C   0  0  0  0  0  0  0  0  0  0  0  0
    8.6458   27.4327    3.8363 O   0  0  0  0  0  0  0  0  0  0  0  0
    5.5487   26.4950    3.7476 H   0  0  0  0  0  0  0  0  0  0  0  0
    5.8140   28.4408    4.5019 C   0  0  0  0  0  0  0  0  0  0  0  0
    5.0100   28.2019    5.6783 C   0  0  0  0  0  0  0  0  0  0  0  0
    4.1812   27.2032    5.5904 O   0  0  0  0  0  0  0  0  0  0  0  0
    4.9742   28.8711    6.9187 N   0  0  0  0  0  0  0  0  0  0  0  0
    5.6026   29.6516    7.1163 H   0  0  0  0  0  0  0  0  0  0  0  0
    4.0631   28.4543    7.9709 C   0  0  0  0  0  0  0  0  0  0  0  0
    3.5096   29.6175    8.7136 C   0  0  0  0  0  0  0  0  0  0  0  0
    2.2405   30.0369    8.3333 O   0  0  0  0  0  0  0  0  0  0  0  0
    4.0904   30.2215    9.6251 O   0  0  0  0  0  0  0  0  0  0  0  0
    1.8841   30.0012    7.3863 H   0  0  0  0  0  0  0  0  0  0  0  0
    4.7419   27.5505    8.9575 C   0  0  0  0  0  0  0  0  0  0  0  0
    6.1968   27.4267    8.7977 C   0  0  0  0  0  0  0  0  0  0  0  0
    7.0894   28.3518    9.3584 O   0  0  0  0  0  0  0  0  0  0  0  0
    6.7448   26.4963    8.1567 O   0  0  0  0  0  0  0  0  0  0  0  0
    7.0850   28.5859   10.3364 H   0  0  0  0  0  0  0  0  0  0  0  0
    4.1979   28.5883    2.5750 C   0  0  0  0  0  0  0  0  0  0  0  0
    5.1710   29.3279    3.4836 C   0  0  0  0  0  0  0  0  0  0  0  0
    6.1524   30.0081    2.5828 C   0  0  0  0  0  0  0  0  0  0  0  0
    7.4909   24.4114    4.2374 C   0  0  0  0  0  0  0  0  0  0  0  0
    8.5639   24.1954    5.2306 C   0  0  0  0  0  0  0  0  0  0  0  0
    8.4976   24.9171    6.4096 O   0  0  0  0  0  0  0  0  0  0  0  0
    9.5295   23.4093    5.0879 O   0  0  0  0  0  0  0  0  0  0  0  0
    8.7207   24.5128    7.3054 H   0  0  0  0  0  0  0  0  0  0  0  0
    9.5218   21.0040    1.2576 N   0  0  0  0  0  0  0  0  0  0  0  0
    8.9608   20.8891    2.5489 C   0  0  0  0  0  0  0  0  0  0  0  0
    9.7264   20.6201    3.5127 O   0  0  0  0  0  0  0  0  0  0  0  0
    8.8987   21.2781    0.4723 H   0  0  0  0  0  0  0  0  0  0  0  0
    7.5156   21.0555    2.8482 C   0  0  0  0  0  0  0  0  0  0  0  0
    6.6950   20.3136    1.9203 N   0  0  0  0  0  0  0  0  0  0  0  0
    6.1432   20.8823    0.7518 C   0  0  0  0  0  0  0  0  0  0  0  0
    6.3883   22.0815    0.5012 O   0  0  0  0  0  0  0  0  0  0  0  0
    6.5006   19.3166    2.1269 H   0  0  0  0  0  0  0  0  0  0  0  0
    5.2730   20.0402   -0.1734 C   0  0  0  0  0  0  0  0  0  0  0  0
    4.9761   20.7485   -1.3472 N   0  0  0  0  0  0  0  0  0  0  0  0
    3.6768   21.2837   -1.6794 C   0  0  0  0  0  0  0  0  0  0  0  0
    3.4062   22.0181   -2.9226 C   0  0  0  0  0  0  0  0  0  0  0  0
    2.7811   21.0754   -0.8216 O   0  0  0  0  0  0  0  0  0  0  0  0
    5.7244   20.9345   -2.0638 H   0  0  0  0  0  0  0  0  0  0  0  0
    5.7540   18.6496   -0.2155 C   0  0  0  0  0  0  0  0  0  0  0  0
    4.7795   17.6351   -0.6708 C   0  0  0  0  0  0  0  0  0  0  0  0
    3.9407   16.9185    0.3107 C   0  0  0  0  0  0  0  0  0  0  0  0
    4.6394   16.8296    1.6190 N   0  0  0  0  0  0  0  0  0  0  0  0
    4.7973   15.6860    2.1582 C   0  0  0  0  0  0  0  0  0  0  0  0
    4.3204   14.5156    1.5314 N   0  0  0  0  0  0  0  0  0  0  0  0
    5.4602   15.5870    3.4026 N   0  0  0  0  0  0  0  0  0  0  0  0
    3.3563   14.1739    1.6403 H   0  0  0  0  0  0  0  0  0  0  0  0
    4.9742   13.9668    0.9268 H   0  0  0  0  0  0  0  0  0  0  0  0
    6.4101   15.9741    3.5414 H   0  0  0  0  0  0  0  0  0  0  0  0
    5.0066   15.1208    4.2119 H   0  0  0  0  0  0  0  0  0  0  0  0
    7.1319   20.7586    4.2394 C   0  0  0  0  0  0  0  0  0  0  0  0
    5.8018   21.3539    4.6154 C   0  0  0  0  0  0  0  0  0  0  0  0
    4.8562   20.2053    4.9902 C   0  0  0  0  0  0  0  0  0  0  0  0
    3.5754   20.6853    5.3982 N   0  0  0  0  0  0  0  0  0  0  0  0
    2.9583   20.4191    6.4859 C   0  0  0  0  0  0  0  0  0  0  0  0
    1.6838   21.0092    6.6892 N   0  0  0  0  0  0  0  0  0  0  0  0
    3.4773   19.5715    7.4925 N   0  0  0  0  0  0  0  0  0  0  0  0
    1.3033   21.2244    7.6319 H   0  0  0  0  0  0  0  0  0  0  0  0
    1.0570   21.2592    5.8771 H   0  0  0  0  0  0  0  0  0  0  0  0
    4.2414   19.8805    8.1429 H   0  0  0  0  0  0  0  0  0  0  0  0
    3.0507   18.6094    7.5537 H   0  0  0  0  0  0  0  0  0  0  0  0
   11.2226   20.1812   -0.3500 C   0  0  0  0  0  0  0  0  0  0  0  0
   12.1215   20.8553   -1.3192 C   0  0  0  0  0  0  0  0  0  0  0  0
   13.4835   20.3329   -1.5434 C   0  0  0  0  0  0  0  0  0  0  0  0
   14.5412   21.3155   -0.9745 C   0  0  0  0  0  0  0  0  0  0  0  0
   15.0639   20.7391    0.2455 N   0  0  0  0  0  0  0  0  0  0  0  0
   14.3083   20.2138    0.7317 H   0  0  0  0  0  0  0  0  0  0  0  0
   15.3387   21.5247    0.8820 H   0  0  0  0  0  0  0  0  0  0  0  0
 33 34  1  0  0  0
 34 35  1  0  0  0
 34 18  1  0  0  0
 18 14  1  0  0  0
 14 15  1  0  0  0
 15 16  2  0  0  0
 15 13  1  0  0  0
 13 36  1  0  0  0
 36 37  1  0  0  0
 37 38  1  0  0  0
 37 39  2  0  0  0
 13  9  1  0  0  0
  9 10  1  0  0  0
 10 11  2  0  0  0
 10  2  1  0  0  0
  2  3  1  0  0  0
  3  4  1  0  0  0
  4  5  1  0  0  0
  5  6  1  0  0  0
  6  7  1  0  0  0
  7  8  2  0  0  0
  7  1  1  0  0  0
  1 78  1  0  0  0
 78 79  1  0  0  0
 79 80  1  0  0  0
 80 81  1  0  0  0
 81 82  1  0  0  0
  1 41  1  0  0  0
 41 42  1  0  0  0
 42 43  2  0  0  0
 42 45  1  0  0  0
 45 67  1  0  0  0
 67 68  1  0  0  0
 68 69  1  0  0  0
 69 70  1  0  0  0
 70 71  2  0  0  0
 71 72  1  0  0  0
 71 73  1  0  0  0
 45 46  1  0  0  0
 46 47  1  0  0  0
 47 48  2  0  0  0
 47 50  1  0  0  0
 50 56  1  0  0  0
 56 57  1  0  0  0
 57 58  1  0  0  0
 58 59  1  0  0  0
 59 60  2  0  0  0
 60 61  1  0  0  0
 60 62  1  0  0  0
 50 51  1  0  0  0
 51 52  1  0  0  0
 52 53  1  0  0  0
 52 54  2  0  0  0
 18 19  1  0  0  0
 19 20  2  0  0  0
 19 21  1  0  0  0
 21 23  1  0  0  0
 23 28  1  0  0  0
 28 29  1  0  0  0
 29 30  1  0  0  0
 29 31  2  0  0  0
 23 24  1  0  0  0
 24 25  1  0  0  0
 24 26  2  0  0  0
  6  2  1  0  0  0
 14 17  1  0  0  0
 38 40  1  0  0  0
  9 12  1  0  0  0
 82 83  1  0  0  0
 82 84  1  0  0  0
 41 44  1  0  0  0
 72 74  1  0  0  0
 72 75  1  0  0  0
 73 76  1  0  0  0
 73 77  1  0  0  0
 46 49  1  0  0  0
 61 63  1  0  0  0
 61 64  1  0  0  0
 62 65  1  0  0  0
 62 66  1  0  0  0
 51 55  1  0  0  0
 21 22  1  0  0  0
 30 32  1  0  0  0
 25 27  1  0  0  0
M  END
> <minimizedAffinity>
-6.57899

> <CNNscore>
0.0718816891

> <CNNaffinity>
6.8072752953

> <CNN_VS>
0.4893184602

> <CNNaffinity_variance>
0.3364732265

$$$$
[H]OC(=O)C([H])([H])[C@@]([H])(C(=O)O[H])N([H])C(=O)[C@@]([H])(N([H])C(=O)[C@@]([H])(N([H])C(=O)[C@@]1([H])N(C(=O)[C@@]([H])(N([H])C(=O)[C@@]([H])(N([H])C(=O)[C@@]([H])(N([H])C(=O)C([H])([H])[H])C([H])([H])C([H])([H])C([H])([H])N=C(N([H])[H])N([H])[H])C([H])([H])C([H])([H])C([H])([H])N=C(N([H])[H])N([H])[H])C([H])([H])C([H])([H])C([H])([H])C([H])([H])N([H])[H])C([H])([H])C([H])([H])C1([H])[H])C([H])([H])C(=O)O[H])C([H])(C([H])([H])[H])C([H])([H])[H]


 84 84  0  0  0  0  0  0  0  0999 V2000
   11.2097   20.7516    1.1259 C   0  0  0  0  0  0  0  0  0  0  0  0
   10.9810   24.3507    1.0066 C   0  0  0  0  0  0  0  0  0  0  0  0
   11.1465   24.5996   -0.4557 C   0  0  0  0  0  0  0  0  0  0  0  0
   12.7045   24.5235   -0.5346 C   0  0  0  0  0  0  0  0  0  0  0  0
   13.1670   24.0938    0.8508 C   0  0  0  0  0  0  0  0  0  0  0  0
   11.8847   23.2662    1.1904 N   0  0  0  0  0  0  0  0  0  0  0  0
   12.0704   21.9263    1.3444 C   0  0  0  0  0  0  0  0  0  0  0  0
   13.2653   21.5764    1.7631 O   0  0  0  0  0  0  0  0  0  0  0  0
    9.5978   24.7571    3.0475 N   0  0  0  0  0  0  0  0  0  0  0  0
    9.7304   24.4728    1.6552 C   0  0  0  0  0  0  0  0  0  0  0  0
    8.6251   24.3343    1.0243 O   0  0  0  0  0  0  0  0  0  0  0  0
   10.4639   24.8714    3.6017 H   0  0  0  0  0  0  0  0  0  0  0  0
    8.3230   24.8902    3.6990 C   0  0  0  0  0  0  0  0  0  0  0  0
    6.8062   26.9088    3.5235 N   0  0  0  0  0  0  0  0  0  0  0  0
    7.9727   26.3453    3.9743 C   0  0  0  0  0  0  0  0  0  0  0  0
    8.8374   26.9506    4.6326 O   0  0  0  0  0  0  0  0  0  0  0  0
    6.1729   26.2333    2.9399 H   0  0  0  0  0  0  0  0  0  0  0  0
    6.2110   28.2158    3.6426 C   0  0  0  0  0  0  0  0  0  0  0  0
    5.4410   28.3373    4.8591 C   0  0  0  0  0  0  0  0  0  0  0  0
    5.2502   29.5548    5.2755 O   0  0  0  0  0  0  0  0  0  0  0  0
    4.8520   27.3512    5.6766 N   0  0  0  0  0  0  0  0  0  0  0  0
    4.9079   26.3608    5.4333 H   0  0  0  0  0  0  0  0  0  0  0  0
    4.1186   27.7115    6.8779 C   0  0  0  0  0  0  0  0  0  0  0  0
    4.9324   27.5014    8.1044 C   0  0  0  0  0  0  0  0  0  0  0  0
    4.6900   28.3776    9.1555 O   0  0  0  0  0  0  0  0  0  0  0  0
    5.7901   26.6199    8.2471 O   0  0  0  0  0  0  0  0  0  0  0  0
    4.4366   29.3516    9.0438 H   0  0  0  0  0  0  0  0  0  0  0  0
    2.8576   26.9096    7.0113 C   0  0  0  0  0  0  0  0  0  0  0  0
    2.5429   26.0400    5.8701 C   0  0  0  0  0  0  0  0  0  0  0  0
    3.0391   24.7320    5.7709 O   0  0  0  0  0  0  0  0  0  0  0  0
    1.8156   26.3957    4.9102 O   0  0  0  0  0  0  0  0  0  0  0  0
    2.9119   24.0469    6.4959 H   0  0  0  0  0  0  0  0  0  0  0  0
    5.8132   30.1309    2.0549 C   0  0  0  0  0  0  0  0  0  0  0  0
    5.5008   28.6837    2.4122 C   0  0  0  0  0  0  0  0  0  0  0  0
    4.0115   28.5879    2.5124 C   0  0  0  0  0  0  0  0  0  0  0  0
    8.2725   24.1915    5.0339 C   0  0  0  0  0  0  0  0  0  0  0  0
    6.9117   24.0682    5.5974 C   0  0  0  0  0  0  0  0  0  0  0  0
    6.7557   24.3154    6.9501 O   0  0  0  0  0  0  0  0  0  0  0  0
    5.8878   23.7568    4.9452 O   0  0  0  0  0  0  0  0  0  0  0  0
    5.9689   24.8249    7.3204 H   0  0  0  0  0  0  0  0  0  0  0  0
    9.8749   20.9154    1.6822 N   0  0  0  0  0  0  0  0  0  0  0  0
    9.5733   20.9227    3.0621 C   0  0  0  0  0  0  0  0  0  0  0  0
   10.5241   20.8291    3.8834 O   0  0  0  0  0  0  0  0  0  0  0  0
    9.0958   21.0460    1.0069 H   0  0  0  0  0  0  0  0  0  0  0  0
    8.1984   21.0239    3.6148 C   0  0  0  0  0  0  0  0  0  0  0  0
    7.2442   20.3216    2.7897 N   0  0  0  0  0  0  0  0  0  0  0  0
    6.3980   20.9706    1.8644 C   0  0  0  0  0  0  0  0  0  0  0  0
    6.4891   22.2108    1.7436 O   0  0  0  0  0  0  0  0  0  0  0  0
    7.1771   19.2917    2.8863 H   0  0  0  0  0  0  0  0  0  0  0  0
    5.4037   20.1640    1.0380 C   0  0  0  0  0  0  0  0  0  0  0  0
    4.3910   20.9963    0.5388 N   0  0  0  0  0  0  0  0  0  0  0  0
    2.9778   20.7100    0.6149 C   0  0  0  0  0  0  0  0  0  0  0  0
    1.9476   21.6080    0.0761 C   0  0  0  0  0  0  0  0  0  0  0  0
    2.6851   19.6255    1.1803 O   0  0  0  0  0  0  0  0  0  0  0  0
    4.6299   21.9100    0.0738 H   0  0  0  0  0  0  0  0  0  0  0  0
    6.1069   19.2041    0.1712 C   0  0  0  0  0  0  0  0  0  0  0  0
    5.3702   17.9671   -0.1656 C   0  0  0  0  0  0  0  0  0  0  0  0
    5.9241   16.6493    0.2044 C   0  0  0  0  0  0  0  0  0  0  0  0
    5.9999   16.5181    1.6825 N   0  0  0  0  0  0  0  0  0  0  0  0
    5.3266   15.6012    2.2564 C   0  0  0  0  0  0  0  0  0  0  0  0
    4.5185   14.7183    1.5097 N   0  0  0  0  0  0  0  0  0  0  0  0
    5.3895   15.4653    3.6618 N   0  0  0  0  0  0  0  0  0  0  0  0
    3.5501   14.9364    1.2399 H   0  0  0  0  0  0  0  0  0  0  0  0
    4.9188   13.7981    1.2145 H   0  0  0  0  0  0  0  0  0  0  0  0
    6.2926   15.3475    4.1537 H   0  0  0  0  0  0  0  0  0  0  0  0
    4.5255   15.4808    4.2375 H   0  0  0  0  0  0  0  0  0  0  0  0
    8.0660   20.6218    5.0260 C   0  0  0  0  0  0  0  0  0  0  0  0
    6.6435   20.3197    5.4135 C   0  0  0  0  0  0  0  0  0  0  0  0
    6.5160   20.5002    6.9318 C   0  0  0  0  0  0  0  0  0  0  0  0
    5.2009   20.1924    7.3933 N   0  0  0  0  0  0  0  0  0  0  0  0
    4.2041   20.9882    7.4806 C   0  0  0  0  0  0  0  0  0  0  0  0
    2.9782   20.4677    7.9709 N   0  0  0  0  0  0  0  0  0  0  0  0
    4.2588   22.3537    7.1153 N   0  0  0  0  0  0  0  0  0  0  0  0
    2.0512   20.8481    7.6959 H   0  0  0  0  0  0  0  0  0  0  0  0
    2.9556   19.6576    8.6478 H   0  0  0  0  0  0  0  0  0  0  0  0
    4.2640   22.6632    6.1121 H   0  0  0  0  0  0  0  0  0  0  0  0
    4.2927   23.0452    7.9103 H   0  0  0  0  0  0  0  0  0  0  0  0
   11.3106   20.1098   -0.1736 C   0  0  0  0  0  0  0  0  0  0  0  0
   12.0914   20.7256   -1.2750 C   0  0  0  0  0  0  0  0  0  0  0  0
   13.4613   20.2540   -1.5565 C   0  0  0  0  0  0  0  0  0  0  0  0
   14.4816   21.4070   -1.3633 C   0  0  0  0  0  0  0  0  0  0  0  0
   15.2714   21.1016   -0.1899 N   0  0  0  0  0  0  0  0  0  0  0  0
   14.6775   20.6091    0.5087 H   0  0  0  0  0  0  0  0  0  0  0  0
   15.5605   22.0078    0.2497 H   0  0  0  0  0  0  0  0  0  0  0  0
 33 34  1  0  0  0
 34 35  1  0  0  0
 34 18  1  0  0  0
 18 14  1  0  0  0
 14 15  1  0  0  0
 15 16  2  0  0  0
 15 13  1  0  0  0
 13 36  1  0  0  0
 36 37  1  0  0  0
 37 38  1  0  0  0
 37 39  2  0  0  0
 13  9  1  0  0  0
  9 10  1  0  0  0
 10 11  2  0  0  0
 10  2  1  0  0  0
  2  3  1  0  0  0
  3  4  1  0  0  0
  4  5  1  0  0  0
  5  6  1  0  0  0
  6  7  1  0  0  0
  7  8  2  0  0  0
  7  1  1  0  0  0
  1 78  1  0  0  0
 78 79  1  0  0  0
 79 80  1  0  0  0
 80 81  1  0  0  0
 81 82  1  0  0  0
  1 41  1  0  0  0
 41 42  1  0  0  0
 42 43  2  0  0  0
 42 45  1  0  0  0
 45 67  1  0  0  0
 67 68  1  0  0  0
 68 69  1  0  0  0
 69 70  1  0  0  0
 70 71  2  0  0  0
 71 72  1  0  0  0
 71 73  1  0  0  0
 45 46  1  0  0  0
 46 47  1  0  0  0
 47 48  2  0  0  0
 47 50  1  0  0  0
 50 56  1  0  0  0
 56 57  1  0  0  0
 57 58  1  0  0  0
 58 59  1  0  0  0
 59 60  2  0  0  0
 60 61  1  0  0  0
 60 62  1  0  0  0
 50 51  1  0  0  0
 51 52  1  0  0  0
 52 53  1  0  0  0
 52 54  2  0  0  0
 18 19  1  0  0  0
 19 20  2  0  0  0
 19 21  1  0  0  0
 21 23  1  0  0  0
 23 28  1  0  0  0
 28 29  1  0  0  0
 29 30  1  0  0  0
 29 31  2  0  0  0
 23 24  1  0  0  0
 24 25  1  0  0  0
 24 26  2  0  0  0
  6  2  1  0  0  0
 14 17  1  0  0  0
 38 40  1  0  0  0
  9 12  1  0  0  0
 82 83  1  0  0  0
 82 84  1  0  0  0
 41 44  1  0  0  0
 72 74  1  0  0  0
 72 75  1  0  0  0
 73 76  1  0  0  0
 73 77  1  0  0  0
 46 49  1  0  0  0
 61 63  1  0  0  0
 61 64  1  0  0  0
 62 65  1  0  0  0
 62 66  1  0  0  0
 51 55  1  0  0  0
 21 22  1  0  0  0
 30 32  1  0  0  0
 25 27  1  0  0  0
M  END
> <minimizedAffinity>
-6.30145

> <CNNscore>
0.0617561303

> <CNNaffinity>
6.7815589905

> <CNN_VS>
0.4188028276

> <CNNaffinity_variance>
0.5546008348

$$$$
[H]OC(=O)C([H])([H])[C@@]([H])(C(=O)O[H])N([H])C(=O)[C@@]([H])(N([H])C(=O)[C@@]([H])(N([H])C(=O)[C@@]1([H])N(C(=O)[C@@]([H])(N([H])C(=O)[C@@]([H])(N([H])C(=O)[C@@]([H])(N([H])C(=O)C([H])([H])[H])C([H])([H])C([H])([H])C([H])([H])N=C(N([H])[H])N([H])[H])C([H])([H])C([H])([H])C([H])([H])N=C(N([H])[H])N([H])[H])C([H])([H])C([H])([H])C([H])([H])C([H])([H])N([H])[H])C([H])([H])C([H])([H])C1([H])[H])C([H])([H])C(=O)O[H])C([H])(C([H])([H])[H])C([H])([H])[H]


 84 84  0  0  0  0  0  0  0  0999 V2000
    9.0113   21.8818    1.9217 C   0  0  0  0  0  0  0  0  0  0  0  0
    9.2390   20.4492    5.2256 C   0  0  0  0  0  0  0  0  0  0  0  0
    9.8792   21.5674    5.9789 C   0  0  0  0  0  0  0  0  0  0  0  0
   11.3650   21.3055    5.5751 C   0  0  0  0  0  0  0  0  0  0  0  0
   11.3209   20.1871    4.5430 C   0  0  0  0  0  0  0  0  0  0  0  0
    9.9118   20.5578    3.9758 N   0  0  0  0  0  0  0  0  0  0  0  0
    9.8877   20.9728    2.6793 C   0  0  0  0  0  0  0  0  0  0  0  0
   10.8449   20.4856    1.9232 O   0  0  0  0  0  0  0  0  0  0  0  0
    6.9701   20.8928    6.1737 N   0  0  0  0  0  0  0  0  0  0  0  0
    7.8706   20.1254    5.3757 C   0  0  0  0  0  0  0  0  0  0  0  0
    7.3486   19.1102    4.7963 O   0  0  0  0  0  0  0  0  0  0  0  0
    7.3471   21.7202    6.6673 H   0  0  0  0  0  0  0  0  0  0  0  0
    5.5774   20.5641    6.3139 C   0  0  0  0  0  0  0  0  0  0  0  0
    4.8743   22.8832    7.0443 N   0  0  0  0  0  0  0  0  0  0  0  0
    4.6893   21.7968    6.2276 C   0  0  0  0  0  0  0  0  0  0  0  0
    3.8010   21.7120    5.3610 O   0  0  0  0  0  0  0  0  0  0  0  0
    5.6909   22.7742    7.7650 H   0  0  0  0  0  0  0  0  0  0  0  0
    4.2242   24.1626    7.1760 C   0  0  0  0  0  0  0  0  0  0  0  0
    4.4295   24.9830    6.0045 C   0  0  0  0  0  0  0  0  0  0  0  0
    3.3780   25.1590    5.2593 O   0  0  0  0  0  0  0  0  0  0  0  0
    5.5860   25.6350    5.5300 N   0  0  0  0  0  0  0  0  0  0  0  0
    6.4651   25.5953    6.0485 H   0  0  0  0  0  0  0  0  0  0  0  0
    5.5600   26.4116    4.3025 C   0  0  0  0  0  0  0  0  0  0  0  0
    6.8703   26.3770    3.6004 C   0  0  0  0  0  0  0  0  0  0  0  0
    7.9985   26.4062    4.4113 O   0  0  0  0  0  0  0  0  0  0  0  0
    7.0184   26.3253    2.3722 O   0  0  0  0  0  0  0  0  0  0  0  0
    8.0629   26.9107    5.2868 H   0  0  0  0  0  0  0  0  0  0  0  0
    5.2109   27.8463    4.5688 C   0  0  0  0  0  0  0  0  0  0  0  0
    4.6965   28.5922    3.4127 C   0  0  0  0  0  0  0  0  0  0  0  0
    3.6251   28.1222    2.6393 O   0  0  0  0  0  0  0  0  0  0  0  0
    5.1694   29.6922    3.0341 O   0  0  0  0  0  0  0  0  0  0  0  0
    2.7368   27.8712    3.0384 H   0  0  0  0  0  0  0  0  0  0  0  0
    4.0613   26.3199    8.4667 C   0  0  0  0  0  0  0  0  0  0  0  0
    4.4912   24.8588    8.4726 C   0  0  0  0  0  0  0  0  0  0  0  0
    5.9336   24.8469    8.8681 C   0  0  0  0  0  0  0  0  0  0  0  0
    5.2597   19.9157    7.6374 C   0  0  0  0  0  0  0  0  0  0  0  0
    6.2665   20.1701    8.6892 C   0  0  0  0  0  0  0  0  0  0  0  0
    7.2329   19.2013    8.8959 O   0  0  0  0  0  0  0  0  0  0  0  0
    6.3128   21.1952    9.4087 O   0  0  0  0  0  0  0  0  0  0  0  0
    8.1987   19.4288    9.0731 H   0  0  0  0  0  0  0  0  0  0  0  0
    7.7743   21.2480    1.4903 N   0  0  0  0  0  0  0  0  0  0  0  0
    6.5278   21.3909    2.1392 C   0  0  0  0  0  0  0  0  0  0  0  0
    6.4564   22.1568    3.1370 O   0  0  0  0  0  0  0  0  0  0  0  0
    7.8202   20.6581    0.6359 H   0  0  0  0  0  0  0  0  0  0  0  0
    5.2873   20.6855    1.7273 C   0  0  0  0  0  0  0  0  0  0  0  0
    5.4626   19.9997    0.4689 N   0  0  0  0  0  0  0  0  0  0  0  0
    5.2491   20.6165   -0.7831 C   0  0  0  0  0  0  0  0  0  0  0  0
    4.9057   21.8175   -0.8035 O   0  0  0  0  0  0  0  0  0  0  0  0
    5.7558   19.0057    0.4892 H   0  0  0  0  0  0  0  0  0  0  0  0
    5.4392   19.8237   -2.0707 C   0  0  0  0  0  0  0  0  0  0  0  0
    5.7092   18.4776   -1.7830 N   0  0  0  0  0  0  0  0  0  0  0  0
    6.9162   17.9964   -1.1533 C   0  0  0  0  0  0  0  0  0  0  0  0
    7.1621   16.5757   -0.8718 C   0  0  0  0  0  0  0  0  0  0  0  0
    7.7537   18.8873   -0.8592 O   0  0  0  0  0  0  0  0  0  0  0  0
    5.0074   17.7290   -2.0178 H   0  0  0  0  0  0  0  0  0  0  0  0
    4.4305   20.2086   -3.0712 C   0  0  0  0  0  0  0  0  0  0  0  0
    3.5426   19.1286   -3.5524 C   0  0  0  0  0  0  0  0  0  0  0  0
    2.2665   18.8539   -2.8621 C   0  0  0  0  0  0  0  0  0  0  0  0
    1.8054   20.0620   -2.1303 N   0  0  0  0  0  0  0  0  0  0  0  0
    1.6900   20.0095   -0.8625 C   0  0  0  0  0  0  0  0  0  0  0  0
    1.9929   18.8276   -0.1542 N   0  0  0  0  0  0  0  0  0  0  0  0
    1.2524   21.1514   -0.1539 N   0  0  0  0  0  0  0  0  0  0  0  0
    1.3134   18.0684   -0.0131 H   0  0  0  0  0  0  0  0  0  0  0  0
    2.9519   18.7140    0.2477 H   0  0  0  0  0  0  0  0  0  0  0  0
    1.7365   22.0619   -0.2438 H   0  0  0  0  0  0  0  0  0  0  0  0
    0.4294   21.1033    0.4774 H   0  0  0  0  0  0  0  0  0  0  0  0
    4.7224   19.7798    2.7427 C   0  0  0  0  0  0  0  0  0  0  0  0
    4.7443   18.3379    2.3123 C   0  0  0  0  0  0  0  0  0  0  0  0
    4.0304   17.5099    3.3888 C   0  0  0  0  0  0  0  0  0  0  0  0
    4.9511   16.7433    4.1647 N   0  0  0  0  0  0  0  0  0  0  0  0
    4.8752   16.4710    5.4116 C   0  0  0  0  0  0  0  0  0  0  0  0
    5.9094   15.6868    5.9855 N   0  0  0  0  0  0  0  0  0  0  0  0
    3.8192   16.9083    6.2450 N   0  0  0  0  0  0  0  0  0  0  0  0
    5.7608   15.0663    6.8056 H   0  0  0  0  0  0  0  0  0  0  0  0
    6.8910   15.7005    5.5966 H   0  0  0  0  0  0  0  0  0  0  0  0
    2.8659   16.4695    6.2144 H   0  0  0  0  0  0  0  0  0  0  0  0
    4.0449   17.7014    6.9018 H   0  0  0  0  0  0  0  0  0  0  0  0
    8.9196   23.2469    2.4105 C   0  0  0  0  0  0  0  0  0  0  0  0
    9.8089   24.3117    1.8842 C   0  0  0  0  0  0  0  0  0  0  0  0
   11.0742   23.9483    1.2169 C   0  0  0  0  0  0  0  0  0  0  0  0
   11.0791   24.4567   -0.2491 C   0  0  0  0  0  0  0  0  0  0  0  0
   10.1410   23.6478   -0.9970 N   0  0  0  0  0  0  0  0  0  0  0  0
   10.1492   22.6755   -0.6256 H   0  0  0  0  0  0  0  0  0  0  0  0
   10.4799   23.5922   -1.9870 H   0  0  0  0  0  0  0  0  0  0  0  0
 33 34  1  0  0  0
 34 35  1  0  0  0
 34 18  1  0  0  0
 18 14  1  0  0  0
 14 15  1  0  0  0
 15 16  2  0  0  0
 15 13  1  0  0  0
 13 36  1  0  0  0
 36 37  1  0  0  0
 37 38  1  0  0  0
 37 39  2  0  0  0
 13  9  1  0  0  0
  9 10  1  0  0  0
 10 11  2  0  0  0
 10  2  1  0  0  0
  2  3  1  0  0  0
  3  4  1  0  0  0
  4  5  1  0  0  0
  5  6  1  0  0  0
  6  7  1  0  0  0
  7  8  2  0  0  0
  7  1  1  0  0  0
  1 78  1  0  0  0
 78 79  1  0  0  0
 79 80  1  0  0  0
 80 81  1  0  0  0
 81 82  1  0  0  0
  1 41  1  0  0  0
 41 42  1  0  0  0
 42 43  2  0  0  0
 42 45  1  0  0  0
 45 67  1  0  0  0
 67 68  1  0  0  0
 68 69  1  0  0  0
 69 70  1  0  0  0
 70 71  2  0  0  0
 71 72  1  0  0  0
 71 73  1  0  0  0
 45 46  1  0  0  0
 46 47  1  0  0  0
 47 48  2  0  0  0
 47 50  1  0  0  0
 50 56  1  0  0  0
 56 57  1  0  0  0
 57 58  1  0  0  0
 58 59  1  0  0  0
 59 60  2  0  0  0
 60 61  1  0  0  0
 60 62  1  0  0  0
 50 51  1  0  0  0
 51 52  1  0  0  0
 52 53  1  0  0  0
 52 54  2  0  0  0
 18 19  1  0  0  0
 19 20  2  0  0  0
 19 21  1  0  0  0
 21 23  1  0  0  0
 23 28  1  0  0  0
 28 29  1  0  0  0
 29 30  1  0  0  0
 29 31  2  0  0  0
 23 24  1  0  0  0
 24 25  1  0  0  0
 24 26  2  0  0  0
  6  2  1  0  0  0
 14 17  1  0  0  0
 38 40  1  0  0  0
  9 12  1  0  0  0
 82 83  1  0  0  0
 82 84  1  0  0  0
 41 44  1  0  0  0
 72 74  1  0  0  0
 72 75  1  0  0  0
 73 76  1  0  0  0
 73 77  1  0  0  0
 46 49  1  0  0  0
 61 63  1  0  0  0
 61 64  1  0  0  0
 62 65  1  0  0  0
 62 66  1  0  0  0
 51 55  1  0  0  0
 21 22  1  0  0  0
 30 32  1  0  0  0
 25 27  1  0  0  0
M  END
> <minimizedAffinity>
-6.49745

> <CNNscore>
0.0522759035

> <CNNaffinity>
6.2609434128

> <CNN_VS>
0.3272964656

> <CNNaffinity_variance>
2.0245070457

$$$$
[H]O[C@@](C(=O)N(OC([H])([H])[H])C(=O)c1c([H])c([H])c2oc3c([H])c([H])c([H])c([H])c3c2c1[H])(C([H])([H])[H])C([H])([H])N1C([H])([H])C([H])([H])N(C([H])([H])[H])C([H])([H])C([H])([H])[C@@]1([H])C([H])([H])[H]


 34 37  0  0  0  0  0  0  0  0999 V2000
   15.0416   22.7864   -0.6736 N   0  0  0  0  0  0  0  0  0  0  0  0
   15.4146   24.1165   -0.5399 C   0  0  0  0  0  0  0  0  0  0  0  0
   15.3940   24.5764    0.6871 O   0  0  0  0  0  0  0  0  0  0  0  0
   14.4465   22.1220    0.4107 C   0  0  0  0  0  0  0  0  0  0  0  0
   14.4150   22.6814    1.5594 O   0  0  0  0  0  0  0  0  0  0  0  0
   15.8201   25.0882   -1.5300 C   0  0  0  0  0  0  0  0  0  0  0  0
   16.4780   26.2478   -1.2465 C   0  0  0  0  0  0  0  0  0  0  0  0
   16.8462   27.1732   -2.2346 C   0  0  0  0  0  0  0  0  0  0  0  0
   16.5545   26.9444   -3.5566 C   0  0  0  0  0  0  0  0  0  0  0  0
   15.8925   25.7823   -3.8671 C   0  0  0  0  0  0  0  0  0  0  0  0
   15.5359   24.8831   -2.8894 C   0  0  0  0  0  0  0  0  0  0  0  0
   15.7461   25.8334   -5.2390 C   0  0  0  0  0  0  0  0  0  0  0  0
   15.1693   24.9670   -6.1425 C   0  0  0  0  0  0  0  0  0  0  0  0
   15.1592   25.2684   -7.5099 C   0  0  0  0  0  0  0  0  0  0  0  0
   15.7190   26.4257   -7.9861 C   0  0  0  0  0  0  0  0  0  0  0  0
   16.2964   27.2940   -7.0839 C   0  0  0  0  0  0  0  0  0  0  0  0
   16.3023   26.9852   -5.7216 C   0  0  0  0  0  0  0  0  0  0  0  0
   16.7817   27.6330   -4.6720 O   0  0  0  0  0  0  0  0  0  0  0  0
   13.8030   20.7738    0.3913 C   0  0  0  0  0  0  0  0  0  0  0  0
   13.7969   20.3477   -1.0509 C   0  0  0  0  0  0  0  0  0  0  0  0
   14.6440   19.8950    1.0761 O   0  0  0  0  0  0  0  0  0  0  0  0
   15.3970   19.6941    0.4410 H   0  0  0  0  0  0  0  0  0  0  0  0
   12.4679   20.9046    1.0506 C   0  0  0  0  0  0  0  0  0  0  0  0
   11.6578   21.9924    0.7301 N   0  0  0  0  0  0  0  0  0  0  0  0
   10.4740   21.6202   -0.0540 C   0  0  0  0  0  0  0  0  0  0  0  0
   10.2202   20.1592   -0.1259 C   0  0  0  0  0  0  0  0  0  0  0  0
   10.7190   22.2266   -1.4351 C   0  0  0  0  0  0  0  0  0  0  0  0
   10.8137   23.7251   -1.3462 C   0  0  0  0  0  0  0  0  0  0  0  0
   11.6414   24.2152   -0.2829 N   0  0  0  0  0  0  0  0  0  0  0  0
   12.1567   25.5318   -0.5803 C   0  0  0  0  0  0  0  0  0  0  0  0
   11.0103   24.2551    1.0040 C   0  0  0  0  0  0  0  0  0  0  0  0
   11.1985   22.8981    1.7104 C   0  0  0  0  0  0  0  0  0  0  0  0
   14.0852   22.6438   -2.6477 C   0  0  0  0  0  0  0  0  0  0  0  0
   15.1310   22.1278   -1.8368 O   0  0  0  0  0  0  0  0  0  0  0  0
 33 34  1  0  0  0
 34  1  1  0  0  0
  1  2  1  0  0  0
  2  3  2  0  0  0
  2  6  1  0  0  0
  6  7  2  0  0  0
  7  8  1  0  0  0
  8  9  2  0  0  0
  9 10  1  0  0  0
 10 11  2  0  0  0
 10 12  1  0  0  0
 12 13  2  0  0  0
 13 14  1  0  0  0
 14 15  2  0  0  0
 15 16  1  0  0  0
 16 17  2  0  0  0
 17 18  1  0  0  0
  1  4  1  0  0  0
  4  5  2  0  0  0
  4 19  1  0  0  0
 19 20  1  0  0  0
 19 21  1  0  0  0
 19 23  1  0  0  0
 23 24  1  0  0  0
 24 25  1  0  0  0
 25 26  1  0  0  0
 25 27  1  0  0  0
 27 28  1  0  0  0
 28 29  1  0  0  0
 29 30  1  0  0  0
 29 31  1  0  0  0
 31 32  1  0  0  0
 11  6  1  0  0  0
 17 12  1  0  0  0
 32 24  1  0  0  0
 18  9  1  0  0  0
 21 22  1  0  0  0
M  END
> <minimizedAffinity>
-5.29431

> <CNNscore>
0.6424932480

> <CNNaffinity>
7.8598785400

> <CNN_VS>
5.0499191284

> <CNNaffinity_variance>
0.2982109189

$$$$
[H]O[C@@](C(=O)N(OC([H])([H])[H])C(=O)c1c([H])c([H])c2oc3c([H])c([H])c([H])c([H])c3c2c1[H])(C([H])([H])[H])C([H])([H])N1C([H])([H])C([H])([H])N(C([H])([H])[H])C([H])([H])C([H])([H])[C@@]1([H])C([H])([H])[H]


 34 37  0  0  0  0  0  0  0  0999 V2000
   13.0855   22.4130    0.5781 N   0  0  0  0  0  0  0  0  0  0  0  0
   13.8810   22.5337   -0.5527 C   0  0  0  0  0  0  0  0  0  0  0  0
   13.7982   21.5345   -1.3967 O   0  0  0  0  0  0  0  0  0  0  0  0
   12.4734   21.1827    0.8658 C   0  0  0  0  0  0  0  0  0  0  0  0
   12.5024   20.2408    0.0024 O   0  0  0  0  0  0  0  0  0  0  0  0
   14.7941   23.5779   -0.9585 C   0  0  0  0  0  0  0  0  0  0  0  0
   15.8477   24.0127   -0.2109 C   0  0  0  0  0  0  0  0  0  0  0  0
   16.7073   25.0377   -0.6339 C   0  0  0  0  0  0  0  0  0  0  0  0
   16.5205   25.6580   -1.8444 C   0  0  0  0  0  0  0  0  0  0  0  0
   15.4658   25.2365   -2.6158 C   0  0  0  0  0  0  0  0  0  0  0  0
   14.6293   24.2312   -2.1900 C   0  0  0  0  0  0  0  0  0  0  0  0
   15.5367   26.0270   -3.7456 C   0  0  0  0  0  0  0  0  0  0  0  0
   14.7639   26.0864   -4.8853 C   0  0  0  0  0  0  0  0  0  0  0  0
   15.0645   27.0017   -5.9014 C   0  0  0  0  0  0  0  0  0  0  0  0
   16.1289   27.8590   -5.7928 C   0  0  0  0  0  0  0  0  0  0  0  0
   16.9032   27.8013   -4.6533 C   0  0  0  0  0  0  0  0  0  0  0  0
   16.5963   26.8849   -3.6448 C   0  0  0  0  0  0  0  0  0  0  0  0
   17.1682   26.6318   -2.4786 O   0  0  0  0  0  0  0  0  0  0  0  0
   11.7596   20.8099    2.1243 C   0  0  0  0  0  0  0  0  0  0  0  0
   12.4312   19.5574    2.6160 C   0  0  0  0  0  0  0  0  0  0  0  0
   12.0134   21.8091    3.0653 O   0  0  0  0  0  0  0  0  0  0  0  0
   12.9509   21.6424    3.3877 H   0  0  0  0  0  0  0  0  0  0  0  0
   10.3049   20.6992    1.7987 C   0  0  0  0  0  0  0  0  0  0  0  0
    9.7704   21.5116    0.8004 N   0  0  0  0  0  0  0  0  0  0  0  0
    9.0084   20.7639   -0.2071 C   0  0  0  0  0  0  0  0  0  0  0  0
    8.7242   19.3538    0.1606 C   0  0  0  0  0  0  0  0  0  0  0  0
    9.8481   20.8646   -1.4799 C   0  0  0  0  0  0  0  0  0  0  0  0
    9.9834   22.2988   -1.9127 C   0  0  0  0  0  0  0  0  0  0  0  0
   10.3123   23.2175   -0.8620 N   0  0  0  0  0  0  0  0  0  0  0  0
   10.9806   24.3901   -1.3774 C   0  0  0  0  0  0  0  0  0  0  0  0
    9.2007   23.6434   -0.0628 C   0  0  0  0  0  0  0  0  0  0  0  0
    8.9940   22.6519    1.0991 C   0  0  0  0  0  0  0  0  0  0  0  0
   12.5390   24.5367    0.7309 C   0  0  0  0  0  0  0  0  0  0  0  0
   12.9551   23.4002    1.4744 O   0  0  0  0  0  0  0  0  0  0  0  0
 33 34  1  0  0  0
 34  1  1  0  0  0
  1  2  1  0  0  0
  2  3  2  0  0  0
  2  6  1  0  0  0
  6  7  2  0  0  0
  7  8  1  0  0  0
  8  9  2  0  0  0
  9 10  1  0  0  0
 10 11  2  0  0  0
 10 12  1  0  0  0
 12 13  2  0  0  0
 13 14  1  0  0  0
 14 15  2  0  0  0
 15 16  1  0  0  0
 16 17  2  0  0  0
 17 18  1  0  0  0
  1  4  1  0  0  0
  4  5  2  0  0  0
  4 19  1  0  0  0
 19 20  1  0  0  0
 19 21  1  0  0  0
 19 23  1  0  0  0
 23 24  1  0  0  0
 24 25  1  0  0  0
 25 26  1  0  0  0
 25 27  1  0  0  0
 27 28  1  0  0  0
 28 29  1  0  0  0
 29 30  1  0  0  0
 29 31  1  0  0  0
 31 32  1  0  0  0
 11  6  1  0  0  0
 17 12  1  0  0  0
 32 24  1  0  0  0
 18  9  1  0  0  0
 21 22  1  0  0  0
M  END
> <minimizedAffinity>
-7.23659

> <CNNscore>
0.4961254895

> <CNNaffinity>
7.2990999222

> <CNN_VS>
3.6212694645

> <CNNaffinity_variance>
0.1514852941

$$$$
[H]O[C@@](C(=O)N(OC([H])([H])[H])C(=O)c1c([H])c([H])c2oc3c([H])c([H])c([H])c([H])c3c2c1[H])(C([H])([H])[H])C([H])([H])N1C([H])([H])C([H])([H])N(C([H])([H])[H])C([H])([H])C([H])([H])[C@@]1([H])C([H])([H])[H]


 34 37  0  0  0  0  0  0  0  0999 V2000
   12.8933   22.6188    0.4010 N   0  0  0  0  0  0  0  0  0  0  0  0
   13.8578   22.6345   -0.5969 C   0  0  0  0  0  0  0  0  0  0  0  0
   13.9883   21.5104   -1.2579 O   0  0  0  0  0  0  0  0  0  0  0  0
   12.3287   21.3965    0.7989 C   0  0  0  0  0  0  0  0  0  0  0  0
   12.5684   20.3365    0.1263 O   0  0  0  0  0  0  0  0  0  0  0  0
   14.7513   23.6842   -1.0309 C   0  0  0  0  0  0  0  0  0  0  0  0
   15.7845   24.1722   -0.2877 C   0  0  0  0  0  0  0  0  0  0  0  0
   16.6252   25.2008   -0.7388 C   0  0  0  0  0  0  0  0  0  0  0  0
   16.4397   25.7702   -1.9743 C   0  0  0  0  0  0  0  0  0  0  0  0
   15.4054   25.2948   -2.7419 C   0  0  0  0  0  0  0  0  0  0  0  0
   14.5873   24.2864   -2.2883 C   0  0  0  0  0  0  0  0  0  0  0  0
   15.4725   26.0434   -3.8999 C   0  0  0  0  0  0  0  0  0  0  0  0
   14.7135   26.0412   -5.0504 C   0  0  0  0  0  0  0  0  0  0  0  0
   15.0058   26.9245   -6.0970 C   0  0  0  0  0  0  0  0  0  0  0  0
   16.0481   27.8106   -6.0081 C   0  0  0  0  0  0  0  0  0  0  0  0
   16.8086   27.8146   -4.8579 C   0  0  0  0  0  0  0  0  0  0  0  0
   16.5102   26.9298   -3.8189 C   0  0  0  0  0  0  0  0  0  0  0  0
   17.0725   26.7348   -2.6371 O   0  0  0  0  0  0  0  0  0  0  0  0
   11.4406   21.1614    1.9771 C   0  0  0  0  0  0  0  0  0  0  0  0
   11.2419   19.6723    2.0447 C   0  0  0  0  0  0  0  0  0  0  0  0
   12.1491   21.5341    3.1206 O   0  0  0  0  0  0  0  0  0  0  0  0
   12.7985   20.7856    3.2899 H   0  0  0  0  0  0  0  0  0  0  0  0
   10.2099   21.9873    1.7829 C   0  0  0  0  0  0  0  0  0  0  0  0
    9.3065   21.6319    0.7830 N   0  0  0  0  0  0  0  0  0  0  0  0
    8.1048   22.4748    0.7637 C   0  0  0  0  0  0  0  0  0  0  0  0
    8.1939   23.6898    1.6121 C   0  0  0  0  0  0  0  0  0  0  0  0
    6.9752   21.5475    1.2101 C   0  0  0  0  0  0  0  0  0  0  0  0
    6.8087   20.4105    0.2395 C   0  0  0  0  0  0  0  0  0  0  0  0
    8.0303   19.7747   -0.1600 N   0  0  0  0  0  0  0  0  0  0  0  0
    7.8020   18.4111   -0.5792 C   0  0  0  0  0  0  0  0  0  0  0  0
    8.7529   20.4529   -1.1963 C   0  0  0  0  0  0  0  0  0  0  0  0
    9.6989   21.4937   -0.5657 C   0  0  0  0  0  0  0  0  0  0  0  0
   11.8015   24.5125    0.1685 C   0  0  0  0  0  0  0  0  0  0  0  0
   12.5453   23.7188    1.0820 O   0  0  0  0  0  0  0  0  0  0  0  0
 33 34  1  0  0  0
 34  1  1  0  0  0
  1  2  1  0  0  0
  2  3  2  0  0  0
  2  6  1  0  0  0
  6  7  2  0  0  0
  7  8  1  0  0  0
  8  9  2  0  0  0
  9 10  1  0  0  0
 10 11  2  0  0  0
 10 12  1  0  0  0
 12 13  2  0  0  0
 13 14  1  0  0  0
 14 15  2  0  0  0
 15 16  1  0  0  0
 16 17  2  0  0  0
 17 18  1  0  0  0
  1  4  1  0  0  0
  4  5  2  0  0  0
  4 19  1  0  0  0
 19 20  1  0  0  0
 19 21  1  0  0  0
 19 23  1  0  0  0
 23 24  1  0  0  0
 24 25  1  0  0  0
 25 26  1  0  0  0
 25 27  1  0  0  0
 27 28  1  0  0  0
 28 29  1  0  0  0
 29 30  1  0  0  0
 29 31  1  0  0  0
 31 32  1  0  0  0
 11  6  1  0  0  0
 17 12  1  0  0  0
 32 24  1  0  0  0
 18  9  1  0  0  0
 21 22  1  0  0  0
M  END
> <minimizedAffinity>
-9.42069

> <CNNscore>
0.4445788562

> <CNNaffinity>
7.0320920944

> <CNN_VS>
3.1263194084

> <CNNaffinity_variance>
0.0867435858

$$$$
[H]O[C@@](C(=O)N(OC([H])([H])[H])C(=O)c1c([H])c([H])c2oc3c([H])c([H])c([H])c([H])c3c2c1[H])(C([H])([H])[H])C([H])([H])N1C([H])([H])C([H])([H])N(C([H])([H])[H])C([H])([H])C([H])([H])[C@@]1([H])C([H])([H])[H]


 34 37  0  0  0  0  0  0  0  0999 V2000
   14.0785   23.0655   -0.5092 N   0  0  0  0  0  0  0  0  0  0  0  0
   15.3102   23.6908   -0.6441 C   0  0  0  0  0  0  0  0  0  0  0  0
   16.2491   23.2414    0.1522 O   0  0  0  0  0  0  0  0  0  0  0  0
   13.8484   22.2187    0.5868 C   0  0  0  0  0  0  0  0  0  0  0  0
   14.8192   21.8877    1.3493 O   0  0  0  0  0  0  0  0  0  0  0  0
   15.7352   24.7628   -1.5153 C   0  0  0  0  0  0  0  0  0  0  0  0
   16.3692   25.8930   -1.0925 C   0  0  0  0  0  0  0  0  0  0  0  0
   16.7575   26.9184   -1.9678 C   0  0  0  0  0  0  0  0  0  0  0  0
   16.5115   26.8242   -3.3152 C   0  0  0  0  0  0  0  0  0  0  0  0
   15.8744   25.6943   -3.7652 C   0  0  0  0  0  0  0  0  0  0  0  0
   15.4977   24.6961   -2.8972 C   0  0  0  0  0  0  0  0  0  0  0  0
   15.7717   25.8848   -5.1287 C   0  0  0  0  0  0  0  0  0  0  0  0
   15.2351   25.1108   -6.1350 C   0  0  0  0  0  0  0  0  0  0  0  0
   15.2654   25.5512   -7.4639 C   0  0  0  0  0  0  0  0  0  0  0  0
   15.8258   26.7564   -7.8000 C   0  0  0  0  0  0  0  0  0  0  0  0
   16.3630   27.5324   -6.7947 C   0  0  0  0  0  0  0  0  0  0  0  0
   16.3288   27.0852   -5.4718 C   0  0  0  0  0  0  0  0  0  0  0  0
   16.7660   27.6260   -4.3460 O   0  0  0  0  0  0  0  0  0  0  0  0
   12.5407   21.6284    1.0037 C   0  0  0  0  0  0  0  0  0  0  0  0
   12.1237   20.7275   -0.1259 C   0  0  0  0  0  0  0  0  0  0  0  0
   12.7795   20.8144    2.1122 O   0  0  0  0  0  0  0  0  0  0  0  0
   13.1949   19.9758    1.7450 H   0  0  0  0  0  0  0  0  0  0  0  0
   11.6194   22.7610    1.3245 C   0  0  0  0  0  0  0  0  0  0  0  0
   10.4187   22.4927    1.9792 N   0  0  0  0  0  0  0  0  0  0  0  0
    9.2362   22.7765    1.1570 C   0  0  0  0  0  0  0  0  0  0  0  0
    9.5316   23.0302   -0.2756 C   0  0  0  0  0  0  0  0  0  0  0  0
    8.5797   23.9825    1.8276 C   0  0  0  0  0  0  0  0  0  0  0  0
    8.1495   23.6406    3.2278 C   0  0  0  0  0  0  0  0  0  0  0  0
    9.1285   22.9381    4.0051 N   0  0  0  0  0  0  0  0  0  0  0  0
    8.9284   23.1495    5.4202 C   0  0  0  0  0  0  0  0  0  0  0  0
    9.1928   21.5265    3.7619 C   0  0  0  0  0  0  0  0  0  0  0  0
   10.1652   21.2499    2.5984 C   0  0  0  0  0  0  0  0  0  0  0  0
   12.6404   24.6425   -1.0355 C   0  0  0  0  0  0  0  0  0  0  0  0
   13.0512   23.3155   -1.3319 O   0  0  0  0  0  0  0  0  0  0  0  0
 33 34  1  0  0  0
 34  1  1  0  0  0
  1  2  1  0  0  0
  2  3  2  0  0  0
  2  6  1  0  0  0
  6  7  2  0  0  0
  7  8  1  0  0  0
  8  9  2  0  0  0
  9 10  1  0  0  0
 10 11  2  0  0  0
 10 12  1  0  0  0
 12 13  2  0  0  0
 13 14  1  0  0  0
 14 15  2  0  0  0
 15 16  1  0  0  0
 16 17  2  0  0  0
 17 18  1  0  0  0
  1  4  1  0  0  0
  4  5  2  0  0  0
  4 19  1  0  0  0
 19 20  1  0  0  0
 19 21  1  0  0  0
 19 23  1  0  0  0
 23 24  1  0  0  0
 24 25  1  0  0  0
 25 26  1  0  0  0
 25 27  1  0  0  0
 27 28  1  0  0  0
 28 29  1  0  0  0
 29 30  1  0  0  0
 29 31  1  0  0  0
 31 32  1  0  0  0
 11  6  1  0  0  0
 17 12  1  0  0  0
 32 24  1  0  0  0
 18  9  1  0  0  0
 21 22  1  0  0  0
M  END
> <minimizedAffinity>
-6.12997

> <CNNscore>
0.3933432102

> <CNNaffinity>
7.1025514603

> <CNN_VS>
2.7937405109

> <CNNaffinity_variance>
0.3307625353

$$$$
[H]O[C@@](C(=O)N(OC([H])([H])[H])C(=O)c1c([H])c([H])c2oc3c([H])c([H])c([H])c([H])c3c2c1[H])(C([H])([H])[H])C([H])([H])N1C([H])([H])C([H])([H])N(C([H])([H])[H])C([H])([H])C([H])([H])[C@@]1([H])C([H])([H])[H]


 34 37  0  0  0  0  0  0  0  0999 V2000
   12.7980   22.8166    0.6053 N   0  0  0  0  0  0  0  0  0  0  0  0
   13.6277   22.7904   -0.5069 C   0  0  0  0  0  0  0  0  0  0  0  0
   13.5423   21.7043   -1.2355 O   0  0  0  0  0  0  0  0  0  0  0  0
   12.1458   21.6412    1.0103 C   0  0  0  0  0  0  0  0  0  0  0  0
   12.1741   20.6073    0.2594 O   0  0  0  0  0  0  0  0  0  0  0  0
   14.5791   23.7606   -0.9991 C   0  0  0  0  0  0  0  0  0  0  0  0
   15.6861   24.1684   -0.3163 C   0  0  0  0  0  0  0  0  0  0  0  0
   16.5823   25.1218   -0.8225 C   0  0  0  0  0  0  0  0  0  0  0  0
   16.3786   25.6951   -2.0533 C   0  0  0  0  0  0  0  0  0  0  0  0
   15.2703   25.2997   -2.7606 C   0  0  0  0  0  0  0  0  0  0  0  0
   14.3983   24.3647   -2.2533 C   0  0  0  0  0  0  0  0  0  0  0  0
   15.3365   26.0317   -3.9292 C   0  0  0  0  0  0  0  0  0  0  0  0
   14.5202   26.0826   -5.0387 C   0  0  0  0  0  0  0  0  0  0  0  0
   14.8275   26.9313   -6.1093 C   0  0  0  0  0  0  0  0  0  0  0  0
   15.9413   27.7302   -6.0850 C   0  0  0  0  0  0  0  0  0  0  0  0
   16.7592   27.6810   -4.9760 C   0  0  0  0  0  0  0  0  0  0  0  0
   16.4453   26.8313   -3.9127 C   0  0  0  0  0  0  0  0  0  0  0  0
   17.0516   26.6000   -2.7594 O   0  0  0  0  0  0  0  0  0  0  0  0
   11.3874   21.4296    2.2801 C   0  0  0  0  0  0  0  0  0  0  0  0
   10.7447   20.0764    2.1482 C   0  0  0  0  0  0  0  0  0  0  0  0
   12.3172   21.3438    3.3176 O   0  0  0  0  0  0  0  0  0  0  0  0
   12.7170   20.4242    3.2446 H   0  0  0  0  0  0  0  0  0  0  0  0
   10.4615   22.5909    2.4482 C   0  0  0  0  0  0  0  0  0  0  0  0
    9.1299   22.4573    2.0590 N   0  0  0  0  0  0  0  0  0  0  0  0
    8.1800   22.7430    3.1411 C   0  0  0  0  0  0  0  0  0  0  0  0
    8.7882   23.3700    4.3416 C   0  0  0  0  0  0  0  0  0  0  0  0
    7.5428   21.3918    3.4626 C   0  0  0  0  0  0  0  0  0  0  0  0
    6.8001   20.8590    2.2680 C   0  0  0  0  0  0  0  0  0  0  0  0
    7.5135   20.9442    1.0271 N   0  0  0  0  0  0  0  0  0  0  0  0
    7.0547   19.9484    0.0862 C   0  0  0  0  0  0  0  0  0  0  0  0
    7.4644   22.2275    0.3895 C   0  0  0  0  0  0  0  0  0  0  0  0
    8.6153   23.1070    0.9165 C   0  0  0  0  0  0  0  0  0  0  0  0
   11.9604   24.8490    0.5942 C   0  0  0  0  0  0  0  0  0  0  0  0
   12.6687   23.9016    1.3806 O   0  0  0  0  0  0  0  0  0  0  0  0
 33 34  1  0  0  0
 34  1  1  0  0  0
  1  2  1  0  0  0
  2  3  2  0  0  0
  2  6  1  0  0  0
  6  7  2  0  0  0
  7  8  1  0  0  0
  8  9  2  0  0  0
  9 10  1  0  0  0
 10 11  2  0  0  0
 10 12  1  0  0  0
 12 13  2  0  0  0
 13 14  1  0  0  0
 14 15  2  0  0  0
 15 16  1  0  0  0
 16 17  2  0  0  0
 17 18  1  0  0  0
  1  4  1  0  0  0
  4  5  2  0  0  0
  4 19  1  0  0  0
 19 20  1  0  0  0
 19 21  1  0  0  0
 19 23  1  0  0  0
 23 24  1  0  0  0
 24 25  1  0  0  0
 25 26  1  0  0  0
 25 27  1  0  0  0
 27 28  1  0  0  0
 28 29  1  0  0  0
 29 30  1  0  0  0
 29 31  1  0  0  0
 31 32  1  0  0  0
 11  6  1  0  0  0
 17 12  1  0  0  0
 32 24  1  0  0  0
 18  9  1  0  0  0
 21 22  1  0  0  0
M  END
> <minimizedAffinity>
-9.14642

> <CNNscore>
0.3706965148

> <CNNaffinity>
6.8110985756

> <CNN_VS>
2.5248506069

> <CNNaffinity_variance>
0.1394983530

$$$$
[H]O[C@@](C(=O)N(OC([H])([H])[H])C(=O)c1c([H])c([H])c2oc3c([H])c([H])c([H])c([H])c3c2c1[H])(C([H])([H])[H])C([H])([H])N1C([H])([H])C([H])([H])N(C([H])([H])[H])C([H])([H])C([H])([H])[C@@]1([H])C([H])([H])[H]


 34 37  0  0  0  0  0  0  0  0999 V2000
   12.4103   22.0559   -0.0775 N   0  0  0  0  0  0  0  0  0  0  0  0
   13.0893   23.1551   -0.5841 C   0  0  0  0  0  0  0  0  0  0  0  0
   13.0521   24.2251    0.1717 O   0  0  0  0  0  0  0  0  0  0  0  0
   11.5532   22.2183    1.0225 C   0  0  0  0  0  0  0  0  0  0  0  0
   11.5391   23.3264    1.6593 O   0  0  0  0  0  0  0  0  0  0  0  0
   13.8312   23.3234   -1.8130 C   0  0  0  0  0  0  0  0  0  0  0  0
   14.4610   22.3130   -2.4767 C   0  0  0  0  0  0  0  0  0  0  0  0
   15.1818   22.5170   -3.6629 C   0  0  0  0  0  0  0  0  0  0  0  0
   15.2842   23.7688   -4.2177 C   0  0  0  0  0  0  0  0  0  0  0  0
   14.6573   24.8028   -3.5674 C   0  0  0  0  0  0  0  0  0  0  0  0
   13.9543   24.5905   -2.4045 C   0  0  0  0  0  0  0  0  0  0  0  0
   14.9320   25.9083   -4.3476 C   0  0  0  0  0  0  0  0  0  0  0  0
   14.5837   27.2365   -4.2285 C   0  0  0  0  0  0  0  0  0  0  0  0
   15.0037   28.1702   -5.1838 C   0  0  0  0  0  0  0  0  0  0  0  0
   15.7681   27.7928   -6.2575 C   0  0  0  0  0  0  0  0  0  0  0  0
   16.1179   26.4645   -6.3783 C   0  0  0  0  0  0  0  0  0  0  0  0
   15.6942   25.5397   -5.4210 C   0  0  0  0  0  0  0  0  0  0  0  0
   15.8876   24.2356   -5.3077 O   0  0  0  0  0  0  0  0  0  0  0  0
   10.5972   21.2091    1.5699 C   0  0  0  0  0  0  0  0  0  0  0  0
    9.5864   20.9753    0.4812 C   0  0  0  0  0  0  0  0  0  0  0  0
   11.2981   20.0146    1.7436 O   0  0  0  0  0  0  0  0  0  0  0  0
   11.3943   19.6233    0.8226 H   0  0  0  0  0  0  0  0  0  0  0  0
   10.0697   21.7455    2.8616 C   0  0  0  0  0  0  0  0  0  0  0  0
    8.7057   21.6457    3.1299 N   0  0  0  0  0  0  0  0  0  0  0  0
    8.3932   21.6986    4.5632 C   0  0  0  0  0  0  0  0  0  0  0  0
    9.5299   22.1120    5.4241 C   0  0  0  0  0  0  0  0  0  0  0  0
    7.9003   20.2926    4.9033 C   0  0  0  0  0  0  0  0  0  0  0  0
    6.6536   19.9666    4.1275 C   0  0  0  0  0  0  0  0  0  0  0  0
    6.7057   20.3002    2.7340 N   0  0  0  0  0  0  0  0  0  0  0  0
    5.7999   19.4813    1.9619 C   0  0  0  0  0  0  0  0  0  0  0  0
    6.4414   21.6769    2.4326 C   0  0  0  0  0  0  0  0  0  0  0  0
    7.7561   22.4787    2.5001 C   0  0  0  0  0  0  0  0  0  0  0  0
   13.7192   20.3046   -0.3056 C   0  0  0  0  0  0  0  0  0  0  0  0
   12.4568   20.8505   -0.6605 O   0  0  0  0  0  0  0  0  0  0  0  0
 33 34  1  0  0  0
 34  1  1  0  0  0
  1  2  1  0  0  0
  2  3  2  0  0  0
  2  6  1  0  0  0
  6  7  2  0  0  0
  7  8  1  0  0  0
  8  9  2  0  0  0
  9 10  1  0  0  0
 10 11  2  0  0  0
 10 12  1  0  0  0
 12 13  2  0  0  0
 13 14  1  0  0  0
 14 15  2  0  0  0
 15 16  1  0  0  0
 16 17  2  0  0  0
 17 18  1  0  0  0
  1  4  1  0  0  0
  4  5  2  0  0  0
  4 19  1  0  0  0
 19 20  1  0  0  0
 19 21  1  0  0  0
 19 23  1  0  0  0
 23 24  1  0  0  0
 24 25  1  0  0  0
 25 26  1  0  0  0
 25 27  1  0  0  0
 27 28  1  0  0  0
 28 29  1  0  0  0
 29 30  1  0  0  0
 29 31  1  0  0  0
 31 32  1  0  0  0
 11  6  1  0  0  0
 17 12  1  0  0  0
 32 24  1  0  0  0
 18  9  1  0  0  0
 21 22  1  0  0  0
M  END
> <minimizedAffinity>
-7.42499

> <CNNscore>
0.3536604345

> <CNNaffinity>
6.5012931824

> <CNN_VS>
2.2992501259

> <CNNaffinity_variance>
0.4532772899

$$$$
[H]O[C@@](C(=O)N(OC([H])([H])[H])C(=O)c1c([H])c([H])c2oc3c([H])c([H])c([H])c([H])c3c2c1[H])(C([H])([H])[H])C([H])([H])N1C([H])([H])C([H])([H])N(C([H])([H])[H])C([H])([H])C([H])([H])[C@@]1([H])C([H])([H])[H]


 34 37  0  0  0  0  0  0  0  0999 V2000
   12.1181   23.6993    0.8841 N   0  0  0  0  0  0  0  0  0  0  0  0
   13.4338   23.3603    0.6011 C   0  0  0  0  0  0  0  0  0  0  0  0
   13.8207   22.2011    1.0746 O   0  0  0  0  0  0  0  0  0  0  0  0
   11.3974   22.9492    1.8269 C   0  0  0  0  0  0  0  0  0  0  0  0
   11.8883   21.8608    2.2830 O   0  0  0  0  0  0  0  0  0  0  0  0
   14.4578   24.0743   -0.1273 C   0  0  0  0  0  0  0  0  0  0  0  0
   15.7161   24.3071    0.3421 C   0  0  0  0  0  0  0  0  0  0  0  0
   16.6812   25.0146   -0.3904 C   0  0  0  0  0  0  0  0  0  0  0  0
   16.3933   25.5114   -1.6375 C   0  0  0  0  0  0  0  0  0  0  0  0
   15.1320   25.2888   -2.1322 C   0  0  0  0  0  0  0  0  0  0  0  0
   14.1940   24.5946   -1.4042 C   0  0  0  0  0  0  0  0  0  0  0  0
   15.1452   25.8914   -3.3743 C   0  0  0  0  0  0  0  0  0  0  0  0
   14.1856   26.0119   -4.3564 C   0  0  0  0  0  0  0  0  0  0  0  0
   14.4699   26.6880   -5.5492 C   0  0  0  0  0  0  0  0  0  0  0  0
   15.7021   27.2457   -5.7730 C   0  0  0  0  0  0  0  0  0  0  0  0
   16.6635   27.1266   -4.7917 C   0  0  0  0  0  0  0  0  0  0  0  0
   16.3715   26.4500   -3.6050 C   0  0  0  0  0  0  0  0  0  0  0  0
   17.1008   26.1995   -2.5297 O   0  0  0  0  0  0  0  0  0  0  0  0
   10.0597   23.2820    2.4031 C   0  0  0  0  0  0  0  0  0  0  0  0
    9.8976   22.3835    3.5981 C   0  0  0  0  0  0  0  0  0  0  0  0
   10.1197   24.5927    2.8793 O   0  0  0  0  0  0  0  0  0  0  0  0
   10.6298   24.5412    3.7441 H   0  0  0  0  0  0  0  0  0  0  0  0
    9.0499   23.1247    1.3123 C   0  0  0  0  0  0  0  0  0  0  0  0
    9.3322   22.2734    0.2455 N   0  0  0  0  0  0  0  0  0  0  0  0
    8.3146   21.2334    0.0512 C   0  0  0  0  0  0  0  0  0  0  0  0
    7.0691   21.4402    0.8321 C   0  0  0  0  0  0  0  0  0  0  0  0
    9.0170   19.9301    0.4298 C   0  0  0  0  0  0  0  0  0  0  0  0
   10.1826   19.6717   -0.4851 C   0  0  0  0  0  0  0  0  0  0  0  0
   11.0305   20.8047   -0.7165 N   0  0  0  0  0  0  0  0  0  0  0  0
   12.3686   20.3965   -1.0773 C   0  0  0  0  0  0  0  0  0  0  0  0
   10.5533   21.7230   -1.7089 C   0  0  0  0  0  0  0  0  0  0  0  0
    9.6302   22.7632   -1.0443 C   0  0  0  0  0  0  0  0  0  0  0  0
   12.3059   25.8883    0.8120 C   0  0  0  0  0  0  0  0  0  0  0  0
   11.5284   24.7858    0.3676 O   0  0  0  0  0  0  0  0  0  0  0  0
 33 34  1  0  0  0
 34  1  1  0  0  0
  1  2  1  0  0  0
  2  3  2  0  0  0
  2  6  1  0  0  0
  6  7  2  0  0  0
  7  8  1  0  0  0
  8  9  2  0  0  0
  9 10  1  0  0  0
 10 11  2  0  0  0
 10 12  1  0  0  0
 12 13  2  0  0  0
 13 14  1  0  0  0
 14 15  2  0  0  0
 15 16  1  0  0  0
 16 17  2  0  0  0
 17 18  1  0  0  0
  1  4  1  0  0  0
  4  5  2  0  0  0
  4 19  1  0  0  0
 19 20  1  0  0  0
 19 21  1  0  0  0
 19 23  1  0  0  0
 23 24  1  0  0  0
 24 25  1  0  0  0
 25 26  1  0  0  0
 25 27  1  0  0  0
 27 28  1  0  0  0
 28 29  1  0  0  0
 29 30  1  0  0  0
 29 31  1  0  0  0
 31 32  1  0  0  0
 11  6  1  0  0  0
 17 12  1  0  0  0
 32 24  1  0  0  0
 18  9  1  0  0  0
 21 22  1  0  0  0
M  END
> <minimizedAffinity>
-7.71223

> <CNNscore>
0.3358332515

> <CNNaffinity>
6.8979845047

> <CNN_VS>
2.3165726662

> <CNNaffinity_variance>
0.1585976034

$$$$
[H]O[C@@](C(=O)N(OC([H])([H])[H])C(=O)c1c([H])c([H])c2oc3c([H])c([H])c([H])c([H])c3c2c1[H])(C([H])([H])[H])C([H])([H])N1C([H])([H])C([H])([H])N(C([H])([H])[H])C([H])([H])C([H])([H])[C@@]1([H])C([H])([H])[H]


 34 37  0  0  0  0  0  0  0  0999 V2000
   12.9506   22.7455    0.4462 N   0  0  0  0  0  0  0  0  0  0  0  0
   13.9296   22.7186   -0.5371 C   0  0  0  0  0  0  0  0  0  0  0  0
   14.0838   21.5614   -1.1329 O   0  0  0  0  0  0  0  0  0  0  0  0
   12.3950   21.5398    0.9031 C   0  0  0  0  0  0  0  0  0  0  0  0
   12.6577   20.4475    0.2938 O   0  0  0  0  0  0  0  0  0  0  0  0
   14.8167   23.7543   -1.0158 C   0  0  0  0  0  0  0  0  0  0  0  0
   15.8732   24.2495   -0.3111 C   0  0  0  0  0  0  0  0  0  0  0  0
   16.7068   25.2642   -0.8050 C   0  0  0  0  0  0  0  0  0  0  0  0
   16.4900   25.8115   -2.0454 C   0  0  0  0  0  0  0  0  0  0  0  0
   15.4318   25.3282   -2.7746 C   0  0  0  0  0  0  0  0  0  0  0  0
   14.6209   24.3338   -2.2793 C   0  0  0  0  0  0  0  0  0  0  0  0
   15.4706   26.0546   -3.9480 C   0  0  0  0  0  0  0  0  0  0  0  0
   14.6795   26.0356   -5.0766 C   0  0  0  0  0  0  0  0  0  0  0  0
   14.9475   26.8972   -6.1474 C   0  0  0  0  0  0  0  0  0  0  0  0
   15.9970   27.7782   -6.1046 C   0  0  0  0  0  0  0  0  0  0  0  0
   16.7895   27.7990   -4.9764 C   0  0  0  0  0  0  0  0  0  0  0  0
   16.5153   26.9358   -3.9129 C   0  0  0  0  0  0  0  0  0  0  0  0
   17.1095   26.7594   -2.7438 O   0  0  0  0  0  0  0  0  0  0  0  0
   11.4922   21.3585    2.0797 C   0  0  0  0  0  0  0  0  0  0  0  0
   11.3478   19.8719    2.2552 C   0  0  0  0  0  0  0  0  0  0  0  0
   12.1626   21.8422    3.2044 O   0  0  0  0  0  0  0  0  0  0  0  0
   12.8359   21.1340    3.4408 H   0  0  0  0  0  0  0  0  0  0  0  0
   10.2359   22.1195    1.8024 C   0  0  0  0  0  0  0  0  0  0  0  0
    9.1694   22.0139    2.6933 N   0  0  0  0  0  0  0  0  0  0  0  0
    8.8935   23.2621    3.4150 C   0  0  0  0  0  0  0  0  0  0  0  0
    9.6046   24.4503    2.8796 C   0  0  0  0  0  0  0  0  0  0  0  0
    9.2845   22.9660    4.8623 C   0  0  0  0  0  0  0  0  0  0  0  0
    8.4340   21.8603    5.4249 C   0  0  0  0  0  0  0  0  0  0  0  0
    8.2769   20.7233    4.5655 N   0  0  0  0  0  0  0  0  0  0  0  0
    7.9863   19.5272    5.3219 C   0  0  0  0  0  0  0  0  0  0  0  0
    7.2783   20.8698    3.5471 C   0  0  0  0  0  0  0  0  0  0  0  0
    7.9100   21.5142    2.2975 C   0  0  0  0  0  0  0  0  0  0  0  0
   11.8389   24.6088    0.0937 C   0  0  0  0  0  0  0  0  0  0  0  0
   12.5789   23.8767    1.0602 O   0  0  0  0  0  0  0  0  0  0  0  0
 33 34  1  0  0  0
 34  1  1  0  0  0
  1  2  1  0  0  0
  2  3  2  0  0  0
  2  6  1  0  0  0
  6  7  2  0  0  0
  7  8  1  0  0  0
  8  9  2  0  0  0
  9 10  1  0  0  0
 10 11  2  0  0  0
 10 12  1  0  0  0
 12 13  2  0  0  0
 13 14  1  0  0  0
 14 15  2  0  0  0
 15 16  1  0  0  0
 16 17  2  0  0  0
 17 18  1  0  0  0
  1  4  1  0  0  0
  4  5  2  0  0  0
  4 19  1  0  0  0
 19 20  1  0  0  0
 19 21  1  0  0  0
 19 23  1  0  0  0
 23 24  1  0  0  0
 24 25  1  0  0  0
 25 26  1  0  0  0
 25 27  1  0  0  0
 27 28  1  0  0  0
 28 29  1  0  0  0
 29 30  1  0  0  0
 29 31  1  0  0  0
 31 32  1  0  0  0
 11  6  1  0  0  0
 17 12  1  0  0  0
 32 24  1  0  0  0
 18  9  1  0  0  0
 21 22  1  0  0  0
M  END
> <minimizedAffinity>
-9.48832

> <CNNscore>
0.2906568646

> <CNNaffinity>
6.6098890305

> <CNN_VS>
1.9212095737

> <CNNaffinity_variance>
0.1268683672

$$$$
[H]O[C@@](C(=O)N(OC([H])([H])[H])C(=O)c1c([H])c([H])c2oc3c([H])c([H])c([H])c([H])c3c2c1[H])(C([H])([H])[H])C([H])([H])N1C([H])([H])C([H])([H])N(C([H])([H])[H])C([H])([H])C([H])([H])[C@@]1([H])C([H])([H])[H]


 34 37  0  0  0  0  0  0  0  0999 V2000
   12.7710   22.4745    0.6427 N   0  0  0  0  0  0  0  0  0  0  0  0
   13.6876   22.5005   -0.3991 C   0  0  0  0  0  0  0  0  0  0  0  0
   13.7347   21.4082   -1.1220 O   0  0  0  0  0  0  0  0  0  0  0  0
   12.1693   21.2590    1.0052 C   0  0  0  0  0  0  0  0  0  0  0  0
   12.3278   20.2265    0.2688 O   0  0  0  0  0  0  0  0  0  0  0  0
   14.6078   23.5313   -0.8226 C   0  0  0  0  0  0  0  0  0  0  0  0
   15.6564   23.9810   -0.0769 C   0  0  0  0  0  0  0  0  0  0  0  0
   16.5232   24.9925   -0.5175 C   0  0  0  0  0  0  0  0  0  0  0  0
   16.3489   25.5833   -1.7445 C   0  0  0  0  0  0  0  0  0  0  0  0
   15.2995   25.1464   -2.5144 C   0  0  0  0  0  0  0  0  0  0  0  0
   14.4558   24.1546   -2.0712 C   0  0  0  0  0  0  0  0  0  0  0  0
   15.3828   25.9085   -3.6626 C   0  0  0  0  0  0  0  0  0  0  0  0
   14.6199   25.9423   -4.8101 C   0  0  0  0  0  0  0  0  0  0  0  0
   14.9325   26.8313   -5.8459 C   0  0  0  0  0  0  0  0  0  0  0  0
   15.9988   27.6875   -5.7492 C   0  0  0  0  0  0  0  0  0  0  0  0
   16.7632   27.6555   -4.6020 C   0  0  0  0  0  0  0  0  0  0  0  0
   16.4444   26.7652   -3.5738 C   0  0  0  0  0  0  0  0  0  0  0  0
   17.0054   26.5391   -2.3969 O   0  0  0  0  0  0  0  0  0  0  0  0
   11.3271   21.0012    2.2120 C   0  0  0  0  0  0  0  0  0  0  0  0
   11.8969   19.7631    2.8477 C   0  0  0  0  0  0  0  0  0  0  0  0
   11.5347   22.0543    3.1043 O   0  0  0  0  0  0  0  0  0  0  0  0
   12.4306   21.8772    3.5249 H   0  0  0  0  0  0  0  0  0  0  0  0
    9.9053   20.9200    1.7577 C   0  0  0  0  0  0  0  0  0  0  0  0
    8.9690   21.7967    2.3026 N   0  0  0  0  0  0  0  0  0  0  0  0
    7.9403   22.2139    1.3420 C   0  0  0  0  0  0  0  0  0  0  0  0
    7.9281   21.4339    0.0788 C   0  0  0  0  0  0  0  0  0  0  0  0
    8.2197   23.6960    1.0961 C   0  0  0  0  0  0  0  0  0  0  0  0
    8.0680   24.4818    2.3697 C   0  0  0  0  0  0  0  0  0  0  0  0
    8.7010   23.8993    3.5169 N   0  0  0  0  0  0  0  0  0  0  0  0
    9.0288   24.9022    4.5038 C   0  0  0  0  0  0  0  0  0  0  0  0
    7.9495   22.8602    4.1583 C   0  0  0  0  0  0  0  0  0  0  0  0
    8.2797   21.5064    3.4997 C   0  0  0  0  0  0  0  0  0  0  0  0
   11.6562   24.3686    0.6036 C   0  0  0  0  0  0  0  0  0  0  0  0
   12.5066   23.5512    1.3949 O   0  0  0  0  0  0  0  0  0  0  0  0
 33 34  1  0  0  0
 34  1  1  0  0  0
  1  2  1  0  0  0
  2  3  2  0  0  0
  2  6  1  0  0  0
  6  7  2  0  0  0
  7  8  1  0  0  0
  8  9  2  0  0  0
  9 10  1  0  0  0
 10 11  2  0  0  0
 10 12  1  0  0  0
 12 13  2  0  0  0
 13 14  1  0  0  0
 14 15  2  0  0  0
 15 16  1  0  0  0
 16 17  2  0  0  0
 17 18  1  0  0  0
  1  4  1  0  0  0
  4  5  2  0  0  0
  4 19  1  0  0  0
 19 20  1  0  0  0
 19 21  1  0  0  0
 19 23  1  0  0  0
 23 24  1  0  0  0
 24 25  1  0  0  0
 25 26  1  0  0  0
 25 27  1  0  0  0
 27 28  1  0  0  0
 28 29  1  0  0  0
 29 30  1  0  0  0
 29 31  1  0  0  0
 31 32  1  0  0  0
 11  6  1  0  0  0
 17 12  1  0  0  0
 32 24  1  0  0  0
 18  9  1  0  0  0
 21 22  1  0  0  0
M  END
> <minimizedAffinity>
-9.64849

> <CNNscore>
0.2902280390

> <CNNaffinity>
6.6941289902

> <CNN_VS>
1.9428238869

> <CNNaffinity_variance>
0.1167789474

$$$$
[H]OB(O[H])[C@@]1([H])N(C(=O)[C@@]2([H])N(C(=O)C(C([H])([H])[H])(C([H])([H])[H])C([H])([H])[H])C([H])([H])C([H])([H])C2([H])[H])C([H])([H])C([H])([H])C1([H])[H]


 23 24  0  0  0  0  0  0  0  0999 V2000
   12.1053   24.7359    0.1009 C   0  0  0  0  0  0  0  0  0  0  0  0
   11.9225   25.1864    1.2315 O   0  0  0  0  0  0  0  0  0  0  0  0
   11.9183   23.3085   -0.0458 N   0  0  0  0  0  0  0  0  0  0  0  0
   12.0562   22.4899   -1.2306 C   0  0  0  0  0  0  0  0  0  0  0  0
   11.0143   21.3928   -1.0885 C   0  0  0  0  0  0  0  0  0  0  0  0
   10.4866   21.5481    0.2996 C   0  0  0  0  0  0  0  0  0  0  0  0
   11.5310   22.3547    0.9994 C   0  0  0  0  0  0  0  0  0  0  0  0
   14.9819   24.8509   -1.3272 C   0  0  0  0  0  0  0  0  0  0  0  0
   15.1679   24.0266   -0.3805 O   0  0  0  0  0  0  0  0  0  0  0  0
   13.7726   25.4773   -1.6145 N   0  0  0  0  0  0  0  0  0  0  0  0
   13.6197   26.4272   -2.7398 C   0  0  0  0  0  0  0  0  0  0  0  0
   12.2829   25.9698   -3.3332 C   0  0  0  0  0  0  0  0  0  0  0  0
   11.6689   25.0447   -2.3067 C   0  0  0  0  0  0  0  0  0  0  0  0
   12.4762   25.4750   -1.0589 C   0  0  0  0  0  0  0  0  0  0  0  0
   16.4721   26.5448   -2.3926 C   0  0  0  0  0  0  0  0  0  0  0  0
   16.2425   25.0881   -2.1308 C   0  0  0  0  0  0  0  0  0  0  0  0
   17.4234   24.5749   -1.2811 C   0  0  0  0  0  0  0  0  0  0  0  0
   16.2432   24.2183   -3.3583 C   0  0  0  0  0  0  0  0  0  0  0  0
   12.7522   21.3825    1.3335 B   0  0  0  0  0  0  0  0  0  0  0  0
   14.1205   21.8699    1.0789 O   0  0  0  0  0  0  0  0  0  0  0  0
   12.5807   20.5006    2.4847 O   0  0  0  0  0  0  0  0  0  0  0  0
   14.7716   21.1457    1.1278 H   0  0  0  0  0  0  0  0  0  0  0  0
   11.8363   20.7540    3.0636 H   0  0  0  0  0  0  0  0  0  0  0  0
 15 16  1  0  0  0
 16 17  1  0  0  0
 16 18  1  0  0  0
 16  8  1  0  0  0
  8  9  2  0  0  0
  8 10  1  0  0  0
 10 11  1  0  0  0
 11 12  1  0  0  0
 12 13  1  0  0  0
 13 14  1  0  0  0
 14  1  1  0  0  0
  1  2  2  0  0  0
  1  3  1  0  0  0
  3  4  1  0  0  0
  4  5  1  0  0  0
  5  6  1  0  0  0
  6  7  1  0  0  0
  7 19  1  0  0  0
 19 20  1  0  0  0
 19 21  1  0  0  0
 14 10  1  0  0  0
  7  3  1  0  0  0
 20 22  1  0  0  0
 21 23  1  0  0  0
M  END
> <minimizedAffinity>
-3.99508

> <CNNscore>
0.5924311280

> <CNNaffinity>
6.6563048363

> <CNN_VS>
3.9434022903

> <CNNaffinity_variance>
0.7614510655

$$$$
[H]OB(O[H])[C@@]1([H])N(C(=O)[C@@]2([H])N(C(=O)C(C([H])([H])[H])(C([H])([H])[H])C([H])([H])[H])C([H])([H])C([H])([H])C2([H])[H])C([H])([H])C([H])([H])C1([H])[H]


 23 24  0  0  0  0  0  0  0  0999 V2000
   11.8624   25.5204    1.0345 C   0  0  0  0  0  0  0  0  0  0  0  0
   11.9784   26.4190    1.8674 O   0  0  0  0  0  0  0  0  0  0  0  0
   10.6905   24.6826    1.1713 N   0  0  0  0  0  0  0  0  0  0  0  0
   10.2760   23.5586    0.3604 C   0  0  0  0  0  0  0  0  0  0  0  0
    8.7570   23.6048    0.3503 C   0  0  0  0  0  0  0  0  0  0  0  0
    8.4026   24.6541    1.3516 C   0  0  0  0  0  0  0  0  0  0  0  0
    9.6349   24.7962    2.1837 C   0  0  0  0  0  0  0  0  0  0  0  0
   13.3452   22.7411    0.3984 C   0  0  0  0  0  0  0  0  0  0  0  0
   12.6375   22.4593    1.4135 O   0  0  0  0  0  0  0  0  0  0  0  0
   13.3764   23.9805   -0.2340 N   0  0  0  0  0  0  0  0  0  0  0  0
   14.2216   24.2438   -1.4207 C   0  0  0  0  0  0  0  0  0  0  0  0
   13.2483   25.0255   -2.3094 C   0  0  0  0  0  0  0  0  0  0  0  0
   12.0860   25.4028   -1.4188 C   0  0  0  0  0  0  0  0  0  0  0  0
   12.7576   25.2324   -0.0355 C   0  0  0  0  0  0  0  0  0  0  0  0
   15.5840   21.6403    0.4296 C   0  0  0  0  0  0  0  0  0  0  0  0
   14.1721   21.5606   -0.0638 C   0  0  0  0  0  0  0  0  0  0  0  0
   13.5349   20.2954    0.5471 C   0  0  0  0  0  0  0  0  0  0  0  0
   14.0323   21.3836   -1.5513 C   0  0  0  0  0  0  0  0  0  0  0  0
    9.6946   23.5501    3.1795 B   0  0  0  0  0  0  0  0  0  0  0  0
    8.4417   22.8272    3.4668 O   0  0  0  0  0  0  0  0  0  0  0  0
   10.9131   22.7462    3.1374 O   0  0  0  0  0  0  0  0  0  0  0  0
    8.5460   22.2199    4.2226 H   0  0  0  0  0  0  0  0  0  0  0  0
   11.4666   22.9165    2.3513 H   0  0  0  0  0  0  0  0  0  0  0  0
 15 16  1  0  0  0
 16 17  1  0  0  0
 16 18  1  0  0  0
 16  8  1  0  0  0
  8  9  2  0  0  0
  8 10  1  0  0  0
 10 11  1  0  0  0
 11 12  1  0  0  0
 12 13  1  0  0  0
 13 14  1  0  0  0
 14  1  1  0  0  0
  1  2  2  0  0  0
  1  3  1  0  0  0
  3  4  1  0  0  0
  4  5  1  0  0  0
  5  6  1  0  0  0
  6  7  1  0  0  0
  7 19  1  0  0  0
 19 20  1  0  0  0
 19 21  1  0  0  0
 14 10  1  0  0  0
  7  3  1  0  0  0
 20 22  1  0  0  0
 21 23  1  0  0  0
M  END
> <minimizedAffinity>
-2.81368

> <CNNscore>
0.5525571704

> <CNNaffinity>
5.9333810806

> <CNN_VS>
3.2785322666

> <CNNaffinity_variance>
0.4378442168

$$$$
[H]OB(O[H])[C@@]1([H])N(C(=O)[C@@]2([H])N(C(=O)C(C([H])([H])[H])(C([H])([H])[H])C([H])([H])[H])C([H])([H])C([H])([H])C2([H])[H])C([H])([H])C([H])([H])C1([H])[H]


 23 24  0  0  0  0  0  0  0  0999 V2000
   14.7436   24.3706   -1.5481 C   0  0  0  0  0  0  0  0  0  0  0  0
   15.6907   24.5051   -0.7738 O   0  0  0  0  0  0  0  0  0  0  0  0
   13.4691   24.0623   -0.9362 N   0  0  0  0  0  0  0  0  0  0  0  0
   12.1850   23.8480   -1.5671 C   0  0  0  0  0  0  0  0  0  0  0  0
   11.1573   24.3934   -0.5895 C   0  0  0  0  0  0  0  0  0  0  0  0
   11.9348   24.6964    0.6486 C   0  0  0  0  0  0  0  0  0  0  0  0
   13.1904   23.9021    0.4952 C   0  0  0  0  0  0  0  0  0  0  0  0
   16.1627   26.6632   -3.2968 C   0  0  0  0  0  0  0  0  0  0  0  0
   16.4584   26.9902   -2.1068 O   0  0  0  0  0  0  0  0  0  0  0  0
   15.4216   25.5411   -3.6559 N   0  0  0  0  0  0  0  0  0  0  0  0
   15.1149   25.2118   -5.0663 C   0  0  0  0  0  0  0  0  0  0  0  0
   15.3826   23.7031   -5.0826 C   0  0  0  0  0  0  0  0  0  0  0  0
   15.4903   23.2858   -3.6333 C   0  0  0  0  0  0  0  0  0  0  0  0
   14.7822   24.4894   -2.9671 C   0  0  0  0  0  0  0  0  0  0  0  0
   16.6057   27.1216   -5.7091 C   0  0  0  0  0  0  0  0  0  0  0  0
   16.7125   27.6445   -4.3096 C   0  0  0  0  0  0  0  0  0  0  0  0
   15.8474   28.9187   -4.2203 C   0  0  0  0  0  0  0  0  0  0  0  0
   18.0925   28.0855   -3.9042 C   0  0  0  0  0  0  0  0  0  0  0  0
   12.8432   22.3780    0.8184 B   0  0  0  0  0  0  0  0  0  0  0  0
   13.6794   21.3282    0.2074 O   0  0  0  0  0  0  0  0  0  0  0  0
   12.3291   22.1015    2.1571 O   0  0  0  0  0  0  0  0  0  0  0  0
   13.2733   20.4472    0.3053 H   0  0  0  0  0  0  0  0  0  0  0  0
   12.4640   22.8355    2.7867 H   0  0  0  0  0  0  0  0  0  0  0  0
 15 16  1  0  0  0
 16 17  1  0  0  0
 16 18  1  0  0  0
 16  8  1  0  0  0
  8  9  2  0  0  0
  8 10  1  0  0  0
 10 11  1  0  0  0
 11 12  1  0  0  0
 12 13  1  0  0  0
 13 14  1  0  0  0
 14  1  1  0  0  0
  1  2  2  0  0  0
  1  3  1  0  0  0
  3  4  1  0  0  0
  4  5  1  0  0  0
  5  6  1  0  0  0
  6  7  1  0  0  0
  7 19  1  0  0  0
 19 20  1  0  0  0
 19 21  1  0  0  0
 14 10  1  0  0  0
  7  3  1  0  0  0
 20 22  1  0  0  0
 21 23  1  0  0  0
M  END
> <minimizedAffinity>
-5.23310

> <CNNscore>
0.5404170752

> <CNNaffinity>
6.4857673645

> <CNN_VS>
3.5050194263

> <CNNaffinity_variance>
0.4113944173

$$$$
[H]OB(O[H])[C@@]1([H])N(C(=O)[C@@]2([H])N(C(=O)C(C([H])([H])[H])(C([H])([H])[H])C([H])([H])[H])C([H])([H])C([H])([H])C2([H])[H])C([H])([H])C([H])([H])C1([H])[H]


 23 24  0  0  0  0  0  0  0  0999 V2000
   11.1788   22.1323    2.0861 C   0  0  0  0  0  0  0  0  0  0  0  0
   12.0624   21.7865    2.8698 O   0  0  0  0  0  0  0  0  0  0  0  0
   10.0082   22.7372    2.6842 N   0  0  0  0  0  0  0  0  0  0  0  0
    8.8151   23.2416    2.0400 C   0  0  0  0  0  0  0  0  0  0  0  0
    8.3709   24.4268    2.8812 C   0  0  0  0  0  0  0  0  0  0  0  0
    9.2451   24.3826    4.0907 C   0  0  0  0  0  0  0  0  0  0  0  0
    9.7709   22.9847    4.1106 C   0  0  0  0  0  0  0  0  0  0  0  0
   13.2992   23.3783    0.0175 C   0  0  0  0  0  0  0  0  0  0  0  0
   13.7494   23.7509    1.1440 O   0  0  0  0  0  0  0  0  0  0  0  0
   12.1665   22.5914   -0.1691 N   0  0  0  0  0  0  0  0  0  0  0  0
   11.6960   22.1855   -1.5129 C   0  0  0  0  0  0  0  0  0  0  0  0
   11.3569   20.7103   -1.2744 C   0  0  0  0  0  0  0  0  0  0  0  0
   11.3564   20.5227    0.2260 C   0  0  0  0  0  0  0  0  0  0  0  0
   11.1996   21.9970    0.6682 C   0  0  0  0  0  0  0  0  0  0  0  0
   14.4737   22.8072   -2.1084 C   0  0  0  0  0  0  0  0  0  0  0  0
   14.1425   23.8916   -1.1299 C   0  0  0  0  0  0  0  0  0  0  0  0
   13.2998   24.9490   -1.8726 C   0  0  0  0  0  0  0  0  0  0  0  0
   15.3302   24.6474   -0.5994 C   0  0  0  0  0  0  0  0  0  0  0  0
    8.6046   22.0348    4.6447 B   0  0  0  0  0  0  0  0  0  0  0  0
    7.4014   22.6646    5.2197 O   0  0  0  0  0  0  0  0  0  0  0  0
    8.3978   20.7891    3.9111 O   0  0  0  0  0  0  0  0  0  0  0  0
    6.8469   22.0130    5.6872 H   0  0  0  0  0  0  0  0  0  0  0  0
    8.8384   20.7709    3.0400 H   0  0  0  0  0  0  0  0  0  0  0  0
 15 16  1  0  0  0
 16 17  1  0  0  0
 16 18  1  0  0  0
 16  8  1  0  0  0
  8  9  2  0  0  0
  8 10  1  0  0  0
 10 11  1  0  0  0
 11 12  1  0  0  0
 12 13  1  0  0  0
 13 14  1  0  0  0
 14  1  1  0  0  0
  1  2  2  0  0  0
  1  3  1  0  0  0
  3  4  1  0  0  0
  4  5  1  0  0  0
  5  6  1  0  0  0
  6  7  1  0  0  0
  7 19  1  0  0  0
 19 20  1  0  0  0
 19 21  1  0  0  0
 14 10  1  0  0  0
  7  3  1  0  0  0
 20 22  1  0  0  0
 21 23  1  0  0  0
M  END
> <minimizedAffinity>
-6.05242

> <CNNscore>
0.4655956626

> <CNNaffinity>
5.9327974319

> <CNN_VS>
2.7622847557

> <CNNaffinity_variance>
0.2456822842

$$$$
[H]OB(O[H])[C@@]1([H])N(C(=O)[C@@]2([H])N(C(=O)C(C([H])([H])[H])(C([H])([H])[H])C([H])([H])[H])C([H])([H])C([H])([H])C2([H])[H])C([H])([H])C([H])([H])C1([H])[H]


 23 24  0  0  0  0  0  0  0  0999 V2000
   13.1762   23.8419    0.1381 C   0  0  0  0  0  0  0  0  0  0  0  0
   12.4051   24.7081    0.5501 O   0  0  0  0  0  0  0  0  0  0  0  0
   12.6597   22.4902    0.1326 N   0  0  0  0  0  0  0  0  0  0  0  0
   13.3116   21.2688   -0.2872 C   0  0  0  0  0  0  0  0  0  0  0  0
   12.2104   20.4048   -0.8790 C   0  0  0  0  0  0  0  0  0  0  0  0
   10.9451   21.1287   -0.5560 C   0  0  0  0  0  0  0  0  0  0  0  0
   11.3254   22.0510    0.5556 C   0  0  0  0  0  0  0  0  0  0  0  0
   14.1212   25.2921   -2.5696 C   0  0  0  0  0  0  0  0  0  0  0  0
   12.8591   25.4197   -2.6051 O   0  0  0  0  0  0  0  0  0  0  0  0
   14.8334   24.6812   -1.5417 N   0  0  0  0  0  0  0  0  0  0  0  0
   16.3096   24.5693   -1.5578 C   0  0  0  0  0  0  0  0  0  0  0  0
   16.6504   24.9441   -0.1116 C   0  0  0  0  0  0  0  0  0  0  0  0
   15.3418   24.9076    0.6451 C   0  0  0  0  0  0  0  0  0  0  0  0
   14.5075   24.0410   -0.3279 C   0  0  0  0  0  0  0  0  0  0  0  0
   15.9949   26.6968   -3.4305 C   0  0  0  0  0  0  0  0  0  0  0  0
   14.7875   25.8874   -3.7914 C   0  0  0  0  0  0  0  0  0  0  0  0
   15.2605   24.7090   -4.6676 C   0  0  0  0  0  0  0  0  0  0  0  0
   13.7711   26.6104   -4.6326 C   0  0  0  0  0  0  0  0  0  0  0  0
   11.4321   21.1835    1.8912 B   0  0  0  0  0  0  0  0  0  0  0  0
   12.4307   21.5796    2.9014 O   0  0  0  0  0  0  0  0  0  0  0  0
   10.1837   20.6203    2.3982 O   0  0  0  0  0  0  0  0  0  0  0  0
   12.5504   20.8854    3.5756 H   0  0  0  0  0  0  0  0  0  0  0  0
    9.3857   21.0172    1.9996 H   0  0  0  0  0  0  0  0  0  0  0  0
 15 16  1  0  0  0
 16 17  1  0  0  0
 16 18  1  0  0  0
 16  8  1  0  0  0
  8  9  2  0  0  0
  8 10  1  0  0  0
 10 11  1  0  0  0
 11 12  1  0  0  0
 12 13  1  0  0  0
 13 14  1  0  0  0
 14  1  1  0  0  0
  1  2  2  0  0  0
  1  3  1  0  0  0
  3  4  1  0  0  0
  4  5  1  0  0  0
  5  6  1  0  0  0
  6  7  1  0  0  0
  7 19  1  0  0  0
 19 20  1  0  0  0
 19 21  1  0  0  0
 14 10  1  0  0  0
  7  3  1  0  0  0
 20 22  1  0  0  0
 21 23  1  0  0  0
M  END
> <minimizedAffinity>
-7.61063

> <CNNscore>
0.4580412805

> <CNNaffinity>
6.4235420227

> <CNN_VS>
2.9422473907

> <CNNaffinity_variance>
0.0474830568

$$$$
[H]OB(O[H])[C@@]1([H])N(C(=O)[C@@]2([H])N(C(=O)C(C([H])([H])[H])(C([H])([H])[H])C([H])([H])[H])C([H])([H])C([H])([H])C2([H])[H])C([H])([H])C([H])([H])C1([H])[H]


 23 24  0  0  0  0  0  0  0  0999 V2000
   12.9574   25.0461   -1.9139 C   0  0  0  0  0  0  0  0  0  0  0  0
   12.5821   26.1163   -1.4361 O   0  0  0  0  0  0  0  0  0  0  0  0
   14.1210   25.1131   -2.7715 N   0  0  0  0  0  0  0  0  0  0  0  0
   14.7967   24.0437   -3.4734 C   0  0  0  0  0  0  0  0  0  0  0  0
   16.2672   24.4273   -3.4772 C   0  0  0  0  0  0  0  0  0  0  0  0
   16.2966   25.8228   -2.9472 C   0  0  0  0  0  0  0  0  0  0  0  0
   14.8951   26.3093   -3.1208 C   0  0  0  0  0  0  0  0  0  0  0  0
   14.1170   22.5939   -0.1907 C   0  0  0  0  0  0  0  0  0  0  0  0
   14.9901   23.4988   -0.0195 O   0  0  0  0  0  0  0  0  0  0  0  0
   12.9526   22.7391   -0.9391 N   0  0  0  0  0  0  0  0  0  0  0  0
   11.9690   21.6436   -1.0955 C   0  0  0  0  0  0  0  0  0  0  0  0
   10.6505   22.4001   -0.9020 C   0  0  0  0  0  0  0  0  0  0  0  0
   10.9998   23.8690   -0.9841 C   0  0  0  0  0  0  0  0  0  0  0  0
   12.3650   23.7676   -1.7049 C   0  0  0  0  0  0  0  0  0  0  0  0
   13.3877   20.8422    1.4295 C   0  0  0  0  0  0  0  0  0  0  0  0
   14.4829   21.3088    0.5205 C   0  0  0  0  0  0  0  0  0  0  0  0
   14.6787   20.2310   -0.5657 C   0  0  0  0  0  0  0  0  0  0  0  0
   15.8305   21.4469    1.1749 C   0  0  0  0  0  0  0  0  0  0  0  0
   14.6915   26.6621   -4.6642 B   0  0  0  0  0  0  0  0  0  0  0  0
   13.3352   27.0110   -5.1261 O   0  0  0  0  0  0  0  0  0  0  0  0
   15.7986   27.3509   -5.3219 O   0  0  0  0  0  0  0  0  0  0  0  0
   13.2805   27.0162   -6.0996 H   0  0  0  0  0  0  0  0  0  0  0  0
   16.4513   27.7247   -4.6993 H   0  0  0  0  0  0  0  0  0  0  0  0
 15 16  1  0  0  0
 16 17  1  0  0  0
 16 18  1  0  0  0
 16  8  1  0  0  0
  8  9  2  0  0  0
  8 10  1  0  0  0
 10 11  1  0  0  0
 11 12  1  0  0  0
 12 13  1  0  0  0
 13 14  1  0  0  0
 14  1  1  0  0  0
  1  2  2  0  0  0
  1  3  1  0  0  0
  3  4  1  0  0  0
  4  5  1  0  0  0
  5  6  1  0  0  0
  6  7  1  0  0  0
  7 19  1  0  0  0
 19 20  1  0  0  0
 19 21  1  0  0  0
 14 10  1  0  0  0
  7  3  1  0  0  0
 20 22  1  0  0  0
 21 23  1  0  0  0
M  END
> <minimizedAffinity>
-7.18418

> <CNNscore>
0.4368229210

> <CNNaffinity>
6.2098169327

> <CNN_VS>
2.7125904560

> <CNNaffinity_variance>
0.1127080470

$$$$
[H]OB(O[H])[C@@]1([H])N(C(=O)[C@@]2([H])N(C(=O)C(C([H])([H])[H])(C([H])([H])[H])C([H])([H])[H])C([H])([H])C([H])([H])C2([H])[H])C([H])([H])C([H])([H])C1([H])[H]


 23 24  0  0  0  0  0  0  0  0999 V2000
   12.3582   22.8987   -1.0664 C   0  0  0  0  0  0  0  0  0  0  0  0
   11.4592   22.1995   -1.5327 O   0  0  0  0  0  0  0  0  0  0  0  0
   13.1619   22.2837   -0.0321 N   0  0  0  0  0  0  0  0  0  0  0  0
   14.2781   22.8377    0.7029 C   0  0  0  0  0  0  0  0  0  0  0  0
   15.2121   21.6676    0.9636 C   0  0  0  0  0  0  0  0  0  0  0  0
   14.4426   20.4638    0.5298 C   0  0  0  0  0  0  0  0  0  0  0  0
   13.0226   20.9265    0.5072 C   0  0  0  0  0  0  0  0  0  0  0  0
   14.6711   23.8814   -3.0695 C   0  0  0  0  0  0  0  0  0  0  0  0
   14.7763   22.6174   -3.1129 O   0  0  0  0  0  0  0  0  0  0  0  0
   13.7243   24.5787   -2.3249 N   0  0  0  0  0  0  0  0  0  0  0  0
   13.6507   26.0573   -2.3216 C   0  0  0  0  0  0  0  0  0  0  0  0
   12.1387   26.2784   -2.4362 C   0  0  0  0  0  0  0  0  0  0  0  0
   11.5017   24.9342   -2.1644 C   0  0  0  0  0  0  0  0  0  0  0  0
   12.6784   24.2345   -1.4434 C   0  0  0  0  0  0  0  0  0  0  0  0
   16.7224   25.3012   -3.1096 C   0  0  0  0  0  0  0  0  0  0  0  0
   15.7078   24.5683   -3.9323 C   0  0  0  0  0  0  0  0  0  0  0  0
   16.4498   23.4639   -4.7131 C   0  0  0  0  0  0  0  0  0  0  0  0
   15.0315   25.3998   -4.9880 C   0  0  0  0  0  0  0  0  0  0  0  0
   12.5077   20.9871    2.0169 B   0  0  0  0  0  0  0  0  0  0  0  0
   11.1953   21.6056    2.2811 O   0  0  0  0  0  0  0  0  0  0  0  0
   12.8808   19.8645    2.8731 O   0  0  0  0  0  0  0  0  0  0  0  0
   11.0633   21.7684    3.2333 H   0  0  0  0  0  0  0  0  0  0  0  0
   13.2103   19.0892    2.3795 H   0  0  0  0  0  0  0  0  0  0  0  0
 15 16  1  0  0  0
 16 17  1  0  0  0
 16 18  1  0  0  0
 16  8  1  0  0  0
  8  9  2  0  0  0
  8 10  1  0  0  0
 10 11  1  0  0  0
 11 12  1  0  0  0
 12 13  1  0  0  0
 13 14  1  0  0  0
 14  1  1  0  0  0
  1  2  2  0  0  0
  1  3  1  0  0  0
  3  4  1  0  0  0
  4  5  1  0  0  0
  5  6  1  0  0  0
  6  7  1  0  0  0
  7 19  1  0  0  0
 19 20  1  0  0  0
 19 21  1  0  0  0
 14 10  1  0  0  0
  7  3  1  0  0  0
 20 22  1  0  0  0
 21 23  1  0  0  0
M  END
> <minimizedAffinity>
-4.31519

> <CNNscore>
0.4339456558

> <CNNaffinity>
6.2422533035

> <CNN_VS>
2.7087986469

> <CNNaffinity_variance>
0.3339027762

$$$$
[H]OB(O[H])[C@@]1([H])N(C(=O)[C@@]2([H])N(C(=O)C(C([H])([H])[H])(C([H])([H])[H])C([H])([H])[H])C([H])([H])C([H])([H])C2([H])[H])C([H])([H])C([H])([H])C1([H])[H]


 23 24  0  0  0  0  0  0  0  0999 V2000
   13.6146   23.8150    0.2791 C   0  0  0  0  0  0  0  0  0  0  0  0
   14.4516   24.1549    1.1148 O   0  0  0  0  0  0  0  0  0  0  0  0
   13.2823   22.4068    0.2576 N   0  0  0  0  0  0  0  0  0  0  0  0
   12.3483   21.7053   -0.5960 C   0  0  0  0  0  0  0  0  0  0  0  0
   11.7711   20.5928    0.2635 C   0  0  0  0  0  0  0  0  0  0  0  0
   12.5916   20.6122    1.5107 C   0  0  0  0  0  0  0  0  0  0  0  0
   13.8279   21.3555    1.1232 C   0  0  0  0  0  0  0  0  0  0  0  0
   14.7382   24.9299   -2.5178 C   0  0  0  0  0  0  0  0  0  0  0  0
   15.6863   24.1948   -2.1039 O   0  0  0  0  0  0  0  0  0  0  0  0
   13.5268   25.1171   -1.8585 N   0  0  0  0  0  0  0  0  0  0  0  0
   12.4564   25.9857   -2.3986 C   0  0  0  0  0  0  0  0  0  0  0  0
   11.2181   25.1175   -2.1515 C   0  0  0  0  0  0  0  0  0  0  0  0
   11.6648   24.0152   -1.2178 C   0  0  0  0  0  0  0  0  0  0  0  0
   12.9513   24.6633   -0.6534 C   0  0  0  0  0  0  0  0  0  0  0  0
   13.9405   26.4483   -4.3298 C   0  0  0  0  0  0  0  0  0  0  0  0
   15.0700   25.5984   -3.8346 C   0  0  0  0  0  0  0  0  0  0  0  0
   16.2754   26.5268   -3.5791 C   0  0  0  0  0  0  0  0  0  0  0  0
   15.5708   24.5776   -4.8197 C   0  0  0  0  0  0  0  0  0  0  0  0
   14.7432   20.3641    0.2704 B   0  0  0  0  0  0  0  0  0  0  0  0
   14.8347   20.5792   -1.1856 O   0  0  0  0  0  0  0  0  0  0  0  0
   15.9473   19.8667    0.9303 O   0  0  0  0  0  0  0  0  0  0  0  0
   15.2502   19.8188   -1.6328 H   0  0  0  0  0  0  0  0  0  0  0  0
   16.1863   20.3655    1.7349 H   0  0  0  0  0  0  0  0  0  0  0  0
 15 16  1  0  0  0
 16 17  1  0  0  0
 16 18  1  0  0  0
 16  8  1  0  0  0
  8  9  2  0  0  0
  8 10  1  0  0  0
 10 11  1  0  0  0
 11 12  1  0  0  0
 12 13  1  0  0  0
 13 14  1  0  0  0
 14  1  1  0  0  0
  1  2  2  0  0  0
  1  3  1  0  0  0
  3  4  1  0  0  0
  4  5  1  0  0  0
  5  6  1  0  0  0
  6  7  1  0  0  0
  7 19  1  0  0  0
 19 20  1  0  0  0
 19 21  1  0  0  0
 14 10  1  0  0  0
  7  3  1  0  0  0
 20 22  1  0  0  0
 21 23  1  0  0  0
M  END
> <minimizedAffinity>
-6.53778

> <CNNscore>
0.4235175848

> <CNNaffinity>
6.5491361618

> <CNN_VS>
2.7736742496

> <CNNaffinity_variance>
0.2919672430

$$$$
[H]OB(O[H])[C@@]1([H])N(C(=O)[C@@]2([H])N(C(=O)C(C([H])([H])[H])(C([H])([H])[H])C([H])([H])[H])C([H])([H])C([H])([H])C2([H])[H])C([H])([H])C([H])([H])C1([H])[H]


 23 24  0  0  0  0  0  0  0  0999 V2000
   13.9192   24.3055   -2.5662 C   0  0  0  0  0  0  0  0  0  0  0  0
   13.5662   23.2727   -3.1349 O   0  0  0  0  0  0  0  0  0  0  0  0
   14.2693   25.4119   -3.4305 N   0  0  0  0  0  0  0  0  0  0  0  0
   14.7161   26.7404   -3.0721 C   0  0  0  0  0  0  0  0  0  0  0  0
   14.1452   27.6610   -4.1380 C   0  0  0  0  0  0  0  0  0  0  0  0
   13.5750   26.7421   -5.1673 C   0  0  0  0  0  0  0  0  0  0  0  0
   14.2408   25.4326   -4.8972 C   0  0  0  0  0  0  0  0  0  0  0  0
   11.7578   23.5435   -0.3133 C   0  0  0  0  0  0  0  0  0  0  0  0
   11.2198   23.1140   -1.3794 O   0  0  0  0  0  0  0  0  0  0  0  0
   13.0055   24.1557   -0.2391 N   0  0  0  0  0  0  0  0  0  0  0  0
   13.5807   24.6306    1.0397 C   0  0  0  0  0  0  0  0  0  0  0  0
   15.0287   24.1459    0.9109 C   0  0  0  0  0  0  0  0  0  0  0  0
   15.2047   23.7470   -0.5369 C   0  0  0  0  0  0  0  0  0  0  0  0
   14.0128   24.5120   -1.1599 C   0  0  0  0  0  0  0  0  0  0  0  0
    9.6578   22.5183    0.5609 C   0  0  0  0  0  0  0  0  0  0  0  0
   10.8799   23.3157    0.8985 C   0  0  0  0  0  0  0  0  0  0  0  0
   11.7081   22.4952    1.9089 C   0  0  0  0  0  0  0  0  0  0  0  0
   10.6091   24.6228    1.5925 C   0  0  0  0  0  0  0  0  0  0  0  0
   15.7273   25.5160   -5.4728 B   0  0  0  0  0  0  0  0  0  0  0  0
   16.6295   24.3728   -5.2406 O   0  0  0  0  0  0  0  0  0  0  0  0
   15.8923   26.2269   -6.7377 O   0  0  0  0  0  0  0  0  0  0  0  0
   17.5536   24.5990   -5.4541 H   0  0  0  0  0  0  0  0  0  0  0  0
   15.0528   26.3799   -7.2123 H   0  0  0  0  0  0  0  0  0  0  0  0
 15 16  1  0  0  0
 16 17  1  0  0  0
 16 18  1  0  0  0
 16  8  1  0  0  0
  8  9  2  0  0  0
  8 10  1  0  0  0
 10 11  1  0  0  0
 11 12  1  0  0  0
 12 13  1  0  0  0
 13 14  1  0  0  0
 14  1  1  0  0  0
  1  2  2  0  0  0
  1  3  1  0  0  0
  3  4  1  0  0  0
  4  5  1  0  0  0
  5  6  1  0  0  0
  6  7  1  0  0  0
  7 19  1  0  0  0
 19 20  1  0  0  0
 19 21  1  0  0  0
 14 10  1  0  0  0
  7  3  1  0  0  0
 20 22  1  0  0  0
 21 23  1  0  0  0
M  END
> <minimizedAffinity>
-1.23224

> <CNNscore>
0.3939634562

> <CNNaffinity>
5.6967039108

> <CNN_VS>
2.2442932129

> <CNNaffinity_variance>
0.7613823414

$$$$
[H]N=C(N([H])[H])N([H])C([H])([H])C([H])([H])C([H])([H])[C@@]([H])(C(=O)c1nc2c([H])c([H])c([H])c([H])c2s1)N([H])C(=O)[C@@]([H])(N([H])C(=O)[C@@]1([H])N(C(=O)[C@@]([H])(N([H])C(=O)N([H])[H])C([H])([H])c2c([H])c([H])c([H])c([H])c2[H])C([H])([H])C([H])([H])C1([H])[H])C([H])([H])C([H])([H])C([H])([H])N([H])C(=N[H])N([H])[H]


 65 68  0  0  0  0  0  0  0  0999 V2000
    8.3702   23.7622    2.9464 C   0  0  0  0  0  0  0  0  0  0  0  0
   10.0072   23.9477    0.9843 C   0  0  0  0  0  0  0  0  0  0  0  0
   10.6892   24.7621    1.6382 O   0  0  0  0  0  0  0  0  0  0  0  0
    8.8263   23.4426    1.6418 N   0  0  0  0  0  0  0  0  0  0  0  0
    8.2255   22.7483    1.0827 H   0  0  0  0  0  0  0  0  0  0  0  0
   12.6819   23.9187   -1.1493 C   0  0  0  0  0  0  0  0  0  0  0  0
   12.3369   25.1032   -1.4836 O   0  0  0  0  0  0  0  0  0  0  0  0
   11.6905   23.0851   -0.5846 N   0  0  0  0  0  0  0  0  0  0  0  0
   11.7364   21.7146   -0.1185 C   0  0  0  0  0  0  0  0  0  0  0  0
   10.5448   21.1574   -0.9365 C   0  0  0  0  0  0  0  0  0  0  0  0
    9.5124   22.2042   -0.6224 C   0  0  0  0  0  0  0  0  0  0  0  0
   10.3163   23.4741   -0.3882 C   0  0  0  0  0  0  0  0  0  0  0  0
   14.0847   23.5511   -1.4010 C   0  0  0  0  0  0  0  0  0  0  0  0
   15.6361   22.9632    1.0757 O   0  0  0  0  0  0  0  0  0  0  0  0
   15.1135   22.0590    0.4066 C   0  0  0  0  0  0  0  0  0  0  0  0
   14.3870   22.3204   -0.7511 N   0  0  0  0  0  0  0  0  0  0  0  0
   15.2878   20.7286    0.8678 N   0  0  0  0  0  0  0  0  0  0  0  0
   13.9864   21.4494   -1.2400 H   0  0  0  0  0  0  0  0  0  0  0  0
   15.9647   20.0574    0.4859 H   0  0  0  0  0  0  0  0  0  0  0  0
   14.6768   20.3902    1.6662 H   0  0  0  0  0  0  0  0  0  0  0  0
   14.4990   23.6451   -2.8546 C   0  0  0  0  0  0  0  0  0  0  0  0
   15.1892   24.9003   -3.1988 C   0  0  0  0  0  0  0  0  0  0  0  0
   16.2046   25.3229   -2.3307 C   0  0  0  0  0  0  0  0  0  0  0  0
   16.9160   26.4855   -2.5509 C   0  0  0  0  0  0  0  0  0  0  0  0
   16.6503   27.2819   -3.6462 C   0  0  0  0  0  0  0  0  0  0  0  0
   15.6579   26.8802   -4.5046 C   0  0  0  0  0  0  0  0  0  0  0  0
   14.9401   25.6958   -4.2695 C   0  0  0  0  0  0  0  0  0  0  0  0
    7.3629   22.6986    3.3237 C   0  0  0  0  0  0  0  0  0  0  0  0
    6.5141   22.3522    2.4360 O   0  0  0  0  0  0  0  0  0  0  0  0
    7.3072   22.0819    4.5737 N   0  0  0  0  0  0  0  0  0  0  0  0
    7.9722   22.3179    5.3239 H   0  0  0  0  0  0  0  0  0  0  0  0
    6.2713   21.0607    4.8496 C   0  0  0  0  0  0  0  0  0  0  0  0
    5.3487   21.5850    5.8927 C   0  0  0  0  0  0  0  0  0  0  0  0
    4.6039   20.8357    6.5139 O   0  0  0  0  0  0  0  0  0  0  0  0
    5.3471   23.0167    6.1646 C   0  0  0  0  0  0  0  0  0  0  0  0
    4.8908   24.0284    5.4415 N   0  0  0  0  0  0  0  0  0  0  0  0
    5.0021   25.2502    5.8762 C   0  0  0  0  0  0  0  0  0  0  0  0
    4.5709   26.4163    5.1883 C   0  0  0  0  0  0  0  0  0  0  0  0
    4.7652   27.6300    5.7552 C   0  0  0  0  0  0  0  0  0  0  0  0
    5.3559   27.8549    6.9681 C   0  0  0  0  0  0  0  0  0  0  0  0
    5.7816   26.7215    7.6506 C   0  0  0  0  0  0  0  0  0  0  0  0
    5.5955   25.4491    7.0896 C   0  0  0  0  0  0  0  0  0  0  0  0
    5.9688   23.8381    7.5459 S   0  0  0  0  0  0  0  0  0  0  0  0
    7.0273   19.8811    5.4000 C   0  0  0  0  0  0  0  0  0  0  0  0
    8.2272   20.2856    6.1941 C   0  0  0  0  0  0  0  0  0  0  0  0
    9.3921   19.3420    5.9575 C   0  0  0  0  0  0  0  0  0  0  0  0
   10.6341   20.0026    5.6789 N   0  0  0  0  0  0  0  0  0  0  0  0
   10.9824   20.7363    6.3761 H   0  0  0  0  0  0  0  0  0  0  0  0
   11.3824   19.6974    4.5174 C   0  0  0  0  0  0  0  0  0  0  0  0
   11.6280   18.4656    4.2822 N   0  0  0  0  0  0  0  0  0  0  0  0
   11.8621   20.6671    3.6108 N   0  0  0  0  0  0  0  0  0  0  0  0
   11.3066   17.6817    4.9004 H   0  0  0  0  0  0  0  0  0  0  0  0
   12.8826   20.8132    3.4369 H   0  0  0  0  0  0  0  0  0  0  0  0
   11.2181   21.3015    3.0505 H   0  0  0  0  0  0  0  0  0  0  0  0
    7.6584   25.0732    3.0850 C   0  0  0  0  0  0  0  0  0  0  0  0
    8.2311   26.0495    4.0453 C   0  0  0  0  0  0  0  0  0  0  0  0
    7.8686   27.4866    3.7092 C   0  0  0  0  0  0  0  0  0  0  0  0
    6.9007   27.5622    2.6439 N   0  0  0  0  0  0  0  0  0  0  0  0
    6.6363   26.7167    2.1124 H   0  0  0  0  0  0  0  0  0  0  0  0
    6.2787   28.8070    2.2912 C   0  0  0  0  0  0  0  0  0  0  0  0
    6.8425   29.8757    2.7109 N   0  0  0  0  0  0  0  0  0  0  0  0
    5.0791   28.8066    1.5051 N   0  0  0  0  0  0  0  0  0  0  0  0
    6.4992   30.8231    2.5279 H   0  0  0  0  0  0  0  0  0  0  0  0
    5.1388   28.7129    0.4786 H   0  0  0  0  0  0  0  0  0  0  0  0
    4.1394   28.8982    1.9517 H   0  0  0  0  0  0  0  0  0  0  0  0
 14 15  2  0  0  0
 15 16  1  0  0  0
 16 13  1  0  0  0
 13 21  1  0  0  0
 21 22  1  0  0  0
 22 23  2  0  0  0
 23 24  1  0  0  0
 24 25  2  0  0  0
 25 26  1  0  0  0
 26 27  2  0  0  0
 13  6  1  0  0  0
  6  7  2  0  0  0
  6  8  1  0  0  0
  8  9  1  0  0  0
  9 10  1  0  0  0
 10 11  1  0  0  0
 11 12  1  0  0  0
 12  2  1  0  0  0
  2  3  2  0  0  0
  2  4  1  0  0  0
  4  1  1  0  0  0
  1 28  1  0  0  0
 28 29  2  0  0  0
 28 30  1  0  0  0
 30 32  1  0  0  0
 32 44  1  0  0  0
 44 45  1  0  0  0
 45 46  1  0  0  0
 46 47  1  0  0  0
 47 49  1  0  0  0
 49 50  2  0  0  0
 49 51  1  0  0  0
 32 33  1  0  0  0
 33 34  2  0  0  0
 33 35  1  0  0  0
 35 36  2  0  0  0
 36 37  1  0  0  0
 37 38  2  0  0  0
 38 39  1  0  0  0
 39 40  2  0  0  0
 40 41  1  0  0  0
 41 42  2  0  0  0
 42 43  1  0  0  0
  1 55  1  0  0  0
 55 56  1  0  0  0
 56 57  1  0  0  0
 57 58  1  0  0  0
 58 60  1  0  0  0
 60 61  2  0  0  0
 60 62  1  0  0  0
 15 17  1  0  0  0
 27 22  1  0  0  0
 12  8  1  0  0  0
 43 35  1  0  0  0
 42 37  1  0  0  0
 16 18  1  0  0  0
  4  5  1  0  0  0
 30 31  1  0  0  0
 47 48  1  0  0  0
 50 52  1  0  0  0
 51 53  1  0  0  0
 51 54  1  0  0  0
 58 59  1  0  0  0
 61 63  1  0  0  0
 62 64  1  0  0  0
 62 65  1  0  0  0
 17 19  1  0  0  0
 17 20  1  0  0  0
M  END
> <minimizedAffinity>
-8.94085

> <CNNscore>
0.1244829223

> <CNNaffinity>
7.3580589294

> <CNN_VS>
0.9159526825

> <CNNaffinity_variance>
0.5166651011

$$$$
[H]N=C(N([H])[H])N([H])C([H])([H])C([H])([H])C([H])([H])[C@@]([H])(C(=O)c1nc2c([H])c([H])c([H])c([H])c2s1)N([H])C(=O)[C@@]([H])(N([H])C(=O)[C@@]1([H])N(C(=O)[C@@]([H])(N([H])C(=O)N([H])[H])C([H])([H])c2c([H])c([H])c([H])c([H])c2[H])C([H])([H])C([H])([H])C1([H])[H])C([H])([H])C([H])([H])C([H])([H])N([H])C(=N[H])N([H])[H]


 65 68  0  0  0  0  0  0  0  0999 V2000
    8.3495   24.4961    2.8318 C   0  0  0  0  0  0  0  0  0  0  0  0
    7.1567   22.5119    3.9290 C   0  0  0  0  0  0  0  0  0  0  0  0
    6.4881   22.3465    2.8891 O   0  0  0  0  0  0  0  0  0  0  0  0
    8.0980   23.6053    3.9066 N   0  0  0  0  0  0  0  0  0  0  0  0
    8.6715   23.7633    4.8019 H   0  0  0  0  0  0  0  0  0  0  0  0
    5.9966   19.4179    4.8172 C   0  0  0  0  0  0  0  0  0  0  0  0
    4.8421   19.9577    4.9147 O   0  0  0  0  0  0  0  0  0  0  0  0
    7.1234   20.2641    4.9217 N   0  0  0  0  0  0  0  0  0  0  0  0
    8.5439   19.9860    4.8718 C   0  0  0  0  0  0  0  0  0  0  0  0
    8.9557   20.6730    6.1977 C   0  0  0  0  0  0  0  0  0  0  0  0
    8.2686   21.9982    6.0186 C   0  0  0  0  0  0  0  0  0  0  0  0
    7.0546   21.6847    5.1574 C   0  0  0  0  0  0  0  0  0  0  0  0
    6.0215   17.9605    4.6138 C   0  0  0  0  0  0  0  0  0  0  0  0
    6.0628   15.0633    5.3149 O   0  0  0  0  0  0  0  0  0  0  0  0
    6.1732   15.9431    6.1822 C   0  0  0  0  0  0  0  0  0  0  0  0
    6.1555   17.2986    5.8678 N   0  0  0  0  0  0  0  0  0  0  0  0
    6.3171   15.5130    7.5265 N   0  0  0  0  0  0  0  0  0  0  0  0
    6.2588   17.9598    6.7106 H   0  0  0  0  0  0  0  0  0  0  0  0
    5.5631   15.4987    8.2236 H   0  0  0  0  0  0  0  0  0  0  0  0
    7.2718   15.1802    7.8474 H   0  0  0  0  0  0  0  0  0  0  0  0
    4.9213   17.4415    3.7118 C   0  0  0  0  0  0  0  0  0  0  0  0
    5.3252   17.2920    2.3029 C   0  0  0  0  0  0  0  0  0  0  0  0
    5.7190   16.0125    1.8897 C   0  0  0  0  0  0  0  0  0  0  0  0
    6.1214   15.7555    0.5942 C   0  0  0  0  0  0  0  0  0  0  0  0
    6.1500   16.7605   -0.3512 C   0  0  0  0  0  0  0  0  0  0  0  0
    5.7672   18.0189    0.0399 C   0  0  0  0  0  0  0  0  0  0  0  0
    5.3607   18.2684    1.3612 C   0  0  0  0  0  0  0  0  0  0  0  0
    9.5627   23.9614    2.1035 C   0  0  0  0  0  0  0  0  0  0  0  0
   10.3169   23.1493    2.7360 O   0  0  0  0  0  0  0  0  0  0  0  0
    9.9026   24.3024    0.7941 N   0  0  0  0  0  0  0  0  0  0  0  0
    9.3256   24.9471    0.2355 H   0  0  0  0  0  0  0  0  0  0  0  0
   11.1218   23.7352    0.1744 C   0  0  0  0  0  0  0  0  0  0  0  0
   12.1382   24.8141    0.0440 C   0  0  0  0  0  0  0  0  0  0  0  0
   12.3302   25.6161    0.9507 O   0  0  0  0  0  0  0  0  0  0  0  0
   12.9073   24.9002   -1.1907 C   0  0  0  0  0  0  0  0  0  0  0  0
   12.8681   25.7943   -2.1673 N   0  0  0  0  0  0  0  0  0  0  0  0
   13.6488   25.6730   -3.2016 C   0  0  0  0  0  0  0  0  0  0  0  0
   13.6874   26.5517   -4.3175 C   0  0  0  0  0  0  0  0  0  0  0  0
   14.5423   26.2940   -5.3347 C   0  0  0  0  0  0  0  0  0  0  0  0
   15.4048   25.2344   -5.3985 C   0  0  0  0  0  0  0  0  0  0  0  0
   15.3763   24.3679   -4.3122 C   0  0  0  0  0  0  0  0  0  0  0  0
   14.5008   24.6070   -3.2423 C   0  0  0  0  0  0  0  0  0  0  0  0
   14.1237   23.8226   -1.7639 S   0  0  0  0  0  0  0  0  0  0  0  0
   10.6881   23.2904   -1.1967 C   0  0  0  0  0  0  0  0  0  0  0  0
   10.7269   21.8051   -1.3595 C   0  0  0  0  0  0  0  0  0  0  0  0
   11.2356   21.1230   -0.1028 C   0  0  0  0  0  0  0  0  0  0  0  0
   12.6286   20.7850   -0.1425 N   0  0  0  0  0  0  0  0  0  0  0  0
   13.0338   20.4240   -1.0652 H   0  0  0  0  0  0  0  0  0  0  0  0
   13.4494   20.9226    1.0018 C   0  0  0  0  0  0  0  0  0  0  0  0
   12.8847   21.2770    2.0920 N   0  0  0  0  0  0  0  0  0  0  0  0
   14.8411   20.6868    1.0074 N   0  0  0  0  0  0  0  0  0  0  0  0
   11.8571   21.4684    2.1775 H   0  0  0  0  0  0  0  0  0  0  0  0
   15.5345   21.4385    1.2245 H   0  0  0  0  0  0  0  0  0  0  0  0
   15.2656   19.7350    0.7956 H   0  0  0  0  0  0  0  0  0  0  0  0
    8.6864   25.9041    3.2174 C   0  0  0  0  0  0  0  0  0  0  0  0
    7.6378   26.6729    3.9334 C   0  0  0  0  0  0  0  0  0  0  0  0
    7.3894   28.0408    3.3195 C   0  0  0  0  0  0  0  0  0  0  0  0
    5.9974   28.4105    3.3747 N   0  0  0  0  0  0  0  0  0  0  0  0
    5.4089   28.1262    4.1748 H   0  0  0  0  0  0  0  0  0  0  0  0
    5.3903   29.1803    2.3260 C   0  0  0  0  0  0  0  0  0  0  0  0
    6.1785   29.7925    1.5260 N   0  0  0  0  0  0  0  0  0  0  0  0
    3.9611   29.2353    2.2184 N   0  0  0  0  0  0  0  0  0  0  0  0
    5.8714   30.3724    0.7397 H   0  0  0  0  0  0  0  0  0  0  0  0
    3.4522   28.4680    1.7513 H   0  0  0  0  0  0  0  0  0  0  0  0
    3.4199   30.0399    2.6064 H   0  0  0  0  0  0  0  0  0  0  0  0
 14 15  2  0  0  0
 15 16  1  0  0  0
 16 13  1  0  0  0
 13 21  1  0  0  0
 21 22  1  0  0  0
 22 23  2  0  0  0
 23 24  1  0  0  0
 24 25  2  0  0  0
 25 26  1  0  0  0
 26 27  2  0  0  0
 13  6  1  0  0  0
  6  7  2  0  0  0
  6  8  1  0  0  0
  8  9  1  0  0  0
  9 10  1  0  0  0
 10 11  1  0  0  0
 11 12  1  0  0  0
 12  2  1  0  0  0
  2  3  2  0  0  0
  2  4  1  0  0  0
  4  1  1  0  0  0
  1 28  1  0  0  0
 28 29  2  0  0  0
 28 30  1  0  0  0
 30 32  1  0  0  0
 32 44  1  0  0  0
 44 45  1  0  0  0
 45 46  1  0  0  0
 46 47  1  0  0  0
 47 49  1  0  0  0
 49 50  2  0  0  0
 49 51  1  0  0  0
 32 33  1  0  0  0
 33 34  2  0  0  0
 33 35  1  0  0  0
 35 36  2  0  0  0
 36 37  1  0  0  0
 37 38  2  0  0  0
 38 39  1  0  0  0
 39 40  2  0  0  0
 40 41  1  0  0  0
 41 42  2  0  0  0
 42 43  1  0  0  0
  1 55  1  0  0  0
 55 56  1  0  0  0
 56 57  1  0  0  0
 57 58  1  0  0  0
 58 60  1  0  0  0
 60 61  2  0  0  0
 60 62  1  0  0  0
 15 17  1  0  0  0
 27 22  1  0  0  0
 12  8  1  0  0  0
 43 35  1  0  0  0
 42 37  1  0  0  0
 16 18  1  0  0  0
  4  5  1  0  0  0
 30 31  1  0  0  0
 47 48  1  0  0  0
 50 52  1  0  0  0
 51 53  1  0  0  0
 51 54  1  0  0  0
 58 59  1  0  0  0
 61 63  1  0  0  0
 62 64  1  0  0  0
 62 65  1  0  0  0
 17 19  1  0  0  0
 17 20  1  0  0  0
M  END
> <minimizedAffinity>
-9.09404

> <CNNscore>
0.1207813546

> <CNNaffinity>
7.2703504562

> <CNN_VS>
0.8781227469

> <CNNaffinity_variance>
0.6276211739

$$$$
[H]N=C(N([H])[H])N([H])C([H])([H])C([H])([H])C([H])([H])[C@@]([H])(C(=O)c1nc2c([H])c([H])c([H])c([H])c2s1)N([H])C(=O)[C@@]([H])(N([H])C(=O)[C@@]1([H])N(C(=O)[C@@]([H])(N([H])C(=O)N([H])[H])C([H])([H])c2c([H])c([H])c([H])c([H])c2[H])C([H])([H])C([H])([H])C1([H])[H])C([H])([H])C([H])([H])C([H])([H])N([H])C(=N[H])N([H])[H]


 65 68  0  0  0  0  0  0  0  0999 V2000
   10.2727   24.2604    0.9844 C   0  0  0  0  0  0  0  0  0  0  0  0
    8.5519   25.0926    2.6903 C   0  0  0  0  0  0  0  0  0  0  0  0
    7.6343   24.8069    1.8951 O   0  0  0  0  0  0  0  0  0  0  0  0
    9.8925   24.8228    2.2299 N   0  0  0  0  0  0  0  0  0  0  0  0
   10.6913   25.0756    2.9034 H   0  0  0  0  0  0  0  0  0  0  0  0
    6.4924   27.3586    4.2172 C   0  0  0  0  0  0  0  0  0  0  0  0
    7.2823   28.2634    3.7800 O   0  0  0  0  0  0  0  0  0  0  0  0
    7.0075   26.0491    4.3454 N   0  0  0  0  0  0  0  0  0  0  0  0
    6.4030   24.8183    4.8117 C   0  0  0  0  0  0  0  0  0  0  0  0
    7.4620   24.4349    5.8753 C   0  0  0  0  0  0  0  0  0  0  0  0
    8.7119   24.5956    5.0555 C   0  0  0  0  0  0  0  0  0  0  0  0
    8.3669   25.6767    4.0425 C   0  0  0  0  0  0  0  0  0  0  0  0
    5.1248   27.7897    4.5488 C   0  0  0  0  0  0  0  0  0  0  0  0
    4.5984   28.1582    7.4598 O   0  0  0  0  0  0  0  0  0  0  0  0
    4.9209   29.1098    6.7324 C   0  0  0  0  0  0  0  0  0  0  0  0
    5.1692   28.9507    5.3724 N   0  0  0  0  0  0  0  0  0  0  0  0
    5.0261   30.3857    7.3438 N   0  0  0  0  0  0  0  0  0  0  0  0
    5.4390   29.8540    4.8533 H   0  0  0  0  0  0  0  0  0  0  0  0
    4.3132   31.1231    7.2930 H   0  0  0  0  0  0  0  0  0  0  0  0
    5.9041   30.6064    7.8967 H   0  0  0  0  0  0  0  0  0  0  0  0
    4.1924   27.8650    3.3578 C   0  0  0  0  0  0  0  0  0  0  0  0
    4.7291   28.6429    2.2276 C   0  0  0  0  0  0  0  0  0  0  0  0
    4.5650   30.0333    2.2817 C   0  0  0  0  0  0  0  0  0  0  0  0
    5.0238   30.8619    1.2771 C   0  0  0  0  0  0  0  0  0  0  0  0
    5.6684   30.3451    0.1717 C   0  0  0  0  0  0  0  0  0  0  0  0
    5.8357   28.9847    0.1055 C   0  0  0  0  0  0  0  0  0  0  0  0
    5.3635   28.1516    1.1333 C   0  0  0  0  0  0  0  0  0  0  0  0
   10.3796   22.7671    1.2003 C   0  0  0  0  0  0  0  0  0  0  0  0
    9.7374   22.0101    0.3985 O   0  0  0  0  0  0  0  0  0  0  0  0
   11.1306   22.1751    2.2160 N   0  0  0  0  0  0  0  0  0  0  0  0
   11.6737   22.7379    2.8860 H   0  0  0  0  0  0  0  0  0  0  0  0
   11.1586   20.7011    2.3527 C   0  0  0  0  0  0  0  0  0  0  0  0
   11.0504   20.3524    3.7952 C   0  0  0  0  0  0  0  0  0  0  0  0
   12.0160   19.9253    4.4176 O   0  0  0  0  0  0  0  0  0  0  0  0
    9.7656   20.5297    4.4597 C   0  0  0  0  0  0  0  0  0  0  0  0
    8.5576   20.7317    3.9551 N   0  0  0  0  0  0  0  0  0  0  0  0
    7.5317   20.8758    4.7430 C   0  0  0  0  0  0  0  0  0  0  0  0
    6.1946   21.1152    4.3261 C   0  0  0  0  0  0  0  0  0  0  0  0
    5.2253   21.2610    5.2596 C   0  0  0  0  0  0  0  0  0  0  0  0
    5.4102   21.1982    6.6132 C   0  0  0  0  0  0  0  0  0  0  0  0
    6.7143   20.9641    7.0332 C   0  0  0  0  0  0  0  0  0  0  0  0
    7.7416   20.8093    6.0905 C   0  0  0  0  0  0  0  0  0  0  0  0
    9.4347   20.5396    6.1507 S   0  0  0  0  0  0  0  0  0  0  0  0
   12.5132   20.2904    1.8407 C   0  0  0  0  0  0  0  0  0  0  0  0
   13.3601   21.4587    1.4510 C   0  0  0  0  0  0  0  0  0  0  0  0
   14.5939   21.0177    0.6850 C   0  0  0  0  0  0  0  0  0  0  0  0
   14.3160   20.4871   -0.6179 N   0  0  0  0  0  0  0  0  0  0  0  0
   14.6302   19.4865   -0.8324 H   0  0  0  0  0  0  0  0  0  0  0  0
   13.6460   21.2590   -1.5964 C   0  0  0  0  0  0  0  0  0  0  0  0
   14.3595   21.8072   -2.5037 N   0  0  0  0  0  0  0  0  0  0  0  0
   12.2478   21.4499   -1.6290 N   0  0  0  0  0  0  0  0  0  0  0  0
   15.4028   21.7141   -2.5565 H   0  0  0  0  0  0  0  0  0  0  0  0
   11.8100   22.3937   -1.5260 H   0  0  0  0  0  0  0  0  0  0  0  0
   11.5595   20.6503   -1.7631 H   0  0  0  0  0  0  0  0  0  0  0  0
   11.6029   24.6971    0.4510 C   0  0  0  0  0  0  0  0  0  0  0  0
   11.7513   24.7442   -1.0251 C   0  0  0  0  0  0  0  0  0  0  0  0
   12.9005   25.6326   -1.4724 C   0  0  0  0  0  0  0  0  0  0  0  0
   12.7601   26.0424   -2.8470 N   0  0  0  0  0  0  0  0  0  0  0  0
   11.8781   26.4622   -3.1834 H   0  0  0  0  0  0  0  0  0  0  0  0
   13.8351   25.8807   -3.7847 C   0  0  0  0  0  0  0  0  0  0  0  0
   13.9858   26.8031   -4.6579 N   0  0  0  0  0  0  0  0  0  0  0  0
   14.6758   24.7210   -3.7118 N   0  0  0  0  0  0  0  0  0  0  0  0
   14.7125   26.8057   -5.3795 H   0  0  0  0  0  0  0  0  0  0  0  0
   15.4555   24.6946   -3.0356 H   0  0  0  0  0  0  0  0  0  0  0  0
   14.5144   23.8958   -4.3315 H   0  0  0  0  0  0  0  0  0  0  0  0
 14 15  2  0  0  0
 15 16  1  0  0  0
 16 13  1  0  0  0
 13 21  1  0  0  0
 21 22  1  0  0  0
 22 23  2  0  0  0
 23 24  1  0  0  0
 24 25  2  0  0  0
 25 26  1  0  0  0
 26 27  2  0  0  0
 13  6  1  0  0  0
  6  7  2  0  0  0
  6  8  1  0  0  0
  8  9  1  0  0  0
  9 10  1  0  0  0
 10 11  1  0  0  0
 11 12  1  0  0  0
 12  2  1  0  0  0
  2  3  2  0  0  0
  2  4  1  0  0  0
  4  1  1  0  0  0
  1 28  1  0  0  0
 28 29  2  0  0  0
 28 30  1  0  0  0
 30 32  1  0  0  0
 32 44  1  0  0  0
 44 45  1  0  0  0
 45 46  1  0  0  0
 46 47  1  0  0  0
 47 49  1  0  0  0
 49 50  2  0  0  0
 49 51  1  0  0  0
 32 33  1  0  0  0
 33 34  2  0  0  0
 33 35  1  0  0  0
 35 36  2  0  0  0
 36 37  1  0  0  0
 37 38  2  0  0  0
 38 39  1  0  0  0
 39 40  2  0  0  0
 40 41  1  0  0  0
 41 42  2  0  0  0
 42 43  1  0  0  0
  1 55  1  0  0  0
 55 56  1  0  0  0
 56 57  1  0  0  0
 57 58  1  0  0  0
 58 60  1  0  0  0
 60 61  2  0  0  0
 60 62  1  0  0  0
 15 17  1  0  0  0
 27 22  1  0  0  0
 12  8  1  0  0  0
 43 35  1  0  0  0
 42 37  1  0  0  0
 16 18  1  0  0  0
  4  5  1  0  0  0
 30 31  1  0  0  0
 47 48  1  0  0  0
 50 52  1  0  0  0
 51 53  1  0  0  0
 51 54  1  0  0  0
 58 59  1  0  0  0
 61 63  1  0  0  0
 62 64  1  0  0  0
 62 65  1  0  0  0
 17 19  1  0  0  0
 17 20  1  0  0  0
M  END
> <minimizedAffinity>
-7.50686

> <CNNscore>
0.0816529468

> <CNNaffinity>
6.7060866356

> <CNN_VS>
0.5475717187

> <CNNaffinity_variance>
1.3312118053

$$$$
[H]N=C(N([H])[H])N([H])C([H])([H])C([H])([H])C([H])([H])[C@@]([H])(C(=O)c1nc2c([H])c([H])c([H])c([H])c2s1)N([H])C(=O)[C@@]([H])(N([H])C(=O)[C@@]1([H])N(C(=O)[C@@]([H])(N([H])C(=O)N([H])[H])C([H])([H])c2c([H])c([H])c([H])c([H])c2[H])C([H])([H])C([H])([H])C1([H])[H])C([H])([H])C([H])([H])C([H])([H])N([H])C(=N[H])N([H])[H]


 65 68  0  0  0  0  0  0  0  0999 V2000
    7.8236   20.7198   -0.7290 C   0  0  0  0  0  0  0  0  0  0  0  0
   10.3468   21.0406   -1.0362 C   0  0  0  0  0  0  0  0  0  0  0  0
   10.1468   21.4562   -2.1951 O   0  0  0  0  0  0  0  0  0  0  0  0
    9.1714   20.6599   -0.2909 N   0  0  0  0  0  0  0  0  0  0  0  0
    9.3336   20.2901    0.7053 H   0  0  0  0  0  0  0  0  0  0  0  0
   13.5411   22.1561   -1.5458 C   0  0  0  0  0  0  0  0  0  0  0  0
   13.6810   21.1705   -2.3475 O   0  0  0  0  0  0  0  0  0  0  0  0
   12.5327   22.0580   -0.5608 N   0  0  0  0  0  0  0  0  0  0  0  0
   12.1233   22.9653    0.4913 C   0  0  0  0  0  0  0  0  0  0  0  0
   12.2108   21.9818    1.6849 C   0  0  0  0  0  0  0  0  0  0  0  0
   11.4403   20.8238    1.1141 C   0  0  0  0  0  0  0  0  0  0  0  0
   11.6752   20.9123   -0.3862 C   0  0  0  0  0  0  0  0  0  0  0  0
   14.4612   23.2890   -1.7362 C   0  0  0  0  0  0  0  0  0  0  0  0
   16.4015   25.4146   -0.9594 O   0  0  0  0  0  0  0  0  0  0  0  0
   16.2229   24.4094   -0.2551 C   0  0  0  0  0  0  0  0  0  0  0  0
   15.3202   23.4104   -0.6067 N   0  0  0  0  0  0  0  0  0  0  0  0
   16.9848   24.3105    0.9376 N   0  0  0  0  0  0  0  0  0  0  0  0
   15.2595   22.5907    0.0881 H   0  0  0  0  0  0  0  0  0  0  0  0
   17.8273   23.7346    1.0515 H   0  0  0  0  0  0  0  0  0  0  0  0
   16.6686   24.8683    1.7827 H   0  0  0  0  0  0  0  0  0  0  0  0
   15.1455   23.3117   -3.0869 C   0  0  0  0  0  0  0  0  0  0  0  0
   14.8804   24.5312   -3.8700 C   0  0  0  0  0  0  0  0  0  0  0  0
   13.8959   25.3980   -3.3778 C   0  0  0  0  0  0  0  0  0  0  0  0
   13.5609   26.5676   -4.0304 C   0  0  0  0  0  0  0  0  0  0  0  0
   14.1908   26.9296   -5.2037 C   0  0  0  0  0  0  0  0  0  0  0  0
   15.1569   26.0895   -5.6975 C   0  0  0  0  0  0  0  0  0  0  0  0
   15.4885   24.9015   -5.0252 C   0  0  0  0  0  0  0  0  0  0  0  0
    7.0050   21.1816    0.4563 C   0  0  0  0  0  0  0  0  0  0  0  0
    5.9505   21.8581    0.2141 O   0  0  0  0  0  0  0  0  0  0  0  0
    7.3335   20.9150    1.7856 N   0  0  0  0  0  0  0  0  0  0  0  0
    8.1687   20.3677    2.0375 H   0  0  0  0  0  0  0  0  0  0  0  0
    6.4732   21.4254    2.8772 C   0  0  0  0  0  0  0  0  0  0  0  0
    7.3034   22.2542    3.7926 C   0  0  0  0  0  0  0  0  0  0  0  0
    8.1056   21.7377    4.5620 O   0  0  0  0  0  0  0  0  0  0  0  0
    7.1444   23.7023    3.7572 C   0  0  0  0  0  0  0  0  0  0  0  0
    6.2267   24.4800    4.3119 N   0  0  0  0  0  0  0  0  0  0  0  0
    6.2677   25.7698    4.1416 C   0  0  0  0  0  0  0  0  0  0  0  0
    5.3351   26.7044    4.6665 C   0  0  0  0  0  0  0  0  0  0  0  0
    5.4924   28.0212    4.3954 C   0  0  0  0  0  0  0  0  0  0  0  0
    6.4958   28.5623    3.6399 C   0  0  0  0  0  0  0  0  0  0  0  0
    7.4146   27.6576    3.1211 C   0  0  0  0  0  0  0  0  0  0  0  0
    7.2789   26.2861    3.3833 C   0  0  0  0  0  0  0  0  0  0  0  0
    8.1295   24.8615    2.9478 S   0  0  0  0  0  0  0  0  0  0  0  0
    6.0029   20.1956    3.6067 C   0  0  0  0  0  0  0  0  0  0  0  0
    5.1133   19.3343    2.7696 C   0  0  0  0  0  0  0  0  0  0  0  0
    4.7028   18.0755    3.5115 C   0  0  0  0  0  0  0  0  0  0  0  0
    5.5223   16.9338    3.2265 N   0  0  0  0  0  0  0  0  0  0  0  0
    6.5239   16.9251    3.6041 H   0  0  0  0  0  0  0  0  0  0  0  0
    5.0269   15.8465    2.4686 C   0  0  0  0  0  0  0  0  0  0  0  0
    3.7613   15.6711    2.4487 N   0  0  0  0  0  0  0  0  0  0  0  0
    5.8437   14.9582    1.7364 N   0  0  0  0  0  0  0  0  0  0  0  0
    3.0824   16.2853    2.9604 H   0  0  0  0  0  0  0  0  0  0  0  0
    5.8937   13.9368    1.9538 H   0  0  0  0  0  0  0  0  0  0  0  0
    6.4514   15.2718    0.9219 H   0  0  0  0  0  0  0  0  0  0  0  0
    7.2217   19.4190   -1.1653 C   0  0  0  0  0  0  0  0  0  0  0  0
    6.2883   19.4648   -2.3185 C   0  0  0  0  0  0  0  0  0  0  0  0
    4.8375   19.2732   -1.9084 C   0  0  0  0  0  0  0  0  0  0  0  0
    4.7093   18.3768   -0.7871 N   0  0  0  0  0  0  0  0  0  0  0  0
    4.8101   18.7261    0.1799 H   0  0  0  0  0  0  0  0  0  0  0  0
    4.4394   16.9798   -0.9788 C   0  0  0  0  0  0  0  0  0  0  0  0
    5.4455   16.1901   -0.9786 N   0  0  0  0  0  0  0  0  0  0  0  0
    3.0886   16.5336   -1.1614 N   0  0  0  0  0  0  0  0  0  0  0  0
    5.3866   15.1754   -1.1049 H   0  0  0  0  0  0  0  0  0  0  0  0
    2.4808   16.3892   -0.3394 H   0  0  0  0  0  0  0  0  0  0  0  0
    2.7030   16.3517   -2.1149 H   0  0  0  0  0  0  0  0  0  0  0  0
 14 15  2  0  0  0
 15 16  1  0  0  0
 16 13  1  0  0  0
 13 21  1  0  0  0
 21 22  1  0  0  0
 22 23  2  0  0  0
 23 24  1  0  0  0
 24 25  2  0  0  0
 25 26  1  0  0  0
 26 27  2  0  0  0
 13  6  1  0  0  0
  6  7  2  0  0  0
  6  8  1  0  0  0
  8  9  1  0  0  0
  9 10  1  0  0  0
 10 11  1  0  0  0
 11 12  1  0  0  0
 12  2  1  0  0  0
  2  3  2  0  0  0
  2  4  1  0  0  0
  4  1  1  0  0  0
  1 28  1  0  0  0
 28 29  2  0  0  0
 28 30  1  0  0  0
 30 32  1  0  0  0
 32 44  1  0  0  0
 44 45  1  0  0  0
 45 46  1  0  0  0
 46 47  1  0  0  0
 47 49  1  0  0  0
 49 50  2  0  0  0
 49 51  1  0  0  0
 32 33  1  0  0  0
 33 34  2  0  0  0
 33 35  1  0  0  0
 35 36  2  0  0  0
 36 37  1  0  0  0
 37 38  2  0  0  0
 38 39  1  0  0  0
 39 40  2  0  0  0
 40 41  1  0  0  0
 41 42  2  0  0  0
 42 43  1  0  0  0
  1 55  1  0  0  0
 55 56  1  0  0  0
 56 57  1  0  0  0
 57 58  1  0  0  0
 58 60  1  0  0  0
 60 61  2  0  0  0
 60 62  1  0  0  0
 15 17  1  0  0  0
 27 22  1  0  0  0
 12  8  1  0  0  0
 43 35  1  0  0  0
 42 37  1  0  0  0
 16 18  1  0  0  0
  4  5  1  0  0  0
 30 31  1  0  0  0
 47 48  1  0  0  0
 50 52  1  0  0  0
 51 53  1  0  0  0
 51 54  1  0  0  0
 58 59  1  0  0  0
 61 63  1  0  0  0
 62 64  1  0  0  0
 62 65  1  0  0  0
 17 19  1  0  0  0
 17 20  1  0  0  0
M  END
> <minimizedAffinity>
-9.21712

> <CNNscore>
0.0712241679

> <CNNaffinity>
6.8658661842

> <CNN_VS>
0.4890156090

> <CNNaffinity_variance>
1.0265703201

$$$$
[H]N=C(N([H])[H])N([H])C([H])([H])C([H])([H])C([H])([H])[C@@]([H])(C(=O)c1nc2c([H])c([H])c([H])c([H])c2s1)N([H])C(=O)[C@@]([H])(N([H])C(=O)[C@@]1([H])N(C(=O)[C@@]([H])(N([H])C(=O)N([H])[H])C([H])([H])c2c([H])c([H])c([H])c([H])c2[H])C([H])([H])C([H])([H])C1([H])[H])C([H])([H])C([H])([H])C([H])([H])N([H])C(=N[H])N([H])[H]


 65 68  0  0  0  0  0  0  0  0999 V2000
    9.4614   21.3438    5.7217 C   0  0  0  0  0  0  0  0  0  0  0  0
   10.2778   22.5372    3.6067 C   0  0  0  0  0  0  0  0  0  0  0  0
   10.8723   21.4978    3.2570 O   0  0  0  0  0  0  0  0  0  0  0  0
    9.5658   22.4655    4.8597 N   0  0  0  0  0  0  0  0  0  0  0  0
    9.0590   23.3593    5.1756 H   0  0  0  0  0  0  0  0  0  0  0  0
   11.4052   23.7200    0.6005 C   0  0  0  0  0  0  0  0  0  0  0  0
   12.5242   23.9268    1.1827 O   0  0  0  0  0  0  0  0  0  0  0  0
   10.2514   23.6437    1.4126 N   0  0  0  0  0  0  0  0  0  0  0  0
    8.8556   23.4383    1.0850 C   0  0  0  0  0  0  0  0  0  0  0  0
    8.2670   24.6671    1.8220 C   0  0  0  0  0  0  0  0  0  0  0  0
    8.9344   24.5023    3.1591 C   0  0  0  0  0  0  0  0  0  0  0  0
   10.2523   23.8108    2.8445 C   0  0  0  0  0  0  0  0  0  0  0  0
   11.4450   23.5921   -0.8652 C   0  0  0  0  0  0  0  0  0  0  0  0
   11.1126   20.6307   -0.7863 O   0  0  0  0  0  0  0  0  0  0  0  0
   10.2390   21.3699   -1.2646 C   0  0  0  0  0  0  0  0  0  0  0  0
   10.3822   22.7534   -1.3073 N   0  0  0  0  0  0  0  0  0  0  0  0
    9.0725   20.7461   -1.7776 N   0  0  0  0  0  0  0  0  0  0  0  0
    9.5541   23.2805   -1.7483 H   0  0  0  0  0  0  0  0  0  0  0  0
    8.8876   20.5718   -2.7726 H   0  0  0  0  0  0  0  0  0  0  0  0
    8.3274   20.4332   -1.0905 H   0  0  0  0  0  0  0  0  0  0  0  0
   11.5908   24.9089   -1.5988 C   0  0  0  0  0  0  0  0  0  0  0  0
   12.8497   25.0358   -2.3535 C   0  0  0  0  0  0  0  0  0  0  0  0
   12.9916   26.1717   -3.1613 C   0  0  0  0  0  0  0  0  0  0  0  0
   14.1262   26.3934   -3.9161 C   0  0  0  0  0  0  0  0  0  0  0  0
   15.1734   25.4946   -3.9016 C   0  0  0  0  0  0  0  0  0  0  0  0
   15.0477   24.3773   -3.1150 C   0  0  0  0  0  0  0  0  0  0  0  0
   13.8879   24.1620   -2.3521 C   0  0  0  0  0  0  0  0  0  0  0  0
    8.5484   20.3539    5.0326 C   0  0  0  0  0  0  0  0  0  0  0  0
    9.0510   19.2330    4.6875 O   0  0  0  0  0  0  0  0  0  0  0  0
    7.2027   20.5935    4.7537 N   0  0  0  0  0  0  0  0  0  0  0  0
    6.7444   21.4775    5.0167 H   0  0  0  0  0  0  0  0  0  0  0  0
    6.3959   19.5638    4.0603 C   0  0  0  0  0  0  0  0  0  0  0  0
    5.2759   20.2345    3.3463 C   0  0  0  0  0  0  0  0  0  0  0  0
    4.3988   20.8297    3.9615 O   0  0  0  0  0  0  0  0  0  0  0  0
    5.2408   20.1707    1.8909 C   0  0  0  0  0  0  0  0  0  0  0  0
    4.7567   21.0276    1.0043 N   0  0  0  0  0  0  0  0  0  0  0  0
    4.8216   20.7637   -0.2686 C   0  0  0  0  0  0  0  0  0  0  0  0
    4.3235   21.5898   -1.3119 C   0  0  0  0  0  0  0  0  0  0  0  0
    4.4460   21.1811   -2.5965 C   0  0  0  0  0  0  0  0  0  0  0  0
    5.0226   20.0105   -3.0062 C   0  0  0  0  0  0  0  0  0  0  0  0
    5.5138   19.1941   -1.9943 C   0  0  0  0  0  0  0  0  0  0  0  0
    5.4015   19.5889   -0.6528 C   0  0  0  0  0  0  0  0  0  0  0  0
    5.8280   18.9157    0.8664 S   0  0  0  0  0  0  0  0  0  0  0  0
    5.8398   18.7013    5.1615 C   0  0  0  0  0  0  0  0  0  0  0  0
    6.1423   17.2508    4.9655 C   0  0  0  0  0  0  0  0  0  0  0  0
    5.1787   16.6116    3.9824 C   0  0  0  0  0  0  0  0  0  0  0  0
    5.7379   15.5201    3.2394 N   0  0  0  0  0  0  0  0  0  0  0  0
    6.4978   14.9286    3.7069 H   0  0  0  0  0  0  0  0  0  0  0  0
    5.3017   15.2278    1.9254 C   0  0  0  0  0  0  0  0  0  0  0  0
    4.0805   14.8834    1.7735 N   0  0  0  0  0  0  0  0  0  0  0  0
    6.1299   15.3009    0.7848 N   0  0  0  0  0  0  0  0  0  0  0  0
    3.3965   14.8074    2.5650 H   0  0  0  0  0  0  0  0  0  0  0  0
    6.3477   14.4637    0.1977 H   0  0  0  0  0  0  0  0  0  0  0  0
    6.5769   16.2073    0.4537 H   0  0  0  0  0  0  0  0  0  0  0  0
    8.8479   21.6075    7.0629 C   0  0  0  0  0  0  0  0  0  0  0  0
    8.8559   23.0131    7.5398 C   0  0  0  0  0  0  0  0  0  0  0  0
    7.4588   23.5959    7.6750 C   0  0  0  0  0  0  0  0  0  0  0  0
    6.8623   23.8666    6.3912 N   0  0  0  0  0  0  0  0  0  0  0  0
    7.4232   24.2758    5.6262 H   0  0  0  0  0  0  0  0  0  0  0  0
    5.4790   23.5777    6.1381 C   0  0  0  0  0  0  0  0  0  0  0  0
    4.8147   24.4531    5.4837 N   0  0  0  0  0  0  0  0  0  0  0  0
    4.9076   22.3527    6.6178 N   0  0  0  0  0  0  0  0  0  0  0  0
    3.8239   24.3662    5.2392 H   0  0  0  0  0  0  0  0  0  0  0  0
    5.0375   21.4812    6.0798 H   0  0  0  0  0  0  0  0  0  0  0  0
    4.3601   22.3226    7.5068 H   0  0  0  0  0  0  0  0  0  0  0  0
 14 15  2  0  0  0
 15 16  1  0  0  0
 16 13  1  0  0  0
 13 21  1  0  0  0
 21 22  1  0  0  0
 22 23  2  0  0  0
 23 24  1  0  0  0
 24 25  2  0  0  0
 25 26  1  0  0  0
 26 27  2  0  0  0
 13  6  1  0  0  0
  6  7  2  0  0  0
  6  8  1  0  0  0
  8  9  1  0  0  0
  9 10  1  0  0  0
 10 11  1  0  0  0
 11 12  1  0  0  0
 12  2  1  0  0  0
  2  3  2  0  0  0
  2  4  1  0  0  0
  4  1  1  0  0  0
  1 28  1  0  0  0
 28 29  2  0  0  0
 28 30  1  0  0  0
 30 32  1  0  0  0
 32 44  1  0  0  0
 44 45  1  0  0  0
 45 46  1  0  0  0
 46 47  1  0  0  0
 47 49  1  0  0  0
 49 50  2  0  0  0
 49 51  1  0  0  0
 32 33  1  0  0  0
 33 34  2  0  0  0
 33 35  1  0  0  0
 35 36  2  0  0  0
 36 37  1  0  0  0
 37 38  2  0  0  0
 38 39  1  0  0  0
 39 40  2  0  0  0
 40 41  1  0  0  0
 41 42  2  0  0  0
 42 43  1  0  0  0
  1 55  1  0  0  0
 55 56  1  0  0  0
 56 57  1  0  0  0
 57 58  1  0  0  0
 58 60  1  0  0  0
 60 61  2  0  0  0
 60 62  1  0  0  0
 15 17  1  0  0  0
 27 22  1  0  0  0
 12  8  1  0  0  0
 43 35  1  0  0  0
 42 37  1  0  0  0
 16 18  1  0  0  0
  4  5  1  0  0  0
 30 31  1  0  0  0
 47 48  1  0  0  0
 50 52  1  0  0  0
 51 53  1  0  0  0
 51 54  1  0  0  0
 58 59  1  0  0  0
 61 63  1  0  0  0
 62 64  1  0  0  0
 62 65  1  0  0  0
 17 19  1  0  0  0
 17 20  1  0  0  0
M  END
> <minimizedAffinity>
-8.40959

> <CNNscore>
0.0668438599

> <CNNaffinity>
6.5378217697

> <CNN_VS>
0.4370132387

> <CNNaffinity_variance>
1.5698168278

$$$$
[H]N=C(N([H])[H])N([H])C([H])([H])C([H])([H])C([H])([H])[C@@]([H])(C(=O)c1nc2c([H])c([H])c([H])c([H])c2s1)N([H])C(=O)[C@@]([H])(N([H])C(=O)[C@@]1([H])N(C(=O)[C@@]([H])(N([H])C(=O)N([H])[H])C([H])([H])c2c([H])c([H])c([H])c([H])c2[H])C([H])([H])C([H])([H])C1([H])[H])C([H])([H])C([H])([H])C([H])([H])N([H])C(=N[H])N([H])[H]


 65 68  0  0  0  0  0  0  0  0999 V2000
   10.4124   24.1285    0.7493 C   0  0  0  0  0  0  0  0  0  0  0  0
    8.9023   24.6981    2.7391 C   0  0  0  0  0  0  0  0  0  0  0  0
    7.9243   24.2286    2.1235 O   0  0  0  0  0  0  0  0  0  0  0  0
   10.1656   24.6551    2.0431 N   0  0  0  0  0  0  0  0  0  0  0  0
   11.0129   25.0672    2.5605 H   0  0  0  0  0  0  0  0  0  0  0  0
    7.3655   27.3057    4.3347 C   0  0  0  0  0  0  0  0  0  0  0  0
    8.3150   28.0403    3.8956 O   0  0  0  0  0  0  0  0  0  0  0  0
    7.6079   25.9173    4.4353 N   0  0  0  0  0  0  0  0  0  0  0  0
    6.7747   24.8257    4.8955 C   0  0  0  0  0  0  0  0  0  0  0  0
    7.7506   24.2186    5.9341 C   0  0  0  0  0  0  0  0  0  0  0  0
    8.9947   24.1383    5.0938 C   0  0  0  0  0  0  0  0  0  0  0  0
    8.8594   25.2840    4.1024 C   0  0  0  0  0  0  0  0  0  0  0  0
    6.1182   27.9977    4.6972 C   0  0  0  0  0  0  0  0  0  0  0  0
    5.0444   29.7018    2.4996 O   0  0  0  0  0  0  0  0  0  0  0  0
    4.6271   28.5496    2.6911 C   0  0  0  0  0  0  0  0  0  0  0  0
    5.1201   27.7443    3.7133 N   0  0  0  0  0  0  0  0  0  0  0  0
    3.6120   28.0754    1.8208 N   0  0  0  0  0  0  0  0  0  0  0  0
    4.6742   26.7667    3.7740 H   0  0  0  0  0  0  0  0  0  0  0  0
    2.6119   28.0342    2.0504 H   0  0  0  0  0  0  0  0  0  0  0  0
    3.8962   27.7333    0.8577 H   0  0  0  0  0  0  0  0  0  0  0  0
    5.6900   27.7912    6.1351 C   0  0  0  0  0  0  0  0  0  0  0  0
    4.7374   26.6829    6.3211 C   0  0  0  0  0  0  0  0  0  0  0  0
    4.9692   25.8240    7.4035 C   0  0  0  0  0  0  0  0  0  0  0  0
    4.1447   24.7497    7.6723 C   0  0  0  0  0  0  0  0  0  0  0  0
    3.0501   24.4802    6.8762 C   0  0  0  0  0  0  0  0  0  0  0  0
    2.8113   25.3132    5.8121 C   0  0  0  0  0  0  0  0  0  0  0  0
    3.6579   26.4026    5.5480 C   0  0  0  0  0  0  0  0  0  0  0  0
   10.5532   22.6313    0.9128 C   0  0  0  0  0  0  0  0  0  0  0  0
    9.9642   21.8891    0.0581 O   0  0  0  0  0  0  0  0  0  0  0  0
   11.2807   22.0207    1.9346 N   0  0  0  0  0  0  0  0  0  0  0  0
   11.7813   22.5715    2.6464 H   0  0  0  0  0  0  0  0  0  0  0  0
   11.3451   20.5438    2.0166 C   0  0  0  0  0  0  0  0  0  0  0  0
   11.2267   20.1384    3.4434 C   0  0  0  0  0  0  0  0  0  0  0  0
   12.1738   19.6401    4.0408 O   0  0  0  0  0  0  0  0  0  0  0  0
    9.9545   20.3465    4.1228 C   0  0  0  0  0  0  0  0  0  0  0  0
    8.7723   20.7036    3.6434 N   0  0  0  0  0  0  0  0  0  0  0  0
    7.7541   20.8436    4.4420 C   0  0  0  0  0  0  0  0  0  0  0  0
    6.4455   21.2387    4.0538 C   0  0  0  0  0  0  0  0  0  0  0  0
    5.4825   21.3593    4.9972 C   0  0  0  0  0  0  0  0  0  0  0  0
    5.6481   21.1302    6.3353 C   0  0  0  0  0  0  0  0  0  0  0  0
    6.9241   20.7428    6.7271 C   0  0  0  0  0  0  0  0  0  0  0  0
    7.9444   20.6095    5.7735 C   0  0  0  0  0  0  0  0  0  0  0  0
    9.6087   20.1947    5.8041 S   0  0  0  0  0  0  0  0  0  0  0  0
   12.7167   20.1873    1.5091 C   0  0  0  0  0  0  0  0  0  0  0  0
   13.5600   21.3904    1.2346 C   0  0  0  0  0  0  0  0  0  0  0  0
   14.8142   21.0236    0.4628 C   0  0  0  0  0  0  0  0  0  0  0  0
   14.5682   20.5811   -0.8788 N   0  0  0  0  0  0  0  0  0  0  0  0
   14.9365   19.6184   -1.1678 H   0  0  0  0  0  0  0  0  0  0  0  0
   13.8594   21.3891   -1.7991 C   0  0  0  0  0  0  0  0  0  0  0  0
   14.5427   22.0268   -2.6705 N   0  0  0  0  0  0  0  0  0  0  0  0
   12.4544   21.5236   -1.8117 N   0  0  0  0  0  0  0  0  0  0  0  0
   15.5886   21.9809   -2.7346 H   0  0  0  0  0  0  0  0  0  0  0  0
   11.9790   22.4392   -1.6425 H   0  0  0  0  0  0  0  0  0  0  0  0
   11.7985   20.7071   -1.9965 H   0  0  0  0  0  0  0  0  0  0  0  0
   11.6736   24.5922    0.0867 C   0  0  0  0  0  0  0  0  0  0  0  0
   11.6036   24.8690   -1.3699 C   0  0  0  0  0  0  0  0  0  0  0  0
   12.7683   25.7106   -1.8650 C   0  0  0  0  0  0  0  0  0  0  0  0
   13.7205   24.9260   -2.6100 N   0  0  0  0  0  0  0  0  0  0  0  0
   13.9617   23.9673   -2.3100 H   0  0  0  0  0  0  0  0  0  0  0  0
   14.3587   25.4497   -3.7845 C   0  0  0  0  0  0  0  0  0  0  0  0
   14.1163   26.6704   -4.0800 N   0  0  0  0  0  0  0  0  0  0  0  0
   15.2189   24.6072   -4.5638 N   0  0  0  0  0  0  0  0  0  0  0  0
   14.5085   27.1603   -4.8893 H   0  0  0  0  0  0  0  0  0  0  0  0
   16.1989   24.4651   -4.2719 H   0  0  0  0  0  0  0  0  0  0  0  0
   14.8725   24.1296   -5.4257 H   0  0  0  0  0  0  0  0  0  0  0  0
 14 15  2  0  0  0
 15 16  1  0  0  0
 16 13  1  0  0  0
 13 21  1  0  0  0
 21 22  1  0  0  0
 22 23  2  0  0  0
 23 24  1  0  0  0
 24 25  2  0  0  0
 25 26  1  0  0  0
 26 27  2  0  0  0
 13  6  1  0  0  0
  6  7  2  0  0  0
  6  8  1  0  0  0
  8  9  1  0  0  0
  9 10  1  0  0  0
 10 11  1  0  0  0
 11 12  1  0  0  0
 12  2  1  0  0  0
  2  3  2  0  0  0
  2  4  1  0  0  0
  4  1  1  0  0  0
  1 28  1  0  0  0
 28 29  2  0  0  0
 28 30  1  0  0  0
 30 32  1  0  0  0
 32 44  1  0  0  0
 44 45  1  0  0  0
 45 46  1  0  0  0
 46 47  1  0  0  0
 47 49  1  0  0  0
 49 50  2  0  0  0
 49 51  1  0  0  0
 32 33  1  0  0  0
 33 34  2  0  0  0
 33 35  1  0  0  0
 35 36  2  0  0  0
 36 37  1  0  0  0
 37 38  2  0  0  0
 38 39  1  0  0  0
 39 40  2  0  0  0
 40 41  1  0  0  0
 41 42  2  0  0  0
 42 43  1  0  0  0
  1 55  1  0  0  0
 55 56  1  0  0  0
 56 57  1  0  0  0
 57 58  1  0  0  0
 58 60  1  0  0  0
 60 61  2  0  0  0
 60 62  1  0  0  0
 15 17  1  0  0  0
 27 22  1  0  0  0
 12  8  1  0  0  0
 43 35  1  0  0  0
 42 37  1  0  0  0
 16 18  1  0  0  0
  4  5  1  0  0  0
 30 31  1  0  0  0
 47 48  1  0  0  0
 50 52  1  0  0  0
 51 53  1  0  0  0
 51 54  1  0  0  0
 58 59  1  0  0  0
 61 63  1  0  0  0
 62 64  1  0  0  0
 62 65  1  0  0  0
 17 19  1  0  0  0
 17 20  1  0  0  0
M  END
> <minimizedAffinity>
-7.41068

> <CNNscore>
0.0658363998

> <CNNaffinity>
6.7869224548

> <CNN_VS>
0.4468265474

> <CNNaffinity_variance>
1.0395829678

$$$$
[H]N=C(N([H])[H])N([H])C([H])([H])C([H])([H])C([H])([H])[C@@]([H])(C(=O)c1nc2c([H])c([H])c([H])c([H])c2s1)N([H])C(=O)[C@@]([H])(N([H])C(=O)[C@@]1([H])N(C(=O)[C@@]([H])(N([H])C(=O)N([H])[H])C([H])([H])c2c([H])c([H])c([H])c([H])c2[H])C([H])([H])C([H])([H])C1([H])[H])C([H])([H])C([H])([H])C([H])([H])N([H])C(=N[H])N([H])[H]


 65 68  0  0  0  0  0  0  0  0999 V2000
    8.7893   23.4148    2.8227 C   0  0  0  0  0  0  0  0  0  0  0  0
   10.2798   24.0184    0.8282 C   0  0  0  0  0  0  0  0  0  0  0  0
   10.8717   24.8603    1.5331 O   0  0  0  0  0  0  0  0  0  0  0  0
    9.2184   23.2870    1.4767 N   0  0  0  0  0  0  0  0  0  0  0  0
    8.6946   22.5667    0.8750 H   0  0  0  0  0  0  0  0  0  0  0  0
   13.0032   24.0256   -1.2432 C   0  0  0  0  0  0  0  0  0  0  0  0
   12.7905   25.2761   -1.4006 O   0  0  0  0  0  0  0  0  0  0  0  0
   11.9153   23.2262   -0.8261 N   0  0  0  0  0  0  0  0  0  0  0  0
   11.8076   21.8045   -0.5711 C   0  0  0  0  0  0  0  0  0  0  0  0
   10.5918   21.5027   -1.4824 C   0  0  0  0  0  0  0  0  0  0  0  0
    9.6614   22.5938   -1.0304 C   0  0  0  0  0  0  0  0  0  0  0  0
   10.5821   23.7236   -0.5949 C   0  0  0  0  0  0  0  0  0  0  0  0
   14.3687   23.5544   -1.5254 C   0  0  0  0  0  0  0  0  0  0  0  0
   15.5920   22.8571    1.1021 O   0  0  0  0  0  0  0  0  0  0  0  0
   15.1601   21.9838    0.3345 C   0  0  0  0  0  0  0  0  0  0  0  0
   14.5870   22.2964   -0.8944 N   0  0  0  0  0  0  0  0  0  0  0  0
   15.2757   20.6346    0.7579 N   0  0  0  0  0  0  0  0  0  0  0  0
   14.2531   21.4483   -1.4665 H   0  0  0  0  0  0  0  0  0  0  0  0
   15.9966   19.9771    0.4377 H   0  0  0  0  0  0  0  0  0  0  0  0
   14.5682   20.2658    1.4570 H   0  0  0  0  0  0  0  0  0  0  0  0
   14.7626   23.6338   -2.9854 C   0  0  0  0  0  0  0  0  0  0  0  0
   15.3096   24.9418   -3.3861 C   0  0  0  0  0  0  0  0  0  0  0  0
   14.7786   25.5215   -4.5458 C   0  0  0  0  0  0  0  0  0  0  0  0
   15.2176   26.7423   -5.0182 C   0  0  0  0  0  0  0  0  0  0  0  0
   16.2057   27.4437   -4.3577 C   0  0  0  0  0  0  0  0  0  0  0  0
   16.7351   26.8873   -3.2205 C   0  0  0  0  0  0  0  0  0  0  0  0
   16.2811   25.6440   -2.7501 C   0  0  0  0  0  0  0  0  0  0  0  0
    8.3113   22.0462    3.2547 C   0  0  0  0  0  0  0  0  0  0  0  0
    8.9265   21.0330    2.7822 O   0  0  0  0  0  0  0  0  0  0  0  0
    7.2465   21.8294    4.1295 N   0  0  0  0  0  0  0  0  0  0  0  0
    6.7203   22.6106    4.5458 H   0  0  0  0  0  0  0  0  0  0  0  0
    6.8456   20.4477    4.4792 C   0  0  0  0  0  0  0  0  0  0  0  0
    5.5014   20.1788    3.9004 C   0  0  0  0  0  0  0  0  0  0  0  0
    4.5103   20.0894    4.6159 O   0  0  0  0  0  0  0  0  0  0  0  0
    5.3838   20.0228    2.4564 C   0  0  0  0  0  0  0  0  0  0  0  0
    5.3518   20.9319    1.4934 N   0  0  0  0  0  0  0  0  0  0  0  0
    5.2295   20.5682    0.2496 C   0  0  0  0  0  0  0  0  0  0  0  0
    5.1641   21.4447   -0.8668 C   0  0  0  0  0  0  0  0  0  0  0  0
    5.0201   20.9263   -2.1088 C   0  0  0  0  0  0  0  0  0  0  0  0
    4.9284   19.5949   -2.4082 C   0  0  0  0  0  0  0  0  0  0  0  0
    4.9914   18.7276   -1.3240 C   0  0  0  0  0  0  0  0  0  0  0  0
    5.1397   19.2336   -0.0239 C   0  0  0  0  0  0  0  0  0  0  0  0
    5.2363   18.5633    1.5522 S   0  0  0  0  0  0  0  0  0  0  0  0
    6.7522   20.4401    5.9815 C   0  0  0  0  0  0  0  0  0  0  0  0
    8.0930   20.4341    6.6419 C   0  0  0  0  0  0  0  0  0  0  0  0
    9.0747   19.5498    5.8952 C   0  0  0  0  0  0  0  0  0  0  0  0
   10.3614   20.1478    5.6876 N   0  0  0  0  0  0  0  0  0  0  0  0
   10.6710   20.9234    6.3573 H   0  0  0  0  0  0  0  0  0  0  0  0
   11.2025   19.7289    4.6297 C   0  0  0  0  0  0  0  0  0  0  0  0
   11.4021   18.4736    4.4981 N   0  0  0  0  0  0  0  0  0  0  0  0
   11.8218   20.6106    3.7179 N   0  0  0  0  0  0  0  0  0  0  0  0
   10.9787   17.7498    5.1281 H   0  0  0  0  0  0  0  0  0  0  0  0
   12.8610   20.6951    3.6401 H   0  0  0  0  0  0  0  0  0  0  0  0
   11.2720   21.2361    3.0564 H   0  0  0  0  0  0  0  0  0  0  0  0
    7.6390   24.3464    3.0544 C   0  0  0  0  0  0  0  0  0  0  0  0
    7.9721   25.7545    3.3856 C   0  0  0  0  0  0  0  0  0  0  0  0
    6.7722   26.6817    3.2848 C   0  0  0  0  0  0  0  0  0  0  0  0
    7.1554   28.0181    2.9049 N   0  0  0  0  0  0  0  0  0  0  0  0
    7.9669   28.1767    2.2855 H   0  0  0  0  0  0  0  0  0  0  0  0
    6.4257   29.1625    3.3729 C   0  0  0  0  0  0  0  0  0  0  0  0
    6.8834   30.3127    3.0511 N   0  0  0  0  0  0  0  0  0  0  0  0
    5.2441   28.9790    4.1648 N   0  0  0  0  0  0  0  0  0  0  0  0
    6.4564   31.2034    3.3215 H   0  0  0  0  0  0  0  0  0  0  0  0
    4.3435   28.7758    3.7026 H   0  0  0  0  0  0  0  0  0  0  0  0
    5.2752   29.0456    5.2067 H   0  0  0  0  0  0  0  0  0  0  0  0
 14 15  2  0  0  0
 15 16  1  0  0  0
 16 13  1  0  0  0
 13 21  1  0  0  0
 21 22  1  0  0  0
 22 23  2  0  0  0
 23 24  1  0  0  0
 24 25  2  0  0  0
 25 26  1  0  0  0
 26 27  2  0  0  0
 13  6  1  0  0  0
  6  7  2  0  0  0
  6  8  1  0  0  0
  8  9  1  0  0  0
  9 10  1  0  0  0
 10 11  1  0  0  0
 11 12  1  0  0  0
 12  2  1  0  0  0
  2  3  2  0  0  0
  2  4  1  0  0  0
  4  1  1  0  0  0
  1 28  1  0  0  0
 28 29  2  0  0  0
 28 30  1  0  0  0
 30 32  1  0  0  0
 32 44  1  0  0  0
 44 45  1  0  0  0
 45 46  1  0  0  0
 46 47  1  0  0  0
 47 49  1  0  0  0
 49 50  2  0  0  0
 49 51  1  0  0  0
 32 33  1  0  0  0
 33 34  2  0  0  0
 33 35  1  0  0  0
 35 36  2  0  0  0
 36 37  1  0  0  0
 37 38  2  0  0  0
 38 39  1  0  0  0
 39 40  2  0  0  0
 40 41  1  0  0  0
 41 42  2  0  0  0
 42 43  1  0  0  0
  1 55  1  0  0  0
 55 56  1  0  0  0
 56 57  1  0  0  0
 57 58  1  0  0  0
 58 60  1  0  0  0
 60 61  2  0  0  0
 60 62  1  0  0  0
 15 17  1  0  0  0
 27 22  1  0  0  0
 12  8  1  0  0  0
 43 35  1  0  0  0
 42 37  1  0  0  0
 16 18  1  0  0  0
  4  5  1  0  0  0
 30 31  1  0  0  0
 47 48  1  0  0  0
 50 52  1  0  0  0
 51 53  1  0  0  0
 51 54  1  0  0  0
 58 59  1  0  0  0
 61 63  1  0  0  0
 62 64  1  0  0  0
 62 65  1  0  0  0
 17 19  1  0  0  0
 17 20  1  0  0  0
M  END
> <minimizedAffinity>
-9.29047

> <CNNscore>
0.0572091043

> <CNNaffinity>
7.2710356712

> <CNN_VS>
0.4159694314

> <CNNaffinity_variance>
0.6857136488

$$$$
[H]N=C(N([H])[H])N([H])C([H])([H])C([H])([H])C([H])([H])[C@@]([H])(C(=O)c1nc2c([H])c([H])c([H])c([H])c2s1)N([H])C(=O)[C@@]([H])(N([H])C(=O)[C@@]1([H])N(C(=O)[C@@]([H])(N([H])C(=O)N([H])[H])C([H])([H])c2c([H])c([H])c([H])c([H])c2[H])C([H])([H])C([H])([H])C1([H])[H])C([H])([H])C([H])([H])C([H])([H])N([H])C(=N[H])N([H])[H]


 65 68  0  0  0  0  0  0  0  0999 V2000
    6.0738   21.0879    2.0643 C   0  0  0  0  0  0  0  0  0  0  0  0
    7.9148   22.0249    0.5488 C   0  0  0  0  0  0  0  0  0  0  0  0
    7.7127   23.1631    1.0173 O   0  0  0  0  0  0  0  0  0  0  0  0
    7.0812   20.9700    1.0727 N   0  0  0  0  0  0  0  0  0  0  0  0
    7.2399   19.9870    0.6677 H   0  0  0  0  0  0  0  0  0  0  0  0
   10.9700   23.1693   -0.4824 C   0  0  0  0  0  0  0  0  0  0  0  0
   10.3322   24.0260   -1.1846 O   0  0  0  0  0  0  0  0  0  0  0  0
   10.2833   21.9933   -0.1057 N   0  0  0  0  0  0  0  0  0  0  0  0
   10.7024   20.8372    0.6595 C   0  0  0  0  0  0  0  0  0  0  0  0
   10.3048   19.7373   -0.3563 C   0  0  0  0  0  0  0  0  0  0  0  0
    8.9015   20.1777   -0.6680 C   0  0  0  0  0  0  0  0  0  0  0  0
    8.9262   21.6874   -0.4840 C   0  0  0  0  0  0  0  0  0  0  0  0
   12.3639   23.5048   -0.1498 C   0  0  0  0  0  0  0  0  0  0  0  0
   14.0293   21.4299    1.1947 O   0  0  0  0  0  0  0  0  0  0  0  0
   14.0129   21.5500   -0.0396 C   0  0  0  0  0  0  0  0  0  0  0  0
   13.2399   22.5144   -0.6791 N   0  0  0  0  0  0  0  0  0  0  0  0
   14.8246   20.6589   -0.7879 N   0  0  0  0  0  0  0  0  0  0  0  0
   13.3152   22.5155   -1.7527 H   0  0  0  0  0  0  0  0  0  0  0  0
   15.7403   20.8932   -1.1894 H   0  0  0  0  0  0  0  0  0  0  0  0
   14.4679   19.6736   -0.9529 H   0  0  0  0  0  0  0  0  0  0  0  0
   12.7430   24.9412   -0.4436 C   0  0  0  0  0  0  0  0  0  0  0  0
   13.4384   25.1242   -1.7295 C   0  0  0  0  0  0  0  0  0  0  0  0
   12.8532   26.0085   -2.6453 C   0  0  0  0  0  0  0  0  0  0  0  0
   13.4140   26.2545   -3.8827 C   0  0  0  0  0  0  0  0  0  0  0  0
   14.5844   25.6320   -4.2663 C   0  0  0  0  0  0  0  0  0  0  0  0
   15.1682   24.7629   -3.3793 C   0  0  0  0  0  0  0  0  0  0  0  0
   14.5876   24.5197   -2.1235 C   0  0  0  0  0  0  0  0  0  0  0  0
    6.7878   21.2014    3.3930 C   0  0  0  0  0  0  0  0  0  0  0  0
    7.2521   20.1282    3.9039 O   0  0  0  0  0  0  0  0  0  0  0  0
    6.9648   22.3989    4.0864 N   0  0  0  0  0  0  0  0  0  0  0  0
    6.6171   23.2950    3.7167 H   0  0  0  0  0  0  0  0  0  0  0  0
    7.6663   22.4024    5.3902 C   0  0  0  0  0  0  0  0  0  0  0  0
    7.2664   23.6207    6.1451 C   0  0  0  0  0  0  0  0  0  0  0  0
    7.1239   23.5933    7.3621 O   0  0  0  0  0  0  0  0  0  0  0  0
    7.0461   24.8568    5.4055 C   0  0  0  0  0  0  0  0  0  0  0  0
    5.9203   25.4721    5.0757 N   0  0  0  0  0  0  0  0  0  0  0  0
    5.9521   26.5793    4.3922 C   0  0  0  0  0  0  0  0  0  0  0  0
    4.8182   27.3205    3.9633 C   0  0  0  0  0  0  0  0  0  0  0  0
    4.9998   28.4516    3.2424 C   0  0  0  0  0  0  0  0  0  0  0  0
    6.2091   28.9722    2.8723 C   0  0  0  0  0  0  0  0  0  0  0  0
    7.3259   28.2559    3.2864 C   0  0  0  0  0  0  0  0  0  0  0  0
    7.1712   27.0791    4.0344 C   0  0  0  0  0  0  0  0  0  0  0  0
    8.2239   25.9063    4.7121 S   0  0  0  0  0  0  0  0  0  0  0  0
    9.1284   22.4884    5.0431 C   0  0  0  0  0  0  0  0  0  0  0  0
   10.0138   22.0582    6.1678 C   0  0  0  0  0  0  0  0  0  0  0  0
   10.1543   20.5478    6.2160 C   0  0  0  0  0  0  0  0  0  0  0  0
   10.2088   19.9230    4.9265 N   0  0  0  0  0  0  0  0  0  0  0  0
    9.2853   19.6509    4.4585 H   0  0  0  0  0  0  0  0  0  0  0  0
   11.4448   19.6708    4.2856 C   0  0  0  0  0  0  0  0  0  0  0  0
   11.9079   18.4814    4.3473 N   0  0  0  0  0  0  0  0  0  0  0  0
   12.1836   20.6479    3.5843 N   0  0  0  0  0  0  0  0  0  0  0  0
   11.4228   17.6950    4.8436 H   0  0  0  0  0  0  0  0  0  0  0  0
   13.1422   20.9427    3.8799 H   0  0  0  0  0  0  0  0  0  0  0  0
   11.8134   21.1379    2.7161 H   0  0  0  0  0  0  0  0  0  0  0  0
    5.1455   19.9188    2.1925 C   0  0  0  0  0  0  0  0  0  0  0  0
    4.2774   19.6202    1.0261 C   0  0  0  0  0  0  0  0  0  0  0  0
    4.6733   18.3387    0.3115 C   0  0  0  0  0  0  0  0  0  0  0  0
    5.3977   17.4420    1.1767 N   0  0  0  0  0  0  0  0  0  0  0  0
    5.5788   17.6936    2.1622 H   0  0  0  0  0  0  0  0  0  0  0  0
    5.8866   16.1799    0.6981 C   0  0  0  0  0  0  0  0  0  0  0  0
    6.3040   16.1408   -0.5103 N   0  0  0  0  0  0  0  0  0  0  0  0
    5.8864   15.0395    1.5680 N   0  0  0  0  0  0  0  0  0  0  0  0
    6.6759   15.3040   -0.9689 H   0  0  0  0  0  0  0  0  0  0  0  0
    6.6528   14.9135    2.2482 H   0  0  0  0  0  0  0  0  0  0  0  0
    5.1215   14.3293    1.5290 H   0  0  0  0  0  0  0  0  0  0  0  0
 14 15  2  0  0  0
 15 16  1  0  0  0
 16 13  1  0  0  0
 13 21  1  0  0  0
 21 22  1  0  0  0
 22 23  2  0  0  0
 23 24  1  0  0  0
 24 25  2  0  0  0
 25 26  1  0  0  0
 26 27  2  0  0  0
 13  6  1  0  0  0
  6  7  2  0  0  0
  6  8  1  0  0  0
  8  9  1  0  0  0
  9 10  1  0  0  0
 10 11  1  0  0  0
 11 12  1  0  0  0
 12  2  1  0  0  0
  2  3  2  0  0  0
  2  4  1  0  0  0
  4  1  1  0  0  0
  1 28  1  0  0  0
 28 29  2  0  0  0
 28 30  1  0  0  0
 30 32  1  0  0  0
 32 44  1  0  0  0
 44 45  1  0  0  0
 45 46  1  0  0  0
 46 47  1  0  0  0
 47 49  1  0  0  0
 49 50  2  0  0  0
 49 51  1  0  0  0
 32 33  1  0  0  0
 33 34  2  0  0  0
 33 35  1  0  0  0
 35 36  2  0  0  0
 36 37  1  0  0  0
 37 38  2  0  0  0
 38 39  1  0  0  0
 39 40  2  0  0  0
 40 41  1  0  0  0
 41 42  2  0  0  0
 42 43  1  0  0  0
  1 55  1  0  0  0
 55 56  1  0  0  0
 56 57  1  0  0  0
 57 58  1  0  0  0
 58 60  1  0  0  0
 60 61  2  0  0  0
 60 62  1  0  0  0
 15 17  1  0  0  0
 27 22  1  0  0  0
 12  8  1  0  0  0
 43 35  1  0  0  0
 42 37  1  0  0  0
 16 18  1  0  0  0
  4  5  1  0  0  0
 30 31  1  0  0  0
 47 48  1  0  0  0
 50 52  1  0  0  0
 51 53  1  0  0  0
 51 54  1  0  0  0
 58 59  1  0  0  0
 61 63  1  0  0  0
 62 64  1  0  0  0
 62 65  1  0  0  0
 17 19  1  0  0  0
 17 20  1  0  0  0
M  END
> <minimizedAffinity>
-9.07966

> <CNNscore>
0.0568838492

> <CNNaffinity>
6.9973115921

> <CNN_VS>
0.3980340064

> <CNNaffinity_variance>
0.9823793173

$$$$
[H]N=C(N([H])[H])N([H])C([H])([H])C([H])([H])C([H])([H])[C@@]([H])(C(=O)c1nc2c([H])c([H])c([H])c([H])c2s1)N([H])C(=O)[C@@]([H])(N([H])C(=O)[C@@]1([H])N(C(=O)[C@@]([H])(N([H])C(=O)N([H])[H])C([H])([H])c2c([H])c([H])c([H])c([H])c2[H])C([H])([H])C([H])([H])C1([H])[H])C([H])([H])C([H])([H])C([H])([H])N([H])C(=N[H])N([H])[H]


 65 68  0  0  0  0  0  0  0  0999 V2000
   10.2924   22.5657    3.0286 C   0  0  0  0  0  0  0  0  0  0  0  0
    9.1719   22.6000    5.3323 C   0  0  0  0  0  0  0  0  0  0  0  0
    9.7236   21.5163    5.6101 O   0  0  0  0  0  0  0  0  0  0  0  0
    9.4527   23.1329    4.0212 N   0  0  0  0  0  0  0  0  0  0  0  0
    8.9735   24.0611    3.7676 H   0  0  0  0  0  0  0  0  0  0  0  0
    7.7191   25.6957    5.4465 C   0  0  0  0  0  0  0  0  0  0  0  0
    8.8130   26.1113    5.9608 O   0  0  0  0  0  0  0  0  0  0  0  0
    7.4285   24.3174    5.5567 N   0  0  0  0  0  0  0  0  0  0  0  0
    6.2958   23.5336    5.1088 C   0  0  0  0  0  0  0  0  0  0  0  0
    5.9416   22.8571    6.4566 C   0  0  0  0  0  0  0  0  0  0  0  0
    7.3043   22.3636    6.8564 C   0  0  0  0  0  0  0  0  0  0  0  0
    8.2689   23.3605    6.2323 C   0  0  0  0  0  0  0  0  0  0  0  0
    6.8740   26.7119    4.7990 C   0  0  0  0  0  0  0  0  0  0  0  0
    3.8996   26.7007    4.6005 O   0  0  0  0  0  0  0  0  0  0  0  0
    4.4821   27.1453    5.6012 C   0  0  0  0  0  0  0  0  0  0  0  0
    5.8697   27.1562    5.7059 N   0  0  0  0  0  0  0  0  0  0  0  0
    3.6724   27.6533    6.6496 N   0  0  0  0  0  0  0  0  0  0  0  0
    6.2508   27.5695    6.6235 H   0  0  0  0  0  0  0  0  0  0  0  0
    3.4893   28.6489    6.8222 H   0  0  0  0  0  0  0  0  0  0  0  0
    3.2177   26.9613    7.3127 H   0  0  0  0  0  0  0  0  0  0  0  0
    7.6491   27.8038    4.0915 C   0  0  0  0  0  0  0  0  0  0  0  0
    6.8558   28.5544    3.1027 C   0  0  0  0  0  0  0  0  0  0  0  0
    6.2793   27.8154    2.0613 C   0  0  0  0  0  0  0  0  0  0  0  0
    5.5193   28.4134    1.0759 C   0  0  0  0  0  0  0  0  0  0  0  0
    5.2970   29.7754    1.0813 C   0  0  0  0  0  0  0  0  0  0  0  0
    5.8562   30.5116    2.0954 C   0  0  0  0  0  0  0  0  0  0  0  0
    6.6286   29.8921    3.0919 C   0  0  0  0  0  0  0  0  0  0  0  0
   10.7021   23.6973    2.1122 C   0  0  0  0  0  0  0  0  0  0  0  0
   10.0281   24.7789    2.1769 O   0  0  0  0  0  0  0  0  0  0  0  0
   11.7622   23.6273    1.2081 N   0  0  0  0  0  0  0  0  0  0  0  0
   12.3435   22.7818    1.1199 H   0  0  0  0  0  0  0  0  0  0  0  0
   12.0743   24.7871    0.3424 C   0  0  0  0  0  0  0  0  0  0  0  0
   11.7081   24.4496   -1.0597 C   0  0  0  0  0  0  0  0  0  0  0  0
   10.6908   23.8149   -1.3132 O   0  0  0  0  0  0  0  0  0  0  0  0
   12.5877   24.8912   -2.1344 C   0  0  0  0  0  0  0  0  0  0  0  0
   13.5679   24.2556   -2.7589 N   0  0  0  0  0  0  0  0  0  0  0  0
   14.2435   24.8508   -3.6988 C   0  0  0  0  0  0  0  0  0  0  0  0
   15.3246   24.2848   -4.4267 C   0  0  0  0  0  0  0  0  0  0  0  0
   15.9491   25.0275   -5.3703 C   0  0  0  0  0  0  0  0  0  0  0  0
   15.6321   26.3148   -5.7064 C   0  0  0  0  0  0  0  0  0  0  0  0
   14.5758   26.8791   -5.0012 C   0  0  0  0  0  0  0  0  0  0  0  0
   13.9084   26.1357   -4.0162 C   0  0  0  0  0  0  0  0  0  0  0  0
   12.6172   26.4226   -2.9239 S   0  0  0  0  0  0  0  0  0  0  0  0
   13.5671   24.9537    0.4416 C   0  0  0  0  0  0  0  0  0  0  0  0
   14.2368   23.7787    1.0778 C   0  0  0  0  0  0  0  0  0  0  0  0
   14.9773   22.9404    0.0520 C   0  0  0  0  0  0  0  0  0  0  0  0
   14.5129   21.5872   -0.0444 N   0  0  0  0  0  0  0  0  0  0  0  0
   14.9544   20.8553    0.6000 H   0  0  0  0  0  0  0  0  0  0  0  0
   13.5001   21.2233   -0.9631 C   0  0  0  0  0  0  0  0  0  0  0  0
   12.3220   21.0462   -0.5008 N   0  0  0  0  0  0  0  0  0  0  0  0
   13.7151   21.0528   -2.3477 N   0  0  0  0  0  0  0  0  0  0  0  0
   12.0740   21.1556    0.5124 H   0  0  0  0  0  0  0  0  0  0  0  0
   13.5702   20.1350   -2.8270 H   0  0  0  0  0  0  0  0  0  0  0  0
   14.0323   21.8439   -2.9838 H   0  0  0  0  0  0  0  0  0  0  0  0
    9.6564   21.5320    2.1500 C   0  0  0  0  0  0  0  0  0  0  0  0
    8.2137   21.7047    1.8469 C   0  0  0  0  0  0  0  0  0  0  0  0
    7.9217   21.6997    0.3554 C   0  0  0  0  0  0  0  0  0  0  0  0
    9.0838   21.3436   -0.4191 N   0  0  0  0  0  0  0  0  0  0  0  0
   10.0300   21.4122   -0.0100 H   0  0  0  0  0  0  0  0  0  0  0  0
    8.9626   20.8856   -1.7743 C   0  0  0  0  0  0  0  0  0  0  0  0
    9.8671   21.2627   -2.5963 N   0  0  0  0  0  0  0  0  0  0  0  0
    7.8603   20.0473   -2.1472 N   0  0  0  0  0  0  0  0  0  0  0  0
    9.8944   21.0053   -3.5872 H   0  0  0  0  0  0  0  0  0  0  0  0
    7.9022   19.0325   -1.9617 H   0  0  0  0  0  0  0  0  0  0  0  0
    7.0091   20.4441   -2.6044 H   0  0  0  0  0  0  0  0  0  0  0  0
 14 15  2  0  0  0
 15 16  1  0  0  0
 16 13  1  0  0  0
 13 21  1  0  0  0
 21 22  1  0  0  0
 22 23  2  0  0  0
 23 24  1  0  0  0
 24 25  2  0  0  0
 25 26  1  0  0  0
 26 27  2  0  0  0
 13  6  1  0  0  0
  6  7  2  0  0  0
  6  8  1  0  0  0
  8  9  1  0  0  0
  9 10  1  0  0  0
 10 11  1  0  0  0
 11 12  1  0  0  0
 12  2  1  0  0  0
  2  3  2  0  0  0
  2  4  1  0  0  0
  4  1  1  0  0  0
  1 28  1  0  0  0
 28 29  2  0  0  0
 28 30  1  0  0  0
 30 32  1  0  0  0
 32 44  1  0  0  0
 44 45  1  0  0  0
 45 46  1  0  0  0
 46 47  1  0  0  0
 47 49  1  0  0  0
 49 50  2  0  0  0
 49 51  1  0  0  0
 32 33  1  0  0  0
 33 34  2  0  0  0
 33 35  1  0  0  0
 35 36  2  0  0  0
 36 37  1  0  0  0
 37 38  2  0  0  0
 38 39  1  0  0  0
 39 40  2  0  0  0
 40 41  1  0  0  0
 41 42  2  0  0  0
 42 43  1  0  0  0
  1 55  1  0  0  0
 55 56  1  0  0  0
 56 57  1  0  0  0
 57 58  1  0  0  0
 58 60  1  0  0  0
 60 61  2  0  0  0
 60 62  1  0  0  0
 15 17  1  0  0  0
 27 22  1  0  0  0
 12  8  1  0  0  0
 43 35  1  0  0  0
 42 37  1  0  0  0
 16 18  1  0  0  0
  4  5  1  0  0  0
 30 31  1  0  0  0
 47 48  1  0  0  0
 50 52  1  0  0  0
 51 53  1  0  0  0
 51 54  1  0  0  0
 58 59  1  0  0  0
 61 63  1  0  0  0
 62 64  1  0  0  0
 62 65  1  0  0  0
 17 19  1  0  0  0
 17 20  1  0  0  0
M  END
> <minimizedAffinity>
-7.67280

> <CNNscore>
0.0532496832

> <CNNaffinity>
7.2279028893

> <CNN_VS>
0.3848835528

> <CNNaffinity_variance>
0.2817319930

$$$$
[H]c1c([H])c([H])c(C2([H])C([H])([H])N(C(=O)[C@]([H])(Oc3c([H])c([H])c([H])c(C([H])([H])C([H])([H])N4C([H])([H])C([H])([H])C(F)(F)C4([H])[H])c3[H])C([H])([H])[H])C([H])([H])C([H])([H])C2([H])[H])c([H])c1[H]


 32 35  0  0  0  0  0  0  0  0999 V2000
   10.9875   24.5731    1.0455 C   0  0  0  0  0  0  0  0  0  0  0  0
   12.1747   23.6456    0.7208 C   0  0  0  0  0  0  0  0  0  0  0  0
   12.5513   23.9317   -0.7000 C   0  0  0  0  0  0  0  0  0  0  0  0
   11.6048   24.1285   -1.5187 O   0  0  0  0  0  0  0  0  0  0  0  0
   13.8712   23.9950   -1.1829 N   0  0  0  0  0  0  0  0  0  0  0  0
   15.0197   23.7655   -0.3601 C   0  0  0  0  0  0  0  0  0  0  0  0
   16.0056   24.9294   -0.4578 C   0  0  0  0  0  0  0  0  0  0  0  0
   16.3400   25.1036   -1.9375 C   0  0  0  0  0  0  0  0  0  0  0  0
   15.0387   25.5116   -2.6279 C   0  0  0  0  0  0  0  0  0  0  0  0
   14.1180   24.3106   -2.5880 C   0  0  0  0  0  0  0  0  0  0  0  0
   15.3006   25.9678   -4.0006 C   0  0  0  0  0  0  0  0  0  0  0  0
   15.1857   25.1265   -5.0918 C   0  0  0  0  0  0  0  0  0  0  0  0
   15.4303   25.5491   -6.3794 C   0  0  0  0  0  0  0  0  0  0  0  0
   15.8044   26.8561   -6.6062 C   0  0  0  0  0  0  0  0  0  0  0  0
   15.9242   27.7134   -5.5190 C   0  0  0  0  0  0  0  0  0  0  0  0
   15.6712   27.2627   -4.2245 C   0  0  0  0  0  0  0  0  0  0  0  0
   11.7870   22.3131    0.8681 O   0  0  0  0  0  0  0  0  0  0  0  0
   11.5589   21.6342    2.0242 C   0  0  0  0  0  0  0  0  0  0  0  0
   12.1314   20.4067    2.2557 C   0  0  0  0  0  0  0  0  0  0  0  0
   11.8709   19.7452    3.4533 C   0  0  0  0  0  0  0  0  0  0  0  0
   11.0369   20.3410    4.3898 C   0  0  0  0  0  0  0  0  0  0  0  0
   10.4536   21.5560    4.1933 C   0  0  0  0  0  0  0  0  0  0  0  0
   10.7197   22.1969    3.0062 C   0  0  0  0  0  0  0  0  0  0  0  0
    9.5811   22.1923    5.1758 C   0  0  0  0  0  0  0  0  0  0  0  0
    8.4147   22.9402    4.6386 C   0  0  0  0  0  0  0  0  0  0  0  0
    8.6892   24.3284    4.5357 N   0  0  0  0  0  0  0  0  0  0  0  0
    8.3832   25.1115    5.6896 C   0  0  0  0  0  0  0  0  0  0  0  0
    7.6578   26.3579    5.1623 C   0  0  0  0  0  0  0  0  0  0  0  0
    8.2306   26.4383    3.7455 C   0  0  0  0  0  0  0  0  0  0  0  0
    7.4867   27.2284    2.9253 F   0  0  0  0  0  0  0  0  0  0  0  0
    9.5496   26.8059    3.8426 F   0  0  0  0  0  0  0  0  0  0  0  0
    8.1667   24.9613    3.3654 C   0  0  0  0  0  0  0  0  0  0  0  0
  1  2  1  0  0  0
  2 17  1  0  0  0
 17 18  1  0  0  0
 18 19  2  0  0  0
 19 20  1  0  0  0
 20 21  2  0  0  0
 21 22  1  0  0  0
 22 24  1  0  0  0
 24 25  1  0  0  0
 25 26  1  0  0  0
 26 27  1  0  0  0
 27 28  1  0  0  0
 28 29  1  0  0  0
 29 30  1  0  0  0
 29 31  1  0  0  0
 29 32  1  0  0  0
 22 23  2  0  0  0
  2  3  1  0  0  0
  3  4  2  0  0  0
  3  5  1  0  0  0
  5  6  1  0  0  0
  6  7  1  0  0  0
  7  8  1  0  0  0
  8  9  1  0  0  0
  9 10  1  0  0  0
  9 11  1  0  0  0
 11 12  2  0  0  0
 12 13  1  0  0  0
 13 14  2  0  0  0
 14 15  1  0  0  0
 15 16  2  0  0  0
 23 18  1  0  0  0
 10  5  1  0  0  0
 16 11  1  0  0  0
 32 26  1  0  0  0
M  END
> <minimizedAffinity>
-9.88509

> <CNNscore>
0.2670292556

> <CNNaffinity>
6.3161945343

> <CNN_VS>
1.6866086721

> <CNNaffinity_variance>
0.7727493644

$$$$
[H]c1c([H])c([H])c(C2([H])C([H])([H])N(C(=O)[C@]([H])(Oc3c([H])c([H])c([H])c(C([H])([H])C([H])([H])N4C([H])([H])C([H])([H])C(F)(F)C4([H])[H])c3[H])C([H])([H])[H])C([H])([H])C([H])([H])C2([H])[H])c([H])c1[H]


 32 35  0  0  0  0  0  0  0  0999 V2000
   10.6338   19.9625   -0.1807 C   0  0  0  0  0  0  0  0  0  0  0  0
   11.3355   21.1772    0.4574 C   0  0  0  0  0  0  0  0  0  0  0  0
   12.2564   21.7244   -0.5890 C   0  0  0  0  0  0  0  0  0  0  0  0
   12.5467   20.9611   -1.5574 O   0  0  0  0  0  0  0  0  0  0  0  0
   12.8162   23.0149   -0.5695 N   0  0  0  0  0  0  0  0  0  0  0  0
   12.5824   23.9559    0.4834 C   0  0  0  0  0  0  0  0  0  0  0  0
   12.0754   25.2862   -0.0728 C   0  0  0  0  0  0  0  0  0  0  0  0
   13.1047   25.7594   -1.0966 C   0  0  0  0  0  0  0  0  0  0  0  0
   13.0958   24.7278   -2.2245 C   0  0  0  0  0  0  0  0  0  0  0  0
   13.6817   23.4496   -1.6634 C   0  0  0  0  0  0  0  0  0  0  0  0
   13.8482   25.2228   -3.3864 C   0  0  0  0  0  0  0  0  0  0  0  0
   14.9287   24.5382   -3.9114 C   0  0  0  0  0  0  0  0  0  0  0  0
   15.6368   24.9980   -4.9992 C   0  0  0  0  0  0  0  0  0  0  0  0
   15.2679   26.1829   -5.5987 C   0  0  0  0  0  0  0  0  0  0  0  0
   14.1838   26.8822   -5.0820 C   0  0  0  0  0  0  0  0  0  0  0  0
   13.4822   26.3967   -3.9798 C   0  0  0  0  0  0  0  0  0  0  0  0
   12.0552   20.7701    1.5816 O   0  0  0  0  0  0  0  0  0  0  0  0
   11.5743   20.4874    2.8220 C   0  0  0  0  0  0  0  0  0  0  0  0
   11.8009   19.2685    3.4145 C   0  0  0  0  0  0  0  0  0  0  0  0
   11.2899   19.0204    4.6861 C   0  0  0  0  0  0  0  0  0  0  0  0
   10.5612   20.0116    5.3295 C   0  0  0  0  0  0  0  0  0  0  0  0
   10.3182   21.2304    4.7722 C   0  0  0  0  0  0  0  0  0  0  0  0
   10.8287   21.4607    3.5163 C   0  0  0  0  0  0  0  0  0  0  0  0
    9.5589   22.2802    5.4449 C   0  0  0  0  0  0  0  0  0  0  0  0
    8.1367   22.4303    5.0409 C   0  0  0  0  0  0  0  0  0  0  0  0
    7.9082   23.6712    4.3921 N   0  0  0  0  0  0  0  0  0  0  0  0
    7.8713   23.6311    2.9654 C   0  0  0  0  0  0  0  0  0  0  0  0
    8.7221   24.8204    2.4967 C   0  0  0  0  0  0  0  0  0  0  0  0
    8.5822   25.7572    3.6987 C   0  0  0  0  0  0  0  0  0  0  0  0
    9.5336   26.7292    3.7170 F   0  0  0  0  0  0  0  0  0  0  0  0
    7.2925   26.2266    3.7215 F   0  0  0  0  0  0  0  0  0  0  0  0
    8.7479   24.7429    4.8274 C   0  0  0  0  0  0  0  0  0  0  0  0
  1  2  1  0  0  0
  2 17  1  0  0  0
 17 18  1  0  0  0
 18 19  2  0  0  0
 19 20  1  0  0  0
 20 21  2  0  0  0
 21 22  1  0  0  0
 22 24  1  0  0  0
 24 25  1  0  0  0
 25 26  1  0  0  0
 26 27  1  0  0  0
 27 28  1  0  0  0
 28 29  1  0  0  0
 29 30  1  0  0  0
 29 31  1  0  0  0
 29 32  1  0  0  0
 22 23  2  0  0  0
  2  3  1  0  0  0
  3  4  2  0  0  0
  3  5  1  0  0  0
  5  6  1  0  0  0
  6  7  1  0  0  0
  7  8  1  0  0  0
  8  9  1  0  0  0
  9 10  1  0  0  0
  9 11  1  0  0  0
 11 12  2  0  0  0
 12 13  1  0  0  0
 13 14  2  0  0  0
 14 15  1  0  0  0
 15 16  2  0  0  0
 23 18  1  0  0  0
 10  5  1  0  0  0
 16 11  1  0  0  0
 32 26  1  0  0  0
M  END
> <minimizedAffinity>
-9.52413

> <CNNscore>
0.2264122218

> <CNNaffinity>
6.4037308693

> <CNN_VS>
1.4498829842

> <CNNaffinity_variance>
0.3754378259

$$$$
[H]c1c([H])c([H])c(C2([H])C([H])([H])N(C(=O)[C@]([H])(Oc3c([H])c([H])c([H])c(C([H])([H])C([H])([H])N4C([H])([H])C([H])([H])C(F)(F)C4([H])[H])c3[H])C([H])([H])[H])C([H])([H])C([H])([H])C2([H])[H])c([H])c1[H]


 32 35  0  0  0  0  0  0  0  0999 V2000
   10.7964   21.6393   -2.1098 C   0  0  0  0  0  0  0  0  0  0  0  0
   11.0953   20.6815   -0.9400 C   0  0  0  0  0  0  0  0  0  0  0  0
   10.2893   21.1765    0.2210 C   0  0  0  0  0  0  0  0  0  0  0  0
    9.7983   20.3029    0.9959 O   0  0  0  0  0  0  0  0  0  0  0  0
   10.0418   22.5318    0.5060 N   0  0  0  0  0  0  0  0  0  0  0  0
   10.5214   23.6056   -0.3097 C   0  0  0  0  0  0  0  0  0  0  0  0
   11.3011   24.6218    0.5244 C   0  0  0  0  0  0  0  0  0  0  0  0
   10.3733   25.0770    1.6486 C   0  0  0  0  0  0  0  0  0  0  0  0
   10.1062   23.8443    2.5121 C   0  0  0  0  0  0  0  0  0  0  0  0
    9.2621   22.8968    1.6865 C   0  0  0  0  0  0  0  0  0  0  0  0
    9.4482   24.2249    3.7703 C   0  0  0  0  0  0  0  0  0  0  0  0
    8.9144   25.4844    3.9717 C   0  0  0  0  0  0  0  0  0  0  0  0
    8.2974   25.8458    5.1486 C   0  0  0  0  0  0  0  0  0  0  0  0
    8.2000   24.9298    6.1738 C   0  0  0  0  0  0  0  0  0  0  0  0
    8.7320   23.6598    5.9860 C   0  0  0  0  0  0  0  0  0  0  0  0
    9.3520   23.3171    4.7855 C   0  0  0  0  0  0  0  0  0  0  0  0
   12.4581   20.7120   -0.6411 O   0  0  0  0  0  0  0  0  0  0  0  0
   13.2849   21.7918   -0.6284 C   0  0  0  0  0  0  0  0  0  0  0  0
   13.9280   22.1846    0.5205 C   0  0  0  0  0  0  0  0  0  0  0  0
   14.7658   23.2967    0.4895 C   0  0  0  0  0  0  0  0  0  0  0  0
   14.9340   23.9862   -0.7038 C   0  0  0  0  0  0  0  0  0  0  0  0
   14.3128   23.6243   -1.8606 C   0  0  0  0  0  0  0  0  0  0  0  0
   13.4886   22.5247   -1.8145 C   0  0  0  0  0  0  0  0  0  0  0  0
   14.4898   24.3398   -3.1208 C   0  0  0  0  0  0  0  0  0  0  0  0
   13.6640   25.5608   -3.3098 C   0  0  0  0  0  0  0  0  0  0  0  0
   14.3850   26.5765   -3.9891 N   0  0  0  0  0  0  0  0  0  0  0  0
   14.4016   26.4827   -5.4137 C   0  0  0  0  0  0  0  0  0  0  0  0
   15.8592   26.7325   -5.8270 C   0  0  0  0  0  0  0  0  0  0  0  0
   16.3431   27.5838   -4.6509 C   0  0  0  0  0  0  0  0  0  0  0  0
   17.6998   27.6378   -4.5684 F   0  0  0  0  0  0  0  0  0  0  0  0
   15.7316   28.8098   -4.7362 F   0  0  0  0  0  0  0  0  0  0  0  0
   15.7088   26.8057   -3.5009 C   0  0  0  0  0  0  0  0  0  0  0  0
  1  2  1  0  0  0
  2 17  1  0  0  0
 17 18  1  0  0  0
 18 19  2  0  0  0
 19 20  1  0  0  0
 20 21  2  0  0  0
 21 22  1  0  0  0
 22 24  1  0  0  0
 24 25  1  0  0  0
 25 26  1  0  0  0
 26 27  1  0  0  0
 27 28  1  0  0  0
 28 29  1  0  0  0
 29 30  1  0  0  0
 29 31  1  0  0  0
 29 32  1  0  0  0
 22 23  2  0  0  0
  2  3  1  0  0  0
  3  4  2  0  0  0
  3  5  1  0  0  0
  5  6  1  0  0  0
  6  7  1  0  0  0
  7  8  1  0  0  0
  8  9  1  0  0  0
  9 10  1  0  0  0
  9 11  1  0  0  0
 11 12  2  0  0  0
 12 13  1  0  0  0
 13 14  2  0  0  0
 14 15  1  0  0  0
 15 16  2  0  0  0
 23 18  1  0  0  0
 10  5  1  0  0  0
 16 11  1  0  0  0
 32 26  1  0  0  0
M  END
> <minimizedAffinity>
-8.07639

> <CNNscore>
0.2116404772

> <CNNaffinity>
7.0054955482

> <CNN_VS>
1.4826464653

> <CNNaffinity_variance>
0.0992291719

$$$$
[H]c1c([H])c([H])c(C2([H])C([H])([H])N(C(=O)[C@]([H])(Oc3c([H])c([H])c([H])c(C([H])([H])C([H])([H])N4C([H])([H])C([H])([H])C(F)(F)C4([H])[H])c3[H])C([H])([H])[H])C([H])([H])C([H])([H])C2([H])[H])c([H])c1[H]


 32 35  0  0  0  0  0  0  0  0999 V2000
   11.3539   22.7746   -0.8656 C   0  0  0  0  0  0  0  0  0  0  0  0
   11.6962   22.6597    0.6327 C   0  0  0  0  0  0  0  0  0  0  0  0
   11.0241   23.8172    1.3043 C   0  0  0  0  0  0  0  0  0  0  0  0
   11.2736   24.9723    0.8481 O   0  0  0  0  0  0  0  0  0  0  0  0
   10.1443   23.7102    2.3968 N   0  0  0  0  0  0  0  0  0  0  0  0
    9.8068   22.4634    3.0135 C   0  0  0  0  0  0  0  0  0  0  0  0
    8.2913   22.2752    3.0763 C   0  0  0  0  0  0  0  0  0  0  0  0
    7.7240   23.4905    3.8065 C   0  0  0  0  0  0  0  0  0  0  0  0
    8.0257   24.7021    2.9249 C   0  0  0  0  0  0  0  0  0  0  0  0
    9.5249   24.9109    2.9529 C   0  0  0  0  0  0  0  0  0  0  0  0
    7.2894   25.8836    3.3970 C   0  0  0  0  0  0  0  0  0  0  0  0
    7.6279   27.1669    3.0094 C   0  0  0  0  0  0  0  0  0  0  0  0
    6.9415   28.2768    3.4493 C   0  0  0  0  0  0  0  0  0  0  0  0
    5.8751   28.1199    4.3082 C   0  0  0  0  0  0  0  0  0  0  0  0
    5.5232   26.8359    4.7067 C   0  0  0  0  0  0  0  0  0  0  0  0
    6.2331   25.7275    4.2479 C   0  0  0  0  0  0  0  0  0  0  0  0
   13.0792   22.7252    0.8074 O   0  0  0  0  0  0  0  0  0  0  0  0
   13.9745   23.4669    0.1016 C   0  0  0  0  0  0  0  0  0  0  0  0
   15.1295   23.9332    0.6817 C   0  0  0  0  0  0  0  0  0  0  0  0
   16.0192   24.6897   -0.0772 C   0  0  0  0  0  0  0  0  0  0  0  0
   15.7199   24.9570   -1.4063 C   0  0  0  0  0  0  0  0  0  0  0  0
   14.5852   24.5103   -2.0130 C   0  0  0  0  0  0  0  0  0  0  0  0
   13.7163   23.7651   -1.2511 C   0  0  0  0  0  0  0  0  0  0  0  0
   14.2666   24.7812   -3.4117 C   0  0  0  0  0  0  0  0  0  0  0  0
   13.5302   26.0416   -3.6902 C   0  0  0  0  0  0  0  0  0  0  0  0
   14.3101   26.9400   -4.4633 N   0  0  0  0  0  0  0  0  0  0  0  0
   14.5184   26.5704   -5.8266 C   0  0  0  0  0  0  0  0  0  0  0  0
   16.0115   26.8077   -6.0953 C   0  0  0  0  0  0  0  0  0  0  0  0
   16.3137   27.8958   -5.0624 C   0  0  0  0  0  0  0  0  0  0  0  0
   17.6456   28.0331   -4.8228 F   0  0  0  0  0  0  0  0  0  0  0  0
   15.6892   29.0490   -5.4677 F   0  0  0  0  0  0  0  0  0  0  0  0
   15.5512   27.3265   -3.8687 C   0  0  0  0  0  0  0  0  0  0  0  0
  1  2  1  0  0  0
  2 17  1  0  0  0
 17 18  1  0  0  0
 18 19  2  0  0  0
 19 20  1  0  0  0
 20 21  2  0  0  0
 21 22  1  0  0  0
 22 24  1  0  0  0
 24 25  1  0  0  0
 25 26  1  0  0  0
 26 27  1  0  0  0
 27 28  1  0  0  0
 28 29  1  0  0  0
 29 30  1  0  0  0
 29 31  1  0  0  0
 29 32  1  0  0  0
 22 23  2  0  0  0
  2  3  1  0  0  0
  3  4  2  0  0  0
  3  5  1  0  0  0
  5  6  1  0  0  0
  6  7  1  0  0  0
  7  8  1  0  0  0
  8  9  1  0  0  0
  9 10  1  0  0  0
  9 11  1  0  0  0
 11 12  2  0  0  0
 12 13  1  0  0  0
 13 14  2  0  0  0
 14 15  1  0  0  0
 15 16  2  0  0  0
 23 18  1  0  0  0
 10  5  1  0  0  0
 16 11  1  0  0  0
 32 26  1  0  0  0
M  END
> <minimizedAffinity>
-9.49764

> <CNNscore>
0.2107633352

> <CNNaffinity>
6.6189064980

> <CNN_VS>
1.3950227499

> <CNNaffinity_variance>
0.4317421019

$$$$
[H]c1c([H])c([H])c(C2([H])C([H])([H])N(C(=O)[C@]([H])(Oc3c([H])c([H])c([H])c(C([H])([H])C([H])([H])N4C([H])([H])C([H])([H])C(F)(F)C4([H])[H])c3[H])C([H])([H])[H])C([H])([H])C([H])([H])C2([H])[H])c([H])c1[H]


 32 35  0  0  0  0  0  0  0  0999 V2000
   10.9376   24.9488    1.0548 C   0  0  0  0  0  0  0  0  0  0  0  0
   12.3779   24.4534    0.8200 C   0  0  0  0  0  0  0  0  0  0  0  0
   12.6575   24.6584   -0.6368 C   0  0  0  0  0  0  0  0  0  0  0  0
   11.6901   25.0376   -1.3615 O   0  0  0  0  0  0  0  0  0  0  0  0
   13.9082   24.4594   -1.2494 N   0  0  0  0  0  0  0  0  0  0  0  0
   15.0666   24.0082   -0.5399 C   0  0  0  0  0  0  0  0  0  0  0  0
   16.2468   24.9544   -0.7590 C   0  0  0  0  0  0  0  0  0  0  0  0
   16.4573   25.0580   -2.2679 C   0  0  0  0  0  0  0  0  0  0  0  0
   15.1983   25.7145   -2.8342 C   0  0  0  0  0  0  0  0  0  0  0  0
   14.0685   24.7189   -2.6782 C   0  0  0  0  0  0  0  0  0  0  0  0
   15.4043   26.1089   -4.2352 C   0  0  0  0  0  0  0  0  0  0  0  0
   15.2802   25.2116   -5.2798 C   0  0  0  0  0  0  0  0  0  0  0  0
   15.4724   25.5762   -6.5938 C   0  0  0  0  0  0  0  0  0  0  0  0
   15.8013   26.8801   -6.8960 C   0  0  0  0  0  0  0  0  0  0  0  0
   15.9297   27.7934   -5.8564 C   0  0  0  0  0  0  0  0  0  0  0  0
   15.7301   27.4007   -4.5339 C   0  0  0  0  0  0  0  0  0  0  0  0
   12.4725   23.1016    1.1535 O   0  0  0  0  0  0  0  0  0  0  0  0
   11.7463   22.0665    0.6525 C   0  0  0  0  0  0  0  0  0  0  0  0
   12.3184   21.1249   -0.1685 C   0  0  0  0  0  0  0  0  0  0  0  0
   11.5383   20.0811   -0.6601 C   0  0  0  0  0  0  0  0  0  0  0  0
   10.1966   20.0138   -0.3095 C   0  0  0  0  0  0  0  0  0  0  0  0
    9.5976   20.9291    0.5019 C   0  0  0  0  0  0  0  0  0  0  0  0
   10.3803   21.9540    0.9793 C   0  0  0  0  0  0  0  0  0  0  0  0
    8.1894   20.8615    0.8808 C   0  0  0  0  0  0  0  0  0  0  0  0
    7.2666   21.7791    0.1632 C   0  0  0  0  0  0  0  0  0  0  0  0
    6.3953   21.0687   -0.7025 N   0  0  0  0  0  0  0  0  0  0  0  0
    4.9988   21.2619   -0.4770 C   0  0  0  0  0  0  0  0  0  0  0  0
    4.3742   19.8601   -0.5295 C   0  0  0  0  0  0  0  0  0  0  0  0
    5.3803   19.1374   -1.4281 C   0  0  0  0  0  0  0  0  0  0  0  0
    5.2785   17.7836   -1.3431 F   0  0  0  0  0  0  0  0  0  0  0  0
    5.2468   19.6367   -2.6997 F   0  0  0  0  0  0  0  0  0  0  0  0
    6.6791   19.6737   -0.8316 C   0  0  0  0  0  0  0  0  0  0  0  0
  1  2  1  0  0  0
  2 17  1  0  0  0
 17 18  1  0  0  0
 18 19  2  0  0  0
 19 20  1  0  0  0
 20 21  2  0  0  0
 21 22  1  0  0  0
 22 24  1  0  0  0
 24 25  1  0  0  0
 25 26  1  0  0  0
 26 27  1  0  0  0
 27 28  1  0  0  0
 28 29  1  0  0  0
 29 30  1  0  0  0
 29 31  1  0  0  0
 29 32  1  0  0  0
 22 23  2  0  0  0
  2  3  1  0  0  0
  3  4  2  0  0  0
  3  5  1  0  0  0
  5  6  1  0  0  0
  6  7  1  0  0  0
  7  8  1  0  0  0
  8  9  1  0  0  0
  9 10  1  0  0  0
  9 11  1  0  0  0
 11 12  2  0  0  0
 12 13  1  0  0  0
 13 14  2  0  0  0
 14 15  1  0  0  0
 15 16  2  0  0  0
 23 18  1  0  0  0
 10  5  1  0  0  0
 16 11  1  0  0  0
 32 26  1  0  0  0
M  END
> <minimizedAffinity>
-8.68685

> <CNNscore>
0.1944006234

> <CNNaffinity>
6.8822517395

> <CNN_VS>
1.3379139900

> <CNNaffinity_variance>
0.2692455947

$$$$
[H]c1c([H])c([H])c(C2([H])C([H])([H])N(C(=O)[C@]([H])(Oc3c([H])c([H])c([H])c(C([H])([H])C([H])([H])N4C([H])([H])C([H])([H])C(F)(F)C4([H])[H])c3[H])C([H])([H])[H])C([H])([H])C([H])([H])C2([H])[H])c([H])c1[H]


 32 35  0  0  0  0  0  0  0  0999 V2000
   13.4134   20.0365   -1.1047 C   0  0  0  0  0  0  0  0  0  0  0  0
   13.0211   21.4851   -0.7543 C   0  0  0  0  0  0  0  0  0  0  0  0
   13.9189   22.3682   -1.5645 C   0  0  0  0  0  0  0  0  0  0  0  0
   14.8356   21.8021   -2.2307 O   0  0  0  0  0  0  0  0  0  0  0  0
   13.8152   23.7695   -1.6346 N   0  0  0  0  0  0  0  0  0  0  0  0
   12.8380   24.5215   -0.9078 C   0  0  0  0  0  0  0  0  0  0  0  0
   12.0397   25.4305   -1.8419 C   0  0  0  0  0  0  0  0  0  0  0  0
   13.0513   26.3010   -2.5841 C   0  0  0  0  0  0  0  0  0  0  0  0
   13.8938   25.3513   -3.4354 C   0  0  0  0  0  0  0  0  0  0  0  0
   14.7330   24.5257   -2.4835 C   0  0  0  0  0  0  0  0  0  0  0  0
   14.7160   26.1045   -4.3934 C   0  0  0  0  0  0  0  0  0  0  0  0
   14.6998   25.8362   -5.7498 C   0  0  0  0  0  0  0  0  0  0  0  0
   15.4683   26.5386   -6.6510 C   0  0  0  0  0  0  0  0  0  0  0  0
   16.2897   27.5497   -6.2008 C   0  0  0  0  0  0  0  0  0  0  0  0
   16.3167   27.8307   -4.8401 C   0  0  0  0  0  0  0  0  0  0  0  0
   15.5295   27.1059   -3.9468 C   0  0  0  0  0  0  0  0  0  0  0  0
   13.2117   21.7090    0.6099 O   0  0  0  0  0  0  0  0  0  0  0  0
   12.2940   21.6040    1.6082 C   0  0  0  0  0  0  0  0  0  0  0  0
   12.3143   20.5486    2.4880 C   0  0  0  0  0  0  0  0  0  0  0  0
   11.3555   20.4795    3.4957 C   0  0  0  0  0  0  0  0  0  0  0  0
   10.3978   21.4801    3.5906 C   0  0  0  0  0  0  0  0  0  0  0  0
   10.3487   22.5399    2.7364 C   0  0  0  0  0  0  0  0  0  0  0  0
   11.3015   22.5945    1.7465 C   0  0  0  0  0  0  0  0  0  0  0  0
    9.3493   23.5996    2.8337 C   0  0  0  0  0  0  0  0  0  0  0  0
    9.2513   24.2985    4.1415 C   0  0  0  0  0  0  0  0  0  0  0  0
    8.6794   25.5892    4.0002 N   0  0  0  0  0  0  0  0  0  0  0  0
    8.3851   26.2770    5.2163 C   0  0  0  0  0  0  0  0  0  0  0  0
    6.9773   26.8612    5.0301 C   0  0  0  0  0  0  0  0  0  0  0  0
    6.9270   26.9934    3.5062 C   0  0  0  0  0  0  0  0  0  0  0  0
    5.6587   27.1368    3.0359 F   0  0  0  0  0  0  0  0  0  0  0  0
    7.7841   28.0013    3.1405 F   0  0  0  0  0  0  0  0  0  0  0  0
    7.5567   25.6580    3.1182 C   0  0  0  0  0  0  0  0  0  0  0  0
  1  2  1  0  0  0
  2 17  1  0  0  0
 17 18  1  0  0  0
 18 19  2  0  0  0
 19 20  1  0  0  0
 20 21  2  0  0  0
 21 22  1  0  0  0
 22 24  1  0  0  0
 24 25  1  0  0  0
 25 26  1  0  0  0
 26 27  1  0  0  0
 27 28  1  0  0  0
 28 29  1  0  0  0
 29 30  1  0  0  0
 29 31  1  0  0  0
 29 32  1  0  0  0
 22 23  2  0  0  0
  2  3  1  0  0  0
  3  4  2  0  0  0
  3  5  1  0  0  0
  5  6  1  0  0  0
  6  7  1  0  0  0
  7  8  1  0  0  0
  8  9  1  0  0  0
  9 10  1  0  0  0
  9 11  1  0  0  0
 11 12  2  0  0  0
 12 13  1  0  0  0
 13 14  2  0  0  0
 14 15  1  0  0  0
 15 16  2  0  0  0
 23 18  1  0  0  0
 10  5  1  0  0  0
 16 11  1  0  0  0
 32 26  1  0  0  0
M  END
> <minimizedAffinity>
-9.86050

> <CNNscore>
0.1930080801

> <CNNaffinity>
6.5192871094

> <CNN_VS>
1.2582750320

> <CNNaffinity_variance>
0.3695666194

$$$$
[H]c1c([H])c([H])c(C2([H])C([H])([H])N(C(=O)[C@]([H])(Oc3c([H])c([H])c([H])c(C([H])([H])C([H])([H])N4C([H])([H])C([H])([H])C(F)(F)C4([H])[H])c3[H])C([H])([H])[H])C([H])([H])C([H])([H])C2([H])[H])c([H])c1[H]


 32 35  0  0  0  0  0  0  0  0999 V2000
   11.0053   24.6129    0.8542 C   0  0  0  0  0  0  0  0  0  0  0  0
   12.5360   24.5713    0.6796 C   0  0  0  0  0  0  0  0  0  0  0  0
   12.7943   24.7568   -0.7837 C   0  0  0  0  0  0  0  0  0  0  0  0
   11.8113   25.1052   -1.5028 O   0  0  0  0  0  0  0  0  0  0  0  0
   14.0413   24.5712   -1.4079 N   0  0  0  0  0  0  0  0  0  0  0  0
   15.2164   24.1542   -0.7052 C   0  0  0  0  0  0  0  0  0  0  0  0
   16.3756   25.1188   -0.9544 C   0  0  0  0  0  0  0  0  0  0  0  0
   16.5662   25.2007   -2.4672 C   0  0  0  0  0  0  0  0  0  0  0  0
   15.2883   25.8234   -3.0291 C   0  0  0  0  0  0  0  0  0  0  0  0
   14.1797   24.8095   -2.8428 C   0  0  0  0  0  0  0  0  0  0  0  0
   15.4701   26.1979   -4.4389 C   0  0  0  0  0  0  0  0  0  0  0  0
   15.3015   25.2923   -5.4701 C   0  0  0  0  0  0  0  0  0  0  0  0
   15.4710   25.6382   -6.7922 C   0  0  0  0  0  0  0  0  0  0  0  0
   15.8218   26.9310   -7.1168 C   0  0  0  0  0  0  0  0  0  0  0  0
   15.9948   27.8523   -6.0910 C   0  0  0  0  0  0  0  0  0  0  0  0
   15.8176   27.4787   -4.7598 C   0  0  0  0  0  0  0  0  0  0  0  0
   13.0273   23.3393    1.1135 O   0  0  0  0  0  0  0  0  0  0  0  0
   12.3721   22.1482    1.1550 C   0  0  0  0  0  0  0  0  0  0  0  0
   11.9202   21.5421    0.0076 C   0  0  0  0  0  0  0  0  0  0  0  0
   11.2534   20.3225    0.0952 C   0  0  0  0  0  0  0  0  0  0  0  0
   11.0591   19.7437    1.3421 C   0  0  0  0  0  0  0  0  0  0  0  0
   11.4939   20.3163    2.4989 C   0  0  0  0  0  0  0  0  0  0  0  0
   12.1503   21.5203    2.3967 C   0  0  0  0  0  0  0  0  0  0  0  0
   11.2997   19.7109    3.8130 C   0  0  0  0  0  0  0  0  0  0  0  0
   11.0951   20.6471    4.9489 C   0  0  0  0  0  0  0  0  0  0  0  0
    9.7560   20.6134    5.4164 N   0  0  0  0  0  0  0  0  0  0  0  0
    9.3851   19.4535    6.1618 C   0  0  0  0  0  0  0  0  0  0  0  0
    8.0184   19.0259    5.6075 C   0  0  0  0  0  0  0  0  0  0  0  0
    7.4937   20.3664    5.0882 C   0  0  0  0  0  0  0  0  0  0  0  0
    6.4624   20.2202    4.2133 F   0  0  0  0  0  0  0  0  0  0  0  0
    7.2084   21.1579    6.1728 F   0  0  0  0  0  0  0  0  0  0  0  0
    8.7642   20.8930    4.4258 C   0  0  0  0  0  0  0  0  0  0  0  0
  1  2  1  0  0  0
  2 17  1  0  0  0
 17 18  1  0  0  0
 18 19  2  0  0  0
 19 20  1  0  0  0
 20 21  2  0  0  0
 21 22  1  0  0  0
 22 24  1  0  0  0
 24 25  1  0  0  0
 25 26  1  0  0  0
 26 27  1  0  0  0
 27 28  1  0  0  0
 28 29  1  0  0  0
 29 30  1  0  0  0
 29 31  1  0  0  0
 29 32  1  0  0  0
 22 23  2  0  0  0
  2  3  1  0  0  0
  3  4  2  0  0  0
  3  5  1  0  0  0
  5  6  1  0  0  0
  6  7  1  0  0  0
  7  8  1  0  0  0
  8  9  1  0  0  0
  9 10  1  0  0  0
  9 11  1  0  0  0
 11 12  2  0  0  0
 12 13  1  0  0  0
 13 14  2  0  0  0
 14 15  1  0  0  0
 15 16  2  0  0  0
 23 18  1  0  0  0
 10  5  1  0  0  0
 16 11  1  0  0  0
 32 26  1  0  0  0
M  END
> <minimizedAffinity>
-8.78440

> <CNNscore>
0.1871328801

> <CNNaffinity>
6.3565220833

> <CNN_VS>
1.1895142794

> <CNNaffinity_variance>
0.2906308472

$$$$
[H]c1c([H])c([H])c(C2([H])C([H])([H])N(C(=O)[C@]([H])(Oc3c([H])c([H])c([H])c(C([H])([H])C([H])([H])N4C([H])([H])C([H])([H])C(F)(F)C4([H])[H])c3[H])C([H])([H])[H])C([H])([H])C([H])([H])C2([H])[H])c([H])c1[H]


 32 35  0  0  0  0  0  0  0  0999 V2000
   10.1697   21.7823    0.8729 C   0  0  0  0  0  0  0  0  0  0  0  0
   10.8585   22.3257    2.1400 C   0  0  0  0  0  0  0  0  0  0  0  0
   10.3055   23.7001    2.3587 C   0  0  0  0  0  0  0  0  0  0  0  0
   10.5420   24.5655    1.4644 O   0  0  0  0  0  0  0  0  0  0  0  0
    9.5500   24.0918    3.4790 N   0  0  0  0  0  0  0  0  0  0  0  0
    9.2409   23.2110    4.5641 C   0  0  0  0  0  0  0  0  0  0  0  0
    7.7363   23.1765    4.8307 C   0  0  0  0  0  0  0  0  0  0  0  0
    7.2959   24.6188    5.0711 C   0  0  0  0  0  0  0  0  0  0  0  0
    7.5387   25.3672    3.7606 C   0  0  0  0  0  0  0  0  0  0  0  0
    9.0379   25.4571    3.5704 C   0  0  0  0  0  0  0  0  0  0  0  0
    6.9006   26.6910    3.7932 C   0  0  0  0  0  0  0  0  0  0  0  0
    7.2321   27.6917    2.8985 C   0  0  0  0  0  0  0  0  0  0  0  0
    6.6374   28.9335    2.9253 C   0  0  0  0  0  0  0  0  0  0  0  0
    5.6742   29.2053    3.8728 C   0  0  0  0  0  0  0  0  0  0  0  0
    5.3306   28.2093    4.7790 C   0  0  0  0  0  0  0  0  0  0  0  0
    5.9464   26.9597    4.7321 C   0  0  0  0  0  0  0  0  0  0  0  0
   12.2390   22.3769    1.9419 O   0  0  0  0  0  0  0  0  0  0  0  0
   12.9287   22.0993    0.8031 C   0  0  0  0  0  0  0  0  0  0  0  0
   13.4648   20.8541    0.5791 C   0  0  0  0  0  0  0  0  0  0  0  0
   14.1643   20.6125   -0.6007 C   0  0  0  0  0  0  0  0  0  0  0  0
   14.3053   21.6366   -1.5275 C   0  0  0  0  0  0  0  0  0  0  0  0
   13.7867   22.8817   -1.3381 C   0  0  0  0  0  0  0  0  0  0  0  0
   13.0990   23.1054   -0.1686 C   0  0  0  0  0  0  0  0  0  0  0  0
   13.9247   23.9617   -2.3106 C   0  0  0  0  0  0  0  0  0  0  0  0
   15.0793   23.8699   -3.2417 C   0  0  0  0  0  0  0  0  0  0  0  0
   15.2965   25.0950   -3.9237 N   0  0  0  0  0  0  0  0  0  0  0  0
   14.4151   26.1644   -3.5800 C   0  0  0  0  0  0  0  0  0  0  0  0
   13.9868   26.7916   -4.9146 C   0  0  0  0  0  0  0  0  0  0  0  0
   15.1857   26.4282   -5.7937 C   0  0  0  0  0  0  0  0  0  0  0  0
   14.9111   26.5350   -7.1217 F   0  0  0  0  0  0  0  0  0  0  0  0
   16.2589   27.1748   -5.3753 F   0  0  0  0  0  0  0  0  0  0  0  0
   15.3964   24.9843   -5.3453 C   0  0  0  0  0  0  0  0  0  0  0  0
  1  2  1  0  0  0
  2 17  1  0  0  0
 17 18  1  0  0  0
 18 19  2  0  0  0
 19 20  1  0  0  0
 20 21  2  0  0  0
 21 22  1  0  0  0
 22 24  1  0  0  0
 24 25  1  0  0  0
 25 26  1  0  0  0
 26 27  1  0  0  0
 27 28  1  0  0  0
 28 29  1  0  0  0
 29 30  1  0  0  0
 29 31  1  0  0  0
 29 32  1  0  0  0
 22 23  2  0  0  0
  2  3  1  0  0  0
  3  4  2  0  0  0
  3  5  1  0  0  0
  5  6  1  0  0  0
  6  7  1  0  0  0
  7  8  1  0  0  0
  8  9  1  0  0  0
  9 10  1  0  0  0
  9 11  1  0  0  0
 11 12  2  0  0  0
 12 13  1  0  0  0
 13 14  2  0  0  0
 14 15  1  0  0  0
 15 16  2  0  0  0
 23 18  1  0  0  0
 10  5  1  0  0  0
 16 11  1  0  0  0
 32 26  1  0  0  0
M  END
> <minimizedAffinity>
-9.85656

> <CNNscore>
0.1868272126

> <CNNaffinity>
6.3661785126

> <CNN_VS>
1.1893754005

> <CNNaffinity_variance>
0.1516125202

$$$$
[H]c1c([H])c([H])c(C2([H])C([H])([H])N(C(=O)[C@]([H])(Oc3c([H])c([H])c([H])c(C([H])([H])C([H])([H])N4C([H])([H])C([H])([H])C(F)(F)C4([H])[H])c3[H])C([H])([H])[H])C([H])([H])C([H])([H])C2([H])[H])c([H])c1[H]


 32 35  0  0  0  0  0  0  0  0999 V2000
    9.8235   23.7804    0.8290 C   0  0  0  0  0  0  0  0  0  0  0  0
   11.3245   23.4322    0.8012 C   0  0  0  0  0  0  0  0  0  0  0  0
   11.8314   23.8770   -0.5358 C   0  0  0  0  0  0  0  0  0  0  0  0
   10.9708   24.2808   -1.3732 O   0  0  0  0  0  0  0  0  0  0  0  0
   13.1843   23.8760   -0.9217 N   0  0  0  0  0  0  0  0  0  0  0  0
   14.2422   23.4193   -0.0726 C   0  0  0  0  0  0  0  0  0  0  0  0
   15.3330   24.4812    0.0637 C   0  0  0  0  0  0  0  0  0  0  0  0
   15.7924   24.8284   -1.3506 C   0  0  0  0  0  0  0  0  0  0  0  0
   14.5888   25.4574   -2.0520 C   0  0  0  0  0  0  0  0  0  0  0  0
   13.5637   24.3606   -2.2468 C   0  0  0  0  0  0  0  0  0  0  0  0
   14.9933   26.0745   -3.3234 C   0  0  0  0  0  0  0  0  0  0  0  0
   14.2244   25.9761   -4.4684 C   0  0  0  0  0  0  0  0  0  0  0  0
   14.5993   26.5521   -5.6618 C   0  0  0  0  0  0  0  0  0  0  0  0
   15.7819   27.2560   -5.7347 C   0  0  0  0  0  0  0  0  0  0  0  0
   16.5654   27.3633   -4.5919 C   0  0  0  0  0  0  0  0  0  0  0  0
   16.1650   26.7717   -3.3950 C   0  0  0  0  0  0  0  0  0  0  0  0
   11.4929   22.0558    0.9579 O   0  0  0  0  0  0  0  0  0  0  0  0
   11.4618   21.3382    2.1129 C   0  0  0  0  0  0  0  0  0  0  0  0
   11.9823   20.0682    2.1781 C   0  0  0  0  0  0  0  0  0  0  0  0
   11.9295   19.3681    3.3809 C   0  0  0  0  0  0  0  0  0  0  0  0
   11.3512   19.9693    4.4908 C   0  0  0  0  0  0  0  0  0  0  0  0
   10.8265   21.2258    4.4617 C   0  0  0  0  0  0  0  0  0  0  0  0
   10.8856   21.9045    3.2672 C   0  0  0  0  0  0  0  0  0  0  0  0
   10.2231   21.8675    5.6259 C   0  0  0  0  0  0  0  0  0  0  0  0
    8.9334   21.3008    6.0992 C   0  0  0  0  0  0  0  0  0  0  0  0
    7.8261   21.9961    5.5483 N   0  0  0  0  0  0  0  0  0  0  0  0
    7.1904   21.3717    4.4327 C   0  0  0  0  0  0  0  0  0  0  0  0
    6.9730   22.4895    3.4025 C   0  0  0  0  0  0  0  0  0  0  0  0
    6.9079   23.7109    4.3223 C   0  0  0  0  0  0  0  0  0  0  0  0
    7.0932   24.8800    3.6521 F   0  0  0  0  0  0  0  0  0  0  0  0
    5.7345   23.6444    5.0314 F   0  0  0  0  0  0  0  0  0  0  0  0
    8.0620   23.3770    5.2640 C   0  0  0  0  0  0  0  0  0  0  0  0
  1  2  1  0  0  0
  2 17  1  0  0  0
 17 18  1  0  0  0
 18 19  2  0  0  0
 19 20  1  0  0  0
 20 21  2  0  0  0
 21 22  1  0  0  0
 22 24  1  0  0  0
 24 25  1  0  0  0
 25 26  1  0  0  0
 26 27  1  0  0  0
 27 28  1  0  0  0
 28 29  1  0  0  0
 29 30  1  0  0  0
 29 31  1  0  0  0
 29 32  1  0  0  0
 22 23  2  0  0  0
  2  3  1  0  0  0
  3  4  2  0  0  0
  3  5  1  0  0  0
  5  6  1  0  0  0
  6  7  1  0  0  0
  7  8  1  0  0  0
  8  9  1  0  0  0
  9 10  1  0  0  0
  9 11  1  0  0  0
 11 12  2  0  0  0
 12 13  1  0  0  0
 13 14  2  0  0  0
 14 15  1  0  0  0
 15 16  2  0  0  0
 23 18  1  0  0  0
 10  5  1  0  0  0
 16 11  1  0  0  0
 32 26  1  0  0  0
M  END
> <minimizedAffinity>
-8.66212

> <CNNscore>
0.1655223519

> <CNNaffinity>
6.2579884529

> <CNN_VS>
1.0358369350

> <CNNaffinity_variance>
0.4063672125

$$$$
[H]OC1=C([H])C([H])(C([H])([H])c2c([H])c(=O)oc3c([H])c(O[H])c([H])c([H])c23)c2nc(C3=NOC(C([H])([H])[H])(C([H])([H])[H])C3([H])[H])n([H])c2C([H])=C1OC([H])([H])[H]


 36 40  0  0  0  0  0  0  0  0999 V2000
   12.9649   25.8532   -2.0821 C   0  0  0  0  0  0  0  0  0  0  0  0
   14.3713   25.4242   -1.9334 C   0  0  0  0  0  0  0  0  0  0  0  0
   15.4032   25.2581   -2.8094 C   0  0  0  0  0  0  0  0  0  0  0  0
   16.4613   24.8483   -2.1235 N   0  0  0  0  0  0  0  0  0  0  0  0
   16.1537   24.7400   -0.8189 C   0  0  0  0  0  0  0  0  0  0  0  0
   14.8583   25.1003   -0.7234 N   0  0  0  0  0  0  0  0  0  0  0  0
   15.3409   25.4940   -4.2544 C   0  0  0  0  0  0  0  0  0  0  0  0
   14.4427   26.1459   -4.9535 C   0  0  0  0  0  0  0  0  0  0  0  0
   13.2580   26.8110   -4.4490 C   0  0  0  0  0  0  0  0  0  0  0  0
   12.6338   27.7300   -5.3190 O   0  0  0  0  0  0  0  0  0  0  0  0
   12.7057   26.6550   -3.2826 C   0  0  0  0  0  0  0  0  0  0  0  0
   17.3943   24.6440   -2.5570 H   0  0  0  0  0  0  0  0  0  0  0  0
   11.6793   27.4668   -5.5861 H   0  0  0  0  0  0  0  0  0  0  0  0
   17.0425   24.3174    0.2763 C   0  0  0  0  0  0  0  0  0  0  0  0
   16.9170   23.2320    0.9599 N   0  0  0  0  0  0  0  0  0  0  0  0
   17.9340   23.1662    1.9073 O   0  0  0  0  0  0  0  0  0  0  0  0
   18.9319   24.1035    1.6074 C   0  0  0  0  0  0  0  0  0  0  0  0
   20.0582   23.4902    0.8013 C   0  0  0  0  0  0  0  0  0  0  0  0
   19.5099   24.7700    2.8369 C   0  0  0  0  0  0  0  0  0  0  0  0
   18.2155   25.1009    0.7396 C   0  0  0  0  0  0  0  0  0  0  0  0
   14.6765   26.1866   -6.3140 O   0  0  0  0  0  0  0  0  0  0  0  0
   15.8451   26.8141   -6.8001 C   0  0  0  0  0  0  0  0  0  0  0  0
   12.0168   24.6689   -2.1111 C   0  0  0  0  0  0  0  0  0  0  0  0
   11.7839   24.0326   -0.8283 C   0  0  0  0  0  0  0  0  0  0  0  0
   10.7690   24.4587   -0.0025 C   0  0  0  0  0  0  0  0  0  0  0  0
   10.5308   23.8212    1.2248 C   0  0  0  0  0  0  0  0  0  0  0  0
    9.5854   24.2300    1.9768 O   0  0  0  0  0  0  0  0  0  0  0  0
   11.2817   22.8101    1.5900 O   0  0  0  0  0  0  0  0  0  0  0  0
   12.2650   22.3627    0.8400 C   0  0  0  0  0  0  0  0  0  0  0  0
   13.0281   21.2895    1.2794 C   0  0  0  0  0  0  0  0  0  0  0  0
   14.0672   20.7881    0.5330 C   0  0  0  0  0  0  0  0  0  0  0  0
   14.8413   19.7087    0.9654 O   0  0  0  0  0  0  0  0  0  0  0  0
   14.3402   21.3807   -0.6768 C   0  0  0  0  0  0  0  0  0  0  0  0
   13.5825   22.4459   -1.1132 C   0  0  0  0  0  0  0  0  0  0  0  0
   12.5403   22.9688   -0.3955 C   0  0  0  0  0  0  0  0  0  0  0  0
   15.6660   19.9280    1.5168 H   0  0  0  0  0  0  0  0  0  0  0  0
  1 23  1  0  0  0
 23 24  1  0  0  0
 24 25  2  0  0  0
 25 26  1  0  0  0
 26 27  2  0  0  0
 26 28  1  0  0  0
 28 29  1  0  0  0
 29 30  2  0  0  0
 30 31  1  0  0  0
 31 32  1  0  0  0
 31 33  2  0  0  0
 33 34  1  0  0  0
 34 35  2  0  0  0
  1  2  1  0  0  0
  2  3  2  0  0  0
  3  4  1  0  0  0
  4  5  1  0  0  0
  5 14  1  0  0  0
 14 15  2  0  0  0
 15 16  1  0  0  0
 16 17  1  0  0  0
 17 18  1  0  0  0
 17 19  1  0  0  0
 17 20  1  0  0  0
  5  6  2  0  0  0
  3  7  1  0  0  0
  7  8  2  0  0  0
  8 21  1  0  0  0
 21 22  1  0  0  0
  8  9  1  0  0  0
  9 10  1  0  0  0
  9 11  2  0  0  0
 11  1  1  0  0  0
 35 24  1  0  0  0
  6  2  1  0  0  0
 35 29  1  0  0  0
 20 14  1  0  0  0
 32 36  1  0  0  0
  4 12  1  0  0  0
 10 13  1  0  0  0
M  END
> <minimizedAffinity>
5.17749

> <CNNscore>
0.7054011822

> <CNNaffinity>
8.2910461426

> <CNN_VS>
5.8485136032

> <CNNaffinity_variance>
0.7014581561

$$$$
[H]OC1=C([H])C([H])(C([H])([H])c2c([H])c(=O)oc3c([H])c(O[H])c([H])c([H])c23)c2nc(C3=NOC(C([H])([H])[H])(C([H])([H])[H])C3([H])[H])n([H])c2C([H])=C1OC([H])([H])[H]


 36 40  0  0  0  0  0  0  0  0999 V2000
   14.7539   23.8286   -3.9500 C   0  0  0  0  0  0  0  0  0  0  0  0
   13.7561   24.5707   -3.1516 C   0  0  0  0  0  0  0  0  0  0  0  0
   13.4273   25.8899   -3.0448 C   0  0  0  0  0  0  0  0  0  0  0  0
   12.4417   25.9968   -2.1644 N   0  0  0  0  0  0  0  0  0  0  0  0
   12.1126   24.7830   -1.6884 C   0  0  0  0  0  0  0  0  0  0  0  0
   12.9364   23.9167   -2.3110 N   0  0  0  0  0  0  0  0  0  0  0  0
   14.0607   26.9883   -3.7797 C   0  0  0  0  0  0  0  0  0  0  0  0
   14.8290   26.9452   -4.8418 C   0  0  0  0  0  0  0  0  0  0  0  0
   15.2499   25.7635   -5.5675 C   0  0  0  0  0  0  0  0  0  0  0  0
   15.7757   25.9728   -6.8600 O   0  0  0  0  0  0  0  0  0  0  0  0
   15.1968   24.5303   -5.1595 C   0  0  0  0  0  0  0  0  0  0  0  0
   11.9976   26.9076   -1.8935 H   0  0  0  0  0  0  0  0  0  0  0  0
   16.7560   25.6892   -6.9608 H   0  0  0  0  0  0  0  0  0  0  0  0
   11.0721   24.4646   -0.6963 C   0  0  0  0  0  0  0  0  0  0  0  0
    9.9283   23.9333   -0.9618 N   0  0  0  0  0  0  0  0  0  0  0  0
    9.2087   23.7793    0.2192 O   0  0  0  0  0  0  0  0  0  0  0  0
   10.0573   23.9372    1.3234 C   0  0  0  0  0  0  0  0  0  0  0  0
   10.5814   22.6081    1.8269 C   0  0  0  0  0  0  0  0  0  0  0  0
    9.4073   24.6791    2.4710 C   0  0  0  0  0  0  0  0  0  0  0  0
   11.2111   24.7196    0.7597 C   0  0  0  0  0  0  0  0  0  0  0  0
   15.2697   28.1730   -5.2955 O   0  0  0  0  0  0  0  0  0  0  0  0
   16.5137   28.6731   -4.8504 C   0  0  0  0  0  0  0  0  0  0  0  0
   15.9909   23.4978   -3.1359 C   0  0  0  0  0  0  0  0  0  0  0  0
   15.8311   23.6062   -1.6981 C   0  0  0  0  0  0  0  0  0  0  0  0
   16.3820   24.6589   -1.0037 C   0  0  0  0  0  0  0  0  0  0  0  0
   16.2004   24.7734    0.3831 C   0  0  0  0  0  0  0  0  0  0  0  0
   16.7183   25.7561    1.0097 O   0  0  0  0  0  0  0  0  0  0  0  0
   15.4999   23.8697    1.0251 O   0  0  0  0  0  0  0  0  0  0  0  0
   14.9523   22.8437    0.4112 C   0  0  0  0  0  0  0  0  0  0  0  0
   14.2227   21.9169    1.1434 C   0  0  0  0  0  0  0  0  0  0  0  0
   13.6341   20.8274    0.5479 C   0  0  0  0  0  0  0  0  0  0  0  0
   12.8978   19.8890    1.2749 O   0  0  0  0  0  0  0  0  0  0  0  0
   13.7852   20.6712   -0.8094 C   0  0  0  0  0  0  0  0  0  0  0  0
   14.5092   21.5913   -1.5363 C   0  0  0  0  0  0  0  0  0  0  0  0
   15.1070   22.6877   -0.9748 C   0  0  0  0  0  0  0  0  0  0  0  0
   13.4105   19.0974    1.6530 H   0  0  0  0  0  0  0  0  0  0  0  0
  1 23  1  0  0  0
 23 24  1  0  0  0
 24 25  2  0  0  0
 25 26  1  0  0  0
 26 27  2  0  0  0
 26 28  1  0  0  0
 28 29  1  0  0  0
 29 30  2  0  0  0
 30 31  1  0  0  0
 31 32  1  0  0  0
 31 33  2  0  0  0
 33 34  1  0  0  0
 34 35  2  0  0  0
  1  2  1  0  0  0
  2  3  2  0  0  0
  3  4  1  0  0  0
  4  5  1  0  0  0
  5 14  1  0  0  0
 14 15  2  0  0  0
 15 16  1  0  0  0
 16 17  1  0  0  0
 17 18  1  0  0  0
 17 19  1  0  0  0
 17 20  1  0  0  0
  5  6  2  0  0  0
  3  7  1  0  0  0
  7  8  2  0  0  0
  8 21  1  0  0  0
 21 22  1  0  0  0
  8  9  1  0  0  0
  9 10  1  0  0  0
  9 11  2  0  0  0
 11  1  1  0  0  0
 35 24  1  0  0  0
  6  2  1  0  0  0
 35 29  1  0  0  0
 20 14  1  0  0  0
 32 36  1  0  0  0
  4 12  1  0  0  0
 10 13  1  0  0  0
M  END
> <minimizedAffinity>
-4.96313

> <CNNscore>
0.6875143647

> <CNNaffinity>
8.1518068314

> <CNN_VS>
5.6044840813

> <CNNaffinity_variance>
0.3740106523

$$$$
[H]OC1=C([H])C([H])(C([H])([H])c2c([H])c(=O)oc3c([H])c(O[H])c([H])c([H])c23)c2nc(C3=NOC(C([H])([H])[H])(C([H])([H])[H])C3([H])[H])n([H])c2C([H])=C1OC([H])([H])[H]


 36 40  0  0  0  0  0  0  0  0999 V2000
   11.3731   25.0899    1.1831 C   0  0  0  0  0  0  0  0  0  0  0  0
   11.4415   25.0043   -0.2907 C   0  0  0  0  0  0  0  0  0  0  0  0
   10.7199   24.3277   -1.2295 C   0  0  0  0  0  0  0  0  0  0  0  0
   11.2214   24.6205   -2.4215 N   0  0  0  0  0  0  0  0  0  0  0  0
   12.2541   25.4721   -2.2926 C   0  0  0  0  0  0  0  0  0  0  0  0
   12.3731   25.6960   -0.9688 N   0  0  0  0  0  0  0  0  0  0  0  0
    9.5902   23.4351   -0.9562 C   0  0  0  0  0  0  0  0  0  0  0  0
    8.8738   23.3096    0.1352 C   0  0  0  0  0  0  0  0  0  0  0  0
    9.0318   24.0468    1.3730 C   0  0  0  0  0  0  0  0  0  0  0  0
    7.9490   23.9991    2.2764 O   0  0  0  0  0  0  0  0  0  0  0  0
   10.0616   24.7480    1.7439 C   0  0  0  0  0  0  0  0  0  0  0  0
   10.8500   24.2322   -3.3222 H   0  0  0  0  0  0  0  0  0  0  0  0
    8.1756   23.5575    3.1737 H   0  0  0  0  0  0  0  0  0  0  0  0
   13.0821   26.0415   -3.3690 C   0  0  0  0  0  0  0  0  0  0  0  0
   12.8880   27.1846   -3.9317 N   0  0  0  0  0  0  0  0  0  0  0  0
   13.8636   27.3896   -4.9026 O   0  0  0  0  0  0  0  0  0  0  0  0
   14.9077   26.4695   -4.7368 C   0  0  0  0  0  0  0  0  0  0  0  0
   16.0407   27.0444   -3.9119 C   0  0  0  0  0  0  0  0  0  0  0  0
   15.4619   25.9570   -6.0484 C   0  0  0  0  0  0  0  0  0  0  0  0
   14.2650   25.3595   -3.9521 C   0  0  0  0  0  0  0  0  0  0  0  0
    7.8674   22.3660    0.0694 O   0  0  0  0  0  0  0  0  0  0  0  0
    8.1852   20.9985    0.2262 C   0  0  0  0  0  0  0  0  0  0  0  0
   12.4009   24.1918    1.8460 C   0  0  0  0  0  0  0  0  0  0  0  0
   13.4995   23.7771    0.9942 C   0  0  0  0  0  0  0  0  0  0  0  0
   14.6608   24.5127    0.9310 C   0  0  0  0  0  0  0  0  0  0  0  0
   15.7309   24.0915    0.1267 C   0  0  0  0  0  0  0  0  0  0  0  0
   16.7994   24.7862    0.0811 O   0  0  0  0  0  0  0  0  0  0  0  0
   15.6249   22.9870   -0.5722 O   0  0  0  0  0  0  0  0  0  0  0  0
   14.5382   22.2468   -0.5493 C   0  0  0  0  0  0  0  0  0  0  0  0
   14.4824   21.0880   -1.3120 C   0  0  0  0  0  0  0  0  0  0  0  0
   13.3685   20.2834   -1.3232 C   0  0  0  0  0  0  0  0  0  0  0  0
   13.3018   19.1155   -2.0866 O   0  0  0  0  0  0  0  0  0  0  0  0
   12.2934   20.6554   -0.5519 C   0  0  0  0  0  0  0  0  0  0  0  0
   12.3489   21.8054    0.2055 C   0  0  0  0  0  0  0  0  0  0  0  0
   13.4426   22.6282    0.2404 C   0  0  0  0  0  0  0  0  0  0  0  0
   12.9443   19.2067   -3.0334 H   0  0  0  0  0  0  0  0  0  0  0  0
  1 23  1  0  0  0
 23 24  1  0  0  0
 24 25  2  0  0  0
 25 26  1  0  0  0
 26 27  2  0  0  0
 26 28  1  0  0  0
 28 29  1  0  0  0
 29 30  2  0  0  0
 30 31  1  0  0  0
 31 32  1  0  0  0
 31 33  2  0  0  0
 33 34  1  0  0  0
 34 35  2  0  0  0
  1  2  1  0  0  0
  2  3  2  0  0  0
  3  4  1  0  0  0
  4  5  1  0  0  0
  5 14  1  0  0  0
 14 15  2  0  0  0
 15 16  1  0  0  0
 16 17  1  0  0  0
 17 18  1  0  0  0
 17 19  1  0  0  0
 17 20  1  0  0  0
  5  6  2  0  0  0
  3  7  1  0  0  0
  7  8  2  0  0  0
  8 21  1  0  0  0
 21 22  1  0  0  0
  8  9  1  0  0  0
  9 10  1  0  0  0
  9 11  2  0  0  0
 11  1  1  0  0  0
 35 24  1  0  0  0
  6  2  1  0  0  0
 35 29  1  0  0  0
 20 14  1  0  0  0
 32 36  1  0  0  0
  4 12  1  0  0  0
 10 13  1  0  0  0
M  END
> <minimizedAffinity>
-3.35695

> <CNNscore>
0.6718267798

> <CNNaffinity>
7.8767867088

> <CNN_VS>
5.2918362617

> <CNNaffinity_variance>
0.5135669708

$$$$
[H]OC1=C([H])C([H])(C([H])([H])c2c([H])c(=O)oc3c([H])c(O[H])c([H])c([H])c23)c2nc(C3=NOC(C([H])([H])[H])(C([H])([H])[H])C3([H])[H])n([H])c2C([H])=C1OC([H])([H])[H]


 36 40  0  0  0  0  0  0  0  0999 V2000
   13.3700   26.1459   -3.3116 C   0  0  0  0  0  0  0  0  0  0  0  0
   14.6301   25.4716   -2.9355 C   0  0  0  0  0  0  0  0  0  0  0  0
   15.6628   24.9386   -3.6492 C   0  0  0  0  0  0  0  0  0  0  0  0
   16.5477   24.4529   -2.7895 N   0  0  0  0  0  0  0  0  0  0  0  0
   16.1252   24.6519   -1.5285 C   0  0  0  0  0  0  0  0  0  0  0  0
   14.9391   25.2823   -1.6414 N   0  0  0  0  0  0  0  0  0  0  0  0
   15.7648   24.9126   -5.1109 C   0  0  0  0  0  0  0  0  0  0  0  0
   15.0902   25.5955   -6.0047 C   0  0  0  0  0  0  0  0  0  0  0  0
   14.0485   26.5714   -5.7539 C   0  0  0  0  0  0  0  0  0  0  0  0
   13.7127   27.4232   -6.8274 O   0  0  0  0  0  0  0  0  0  0  0  0
   13.3881   26.7494   -4.6484 C   0  0  0  0  0  0  0  0  0  0  0  0
   17.4420   23.9849   -3.0745 H   0  0  0  0  0  0  0  0  0  0  0  0
   12.7468   27.3176   -7.1553 H   0  0  0  0  0  0  0  0  0  0  0  0
   16.8115   24.2640   -0.2848 C   0  0  0  0  0  0  0  0  0  0  0  0
   16.4188   23.3418    0.5254 N   0  0  0  0  0  0  0  0  0  0  0  0
   17.3121   23.2544    1.5888 O   0  0  0  0  0  0  0  0  0  0  0  0
   18.4934   23.9435    1.2823 C   0  0  0  0  0  0  0  0  0  0  0  0
   19.5528   23.0220    0.7137 C   0  0  0  0  0  0  0  0  0  0  0  0
   19.0704   24.6892    2.4659 C   0  0  0  0  0  0  0  0  0  0  0  0
   18.0636   24.8965    0.2015 C   0  0  0  0  0  0  0  0  0  0  0  0
   15.4302   25.3366   -7.3180 O   0  0  0  0  0  0  0  0  0  0  0  0
   16.3103   26.2110   -7.9937 C   0  0  0  0  0  0  0  0  0  0  0  0
   12.1870   25.1974   -3.2554 C   0  0  0  0  0  0  0  0  0  0  0  0
   11.8148   24.7527   -1.9257 C   0  0  0  0  0  0  0  0  0  0  0  0
   11.0775   23.6048   -1.7454 C   0  0  0  0  0  0  0  0  0  0  0  0
   10.7443   23.1646   -0.4553 C   0  0  0  0  0  0  0  0  0  0  0  0
   10.0605   22.0981   -0.3079 O   0  0  0  0  0  0  0  0  0  0  0  0
   11.1379   23.8523    0.5895 O   0  0  0  0  0  0  0  0  0  0  0  0
   11.8436   24.9561    0.4745 C   0  0  0  0  0  0  0  0  0  0  0  0
   12.2308   25.6438    1.6167 C   0  0  0  0  0  0  0  0  0  0  0  0
   12.9662   26.8025    1.5479 C   0  0  0  0  0  0  0  0  0  0  0  0
   13.3613   27.5022    2.6906 O   0  0  0  0  0  0  0  0  0  0  0  0
   13.3159   27.2746    0.3053 C   0  0  0  0  0  0  0  0  0  0  0  0
   12.9318   26.5918   -0.8285 C   0  0  0  0  0  0  0  0  0  0  0  0
   12.2004   25.4348   -0.7955 C   0  0  0  0  0  0  0  0  0  0  0  0
   12.7247   28.2160    3.0338 H   0  0  0  0  0  0  0  0  0  0  0  0
  1 23  1  0  0  0
 23 24  1  0  0  0
 24 25  2  0  0  0
 25 26  1  0  0  0
 26 27  2  0  0  0
 26 28  1  0  0  0
 28 29  1  0  0  0
 29 30  2  0  0  0
 30 31  1  0  0  0
 31 32  1  0  0  0
 31 33  2  0  0  0
 33 34  1  0  0  0
 34 35  2  0  0  0
  1  2  1  0  0  0
  2  3  2  0  0  0
  3  4  1  0  0  0
  4  5  1  0  0  0
  5 14  1  0  0  0
 14 15  2  0  0  0
 15 16  1  0  0  0
 16 17  1  0  0  0
 17 18  1  0  0  0
 17 19  1  0  0  0
 17 20  1  0  0  0
  5  6  2  0  0  0
  3  7  1  0  0  0
  7  8  2  0  0  0
  8 21  1  0  0  0
 21 22  1  0  0  0
  8  9  1  0  0  0
  9 10  1  0  0  0
  9 11  2  0  0  0
 11  1  1  0  0  0
 35 24  1  0  0  0
  6  2  1  0  0  0
 35 29  1  0  0  0
 20 14  1  0  0  0
 32 36  1  0  0  0
  4 12  1  0  0  0
 10 13  1  0  0  0
M  END
> <minimizedAffinity>
16.51422

> <CNNscore>
0.6694496870

> <CNNaffinity>
7.7549390793

> <CNN_VS>
5.1915416718

> <CNNaffinity_variance>
1.4826364517

$$$$
[H]OC1=C([H])C([H])(C([H])([H])c2c([H])c(=O)oc3c([H])c(O[H])c([H])c([H])c23)c2nc(C3=NOC(C([H])([H])[H])(C([H])([H])[H])C3([H])[H])n([H])c2C([H])=C1OC([H])([H])[H]


 36 40  0  0  0  0  0  0  0  0999 V2000
   14.9039   23.2503   -3.2827 C   0  0  0  0  0  0  0  0  0  0  0  0
   13.7199   23.4087   -2.4127 C   0  0  0  0  0  0  0  0  0  0  0  0
   12.8458   24.4312   -2.1882 C   0  0  0  0  0  0  0  0  0  0  0  0
   11.9582   24.0224   -1.2920 N   0  0  0  0  0  0  0  0  0  0  0  0
   12.2245   22.7578   -0.9203 C   0  0  0  0  0  0  0  0  0  0  0  0
   13.3163   22.3980   -1.6242 N   0  0  0  0  0  0  0  0  0  0  0  0
   12.8906   25.7474   -2.8308 C   0  0  0  0  0  0  0  0  0  0  0  0
   13.5467   26.1297   -3.9003 C   0  0  0  0  0  0  0  0  0  0  0  0
   14.4128   25.3164   -4.7303 C   0  0  0  0  0  0  0  0  0  0  0  0
   14.7289   25.8326   -6.0049 O   0  0  0  0  0  0  0  0  0  0  0  0
   14.9315   24.1627   -4.4308 C   0  0  0  0  0  0  0  0  0  0  0  0
   11.1699   24.6170   -0.9383 H   0  0  0  0  0  0  0  0  0  0  0  0
   15.7273   26.0241   -6.1398 H   0  0  0  0  0  0  0  0  0  0  0  0
   11.4818   21.9370    0.0507 C   0  0  0  0  0  0  0  0  0  0  0  0
   10.9301   20.8003   -0.2037 N   0  0  0  0  0  0  0  0  0  0  0  0
   10.3197   20.3181    0.9502 O   0  0  0  0  0  0  0  0  0  0  0  0
   10.7677   21.0364    2.0672 C   0  0  0  0  0  0  0  0  0  0  0  0
   11.9255   20.3439    2.7561 C   0  0  0  0  0  0  0  0  0  0  0  0
    9.6756   21.3004    3.0809 C   0  0  0  0  0  0  0  0  0  0  0  0
   11.2708   22.3211    1.4693 C   0  0  0  0  0  0  0  0  0  0  0  0
   13.3751   27.4548   -4.2497 O   0  0  0  0  0  0  0  0  0  0  0  0
   12.0761   28.0100   -4.2545 C   0  0  0  0  0  0  0  0  0  0  0  0
   16.1967   23.4468   -2.5128 C   0  0  0  0  0  0  0  0  0  0  0  0
   16.4964   24.8188   -2.1491 C   0  0  0  0  0  0  0  0  0  0  0  0
   17.1749   25.6467   -3.0139 C   0  0  0  0  0  0  0  0  0  0  0  0
   17.4374   26.9811   -2.6680 C   0  0  0  0  0  0  0  0  0  0  0  0
   18.0673   27.7334   -3.4826 O   0  0  0  0  0  0  0  0  0  0  0  0
   17.0335   27.4452   -1.5100 O   0  0  0  0  0  0  0  0  0  0  0  0
   16.3821   26.6978   -0.6459 C   0  0  0  0  0  0  0  0  0  0  0  0
   15.9807   27.2432    0.5660 C   0  0  0  0  0  0  0  0  0  0  0  0
   15.3002   26.5020    1.5018 C   0  0  0  0  0  0  0  0  0  0  0  0
   14.8915   27.0407    2.7242 O   0  0  0  0  0  0  0  0  0  0  0  0
   15.0208   25.1884    1.2089 C   0  0  0  0  0  0  0  0  0  0  0  0
   15.4189   24.6471    0.0057 C   0  0  0  0  0  0  0  0  0  0  0  0
   16.0968   25.3574   -0.9485 C   0  0  0  0  0  0  0  0  0  0  0  0
   15.5448   26.9665    3.4989 H   0  0  0  0  0  0  0  0  0  0  0  0
  1 23  1  0  0  0
 23 24  1  0  0  0
 24 25  2  0  0  0
 25 26  1  0  0  0
 26 27  2  0  0  0
 26 28  1  0  0  0
 28 29  1  0  0  0
 29 30  2  0  0  0
 30 31  1  0  0  0
 31 32  1  0  0  0
 31 33  2  0  0  0
 33 34  1  0  0  0
 34 35  2  0  0  0
  1  2  1  0  0  0
  2  3  2  0  0  0
  3  4  1  0  0  0
  4  5  1  0  0  0
  5 14  1  0  0  0
 14 15  2  0  0  0
 15 16  1  0  0  0
 16 17  1  0  0  0
 17 18  1  0  0  0
 17 19  1  0  0  0
 17 20  1  0  0  0
  5  6  2  0  0  0
  3  7  1  0  0  0
  7  8  2  0  0  0
  8 21  1  0  0  0
 21 22  1  0  0  0
  8  9  1  0  0  0
  9 10  1  0  0  0
  9 11  2  0  0  0
 11  1  1  0  0  0
 35 24  1  0  0  0
  6  2  1  0  0  0
 35 29  1  0  0  0
 20 14  1  0  0  0
 32 36  1  0  0  0
  4 12  1  0  0  0
 10 13  1  0  0  0
M  END
> <minimizedAffinity>
5.48591

> <CNNscore>
0.6612656713

> <CNNaffinity>
7.6475052834

> <CNN_VS>
5.0570325851

> <CNNaffinity_variance>
0.7488821745

$$$$
[H]OC1=C([H])C([H])(C([H])([H])c2c([H])c(=O)oc3c([H])c(O[H])c([H])c([H])c23)c2nc(C3=NOC(C([H])([H])[H])(C([H])([H])[H])C3([H])[H])n([H])c2C([H])=C1OC([H])([H])[H]


 36 40  0  0  0  0  0  0  0  0999 V2000
   12.6998   25.2223   -2.3213 C   0  0  0  0  0  0  0  0  0  0  0  0
   14.1480   25.3778   -2.0712 C   0  0  0  0  0  0  0  0  0  0  0  0
   15.1870   25.8525   -2.8163 C   0  0  0  0  0  0  0  0  0  0  0  0
   16.2905   25.7590   -2.0872 N   0  0  0  0  0  0  0  0  0  0  0  0
   16.0059   25.2354   -0.8818 C   0  0  0  0  0  0  0  0  0  0  0  0
   14.6775   25.0073   -0.8930 N   0  0  0  0  0  0  0  0  0  0  0  0
   15.0884   26.3717   -4.1831 C   0  0  0  0  0  0  0  0  0  0  0  0
   14.0272   26.7470   -4.8565 C   0  0  0  0  0  0  0  0  0  0  0  0
   12.6530   26.7382   -4.3962 C   0  0  0  0  0  0  0  0  0  0  0  0
   11.7331   27.5004   -5.1471 O   0  0  0  0  0  0  0  0  0  0  0  0
   12.1730   26.1055   -3.3671 C   0  0  0  0  0  0  0  0  0  0  0  0
   17.2385   26.0569   -2.4229 H   0  0  0  0  0  0  0  0  0  0  0  0
   10.9923   26.9432   -5.5859 H   0  0  0  0  0  0  0  0  0  0  0  0
   16.9454   24.9669    0.2198 C   0  0  0  0  0  0  0  0  0  0  0  0
   16.8357   25.4245    1.4197 N   0  0  0  0  0  0  0  0  0  0  0  0
   17.9023   24.9641    2.1856 O   0  0  0  0  0  0  0  0  0  0  0  0
   18.5536   23.9156    1.5219 C   0  0  0  0  0  0  0  0  0  0  0  0
   18.0435   22.5613    1.9694 C   0  0  0  0  0  0  0  0  0  0  0  0
   20.0579   23.9547    1.6816 C   0  0  0  0  0  0  0  0  0  0  0  0
   18.1581   24.1209    0.0857 C   0  0  0  0  0  0  0  0  0  0  0  0
   14.2760   27.1940   -6.1394 O   0  0  0  0  0  0  0  0  0  0  0  0
   15.4410   27.9498   -6.3986 C   0  0  0  0  0  0  0  0  0  0  0  0
   12.3463   23.7978   -2.7066 C   0  0  0  0  0  0  0  0  0  0  0  0
   12.4402   22.8264   -1.6332 C   0  0  0  0  0  0  0  0  0  0  0  0
   13.6087   22.6682   -0.9239 C   0  0  0  0  0  0  0  0  0  0  0  0
   13.6850   21.7467    0.1317 C   0  0  0  0  0  0  0  0  0  0  0  0
   14.7766   21.6141    0.7778 O   0  0  0  0  0  0  0  0  0  0  0  0
   12.6341   21.0284    0.4464 O   0  0  0  0  0  0  0  0  0  0  0  0
   11.4932   21.1388   -0.1985 C   0  0  0  0  0  0  0  0  0  0  0  0
   10.4144   20.3503    0.1780 C   0  0  0  0  0  0  0  0  0  0  0  0
    9.2033   20.4275   -0.4665 C   0  0  0  0  0  0  0  0  0  0  0  0
    8.1112   19.6392   -0.0958 O   0  0  0  0  0  0  0  0  0  0  0  0
    9.0799   21.3153   -1.5086 C   0  0  0  0  0  0  0  0  0  0  0  0
   10.1508   22.0982   -1.8822 C   0  0  0  0  0  0  0  0  0  0  0  0
   11.3698   22.0472   -1.2610 C   0  0  0  0  0  0  0  0  0  0  0  0
    8.0208   18.7370   -0.5543 H   0  0  0  0  0  0  0  0  0  0  0  0
  1 23  1  0  0  0
 23 24  1  0  0  0
 24 25  2  0  0  0
 25 26  1  0  0  0
 26 27  2  0  0  0
 26 28  1  0  0  0
 28 29  1  0  0  0
 29 30  2  0  0  0
 30 31  1  0  0  0
 31 32  1  0  0  0
 31 33  2  0  0  0
 33 34  1  0  0  0
 34 35  2  0  0  0
  1  2  1  0  0  0
  2  3  2  0  0  0
  3  4  1  0  0  0
  4  5  1  0  0  0
  5 14  1  0  0  0
 14 15  2  0  0  0
 15 16  1  0  0  0
 16 17  1  0  0  0
 17 18  1  0  0  0
 17 19  1  0  0  0
 17 20  1  0  0  0
  5  6  2  0  0  0
  3  7  1  0  0  0
  7  8  2  0  0  0
  8 21  1  0  0  0
 21 22  1  0  0  0
  8  9  1  0  0  0
  9 10  1  0  0  0
  9 11  2  0  0  0
 11  1  1  0  0  0
 35 24  1  0  0  0
  6  2  1  0  0  0
 35 29  1  0  0  0
 20 14  1  0  0  0
 32 36  1  0  0  0
  4 12  1  0  0  0
 10 13  1  0  0  0
M  END
> <minimizedAffinity>
13.31295

> <CNNscore>
0.6187245250

> <CNNaffinity>
7.8466262817

> <CNN_VS>
4.8548998833

> <CNNaffinity_variance>
1.3162400723

$$$$
[H]OC1=C([H])C([H])(C([H])([H])c2c([H])c(=O)oc3c([H])c(O[H])c([H])c([H])c23)c2nc(C3=NOC(C([H])([H])[H])(C([H])([H])[H])C3([H])[H])n([H])c2C([H])=C1OC([H])([H])[H]


 36 40  0  0  0  0  0  0  0  0999 V2000
   14.9089   24.3022   -0.6916 C   0  0  0  0  0  0  0  0  0  0  0  0
   14.0702   23.1056   -0.4708 C   0  0  0  0  0  0  0  0  0  0  0  0
   13.6478   22.0895   -1.2764 C   0  0  0  0  0  0  0  0  0  0  0  0
   12.9039   21.2698   -0.5465 N   0  0  0  0  0  0  0  0  0  0  0  0
   12.8251   21.7191    0.7185 C   0  0  0  0  0  0  0  0  0  0  0  0
   13.5523   22.8538    0.7434 N   0  0  0  0  0  0  0  0  0  0  0  0
   13.9665   21.9409   -2.6991 C   0  0  0  0  0  0  0  0  0  0  0  0
   14.8936   22.5360   -3.4110 C   0  0  0  0  0  0  0  0  0  0  0  0
   15.8566   23.5148   -2.9472 C   0  0  0  0  0  0  0  0  0  0  0  0
   16.9647   23.7543   -3.7873 O   0  0  0  0  0  0  0  0  0  0  0  0
   15.8131   24.1975   -1.8418 C   0  0  0  0  0  0  0  0  0  0  0  0
   12.4517   20.4014   -0.9227 H   0  0  0  0  0  0  0  0  0  0  0  0
   17.0146   24.7138   -4.1458 H   0  0  0  0  0  0  0  0  0  0  0  0
   12.0985   21.1034    1.8415 C   0  0  0  0  0  0  0  0  0  0  0  0
   12.3185   19.9243    2.3132 N   0  0  0  0  0  0  0  0  0  0  0  0
   11.4441   19.6817    3.3682 O   0  0  0  0  0  0  0  0  0  0  0  0
   10.8487   20.8802    3.7845 C   0  0  0  0  0  0  0  0  0  0  0  0
   11.5931   21.5065    4.9457 C   0  0  0  0  0  0  0  0  0  0  0  0
    9.3915   20.7206    4.1599 C   0  0  0  0  0  0  0  0  0  0  0  0
   11.0021   21.7739    2.5850 C   0  0  0  0  0  0  0  0  0  0  0  0
   14.9332   22.1715   -4.7425 O   0  0  0  0  0  0  0  0  0  0  0  0
   14.7417   20.8179   -5.0987 C   0  0  0  0  0  0  0  0  0  0  0  0
   14.0672   25.5498   -0.8852 C   0  0  0  0  0  0  0  0  0  0  0  0
   14.1537   26.1551   -2.2008 C   0  0  0  0  0  0  0  0  0  0  0  0
   13.0473   26.2360   -3.0151 C   0  0  0  0  0  0  0  0  0  0  0  0
   13.1306   26.8477   -4.2753 C   0  0  0  0  0  0  0  0  0  0  0  0
   12.0944   26.9136   -5.0160 O   0  0  0  0  0  0  0  0  0  0  0  0
   14.2726   27.3470   -4.6828 O   0  0  0  0  0  0  0  0  0  0  0  0
   15.3605   27.2962   -3.9456 C   0  0  0  0  0  0  0  0  0  0  0  0
   16.5424   27.8401   -4.4302 C   0  0  0  0  0  0  0  0  0  0  0  0
   17.7052   27.8091   -3.6988 C   0  0  0  0  0  0  0  0  0  0  0  0
   18.8997   28.3535   -4.1765 O   0  0  0  0  0  0  0  0  0  0  0  0
   17.6740   27.2189   -2.4578 C   0  0  0  0  0  0  0  0  0  0  0  0
   16.5007   26.6793   -1.9767 C   0  0  0  0  0  0  0  0  0  0  0  0
   15.3252   26.6943   -2.6784 C   0  0  0  0  0  0  0  0  0  0  0  0
   19.5056   27.7341   -4.7073 H   0  0  0  0  0  0  0  0  0  0  0  0
  1 23  1  0  0  0
 23 24  1  0  0  0
 24 25  2  0  0  0
 25 26  1  0  0  0
 26 27  2  0  0  0
 26 28  1  0  0  0
 28 29  1  0  0  0
 29 30  2  0  0  0
 30 31  1  0  0  0
 31 32  1  0  0  0
 31 33  2  0  0  0
 33 34  1  0  0  0
 34 35  2  0  0  0
  1  2  1  0  0  0
  2  3  2  0  0  0
  3  4  1  0  0  0
  4  5  1  0  0  0
  5 14  1  0  0  0
 14 15  2  0  0  0
 15 16  1  0  0  0
 16 17  1  0  0  0
 17 18  1  0  0  0
 17 19  1  0  0  0
 17 20  1  0  0  0
  5  6  2  0  0  0
  3  7  1  0  0  0
  7  8  2  0  0  0
  8 21  1  0  0  0
 21 22  1  0  0  0
  8  9  1  0  0  0
  9 10  1  0  0  0
  9 11  2  0  0  0
 11  1  1  0  0  0
 35 24  1  0  0  0
  6  2  1  0  0  0
 35 29  1  0  0  0
 20 14  1  0  0  0
 32 36  1  0  0  0
  4 12  1  0  0  0
 10 13  1  0  0  0
M  END
> <minimizedAffinity>
-1.29153

> <CNNscore>
0.6170380116

> <CNNaffinity>
7.9057273865

> <CNN_VS>
4.8781342506

> <CNNaffinity_variance>
1.4034315348

$$$$
[H]OC1=C([H])C([H])(C([H])([H])c2c([H])c(=O)oc3c([H])c(O[H])c([H])c([H])c23)c2nc(C3=NOC(C([H])([H])[H])(C([H])([H])[H])C3([H])[H])n([H])c2C([H])=C1OC([H])([H])[H]


 36 40  0  0  0  0  0  0  0  0999 V2000
   13.0791   25.5204   -0.3818 C   0  0  0  0  0  0  0  0  0  0  0  0
   12.3361   24.6406    0.5444 C   0  0  0  0  0  0  0  0  0  0  0  0
   12.5590   23.3886    1.0370 C   0  0  0  0  0  0  0  0  0  0  0  0
   11.5521   23.0797    1.8425 N   0  0  0  0  0  0  0  0  0  0  0  0
   10.6720   24.0951    1.8935 C   0  0  0  0  0  0  0  0  0  0  0  0
   11.1752   25.0487    1.0847 N   0  0  0  0  0  0  0  0  0  0  0  0
   13.7132   22.5420    0.7228 C   0  0  0  0  0  0  0  0  0  0  0  0
   14.8584   22.8668    0.1721 C   0  0  0  0  0  0  0  0  0  0  0  0
   15.2712   24.1830   -0.2724 C   0  0  0  0  0  0  0  0  0  0  0  0
   16.6508   24.3640   -0.5069 O   0  0  0  0  0  0  0  0  0  0  0  0
   14.5108   25.2169   -0.4793 C   0  0  0  0  0  0  0  0  0  0  0  0
   11.4740   22.1684    2.3559 H   0  0  0  0  0  0  0  0  0  0  0  0
   16.8810   24.5865   -1.4811 H   0  0  0  0  0  0  0  0  0  0  0  0
    9.4214   24.1551    2.6686 C   0  0  0  0  0  0  0  0  0  0  0  0
    8.2503   23.8652    2.2154 N   0  0  0  0  0  0  0  0  0  0  0  0
    7.3111   24.0367    3.2278 O   0  0  0  0  0  0  0  0  0  0  0  0
    7.9552   24.1447    4.4679 C   0  0  0  0  0  0  0  0  0  0  0  0
    8.0319   22.8110    5.1819 C   0  0  0  0  0  0  0  0  0  0  0  0
    7.3105   25.1605    5.3858 C   0  0  0  0  0  0  0  0  0  0  0  0
    9.3501   24.5640    4.0942 C   0  0  0  0  0  0  0  0  0  0  0  0
   15.7474   21.8222    0.0106 O   0  0  0  0  0  0  0  0  0  0  0  0
   15.3932   20.5317    0.4629 C   0  0  0  0  0  0  0  0  0  0  0  0
   12.5055   25.4700   -1.7857 C   0  0  0  0  0  0  0  0  0  0  0  0
   13.4788   25.5885   -2.8550 C   0  0  0  0  0  0  0  0  0  0  0  0
   13.8026   26.8176   -3.3822 C   0  0  0  0  0  0  0  0  0  0  0  0
   14.7653   26.9289   -4.3972 C   0  0  0  0  0  0  0  0  0  0  0  0
   15.0525   28.0766   -4.8734 O   0  0  0  0  0  0  0  0  0  0  0  0
   15.3627   25.8525   -4.8490 O   0  0  0  0  0  0  0  0  0  0  0  0
   15.0909   24.6537   -4.3816 C   0  0  0  0  0  0  0  0  0  0  0  0
   15.7539   23.5496   -4.9000 C   0  0  0  0  0  0  0  0  0  0  0  0
   15.5026   22.2772   -4.4463 C   0  0  0  0  0  0  0  0  0  0  0  0
   16.1641   21.1594   -4.9606 O   0  0  0  0  0  0  0  0  0  0  0  0
   14.5661   22.1172   -3.4530 C   0  0  0  0  0  0  0  0  0  0  0  0
   13.9081   23.2132   -2.9381 C   0  0  0  0  0  0  0  0  0  0  0  0
   14.1353   24.4936   -3.3663 C   0  0  0  0  0  0  0  0  0  0  0  0
   15.7325   20.6974   -5.7561 H   0  0  0  0  0  0  0  0  0  0  0  0
  1 23  1  0  0  0
 23 24  1  0  0  0
 24 25  2  0  0  0
 25 26  1  0  0  0
 26 27  2  0  0  0
 26 28  1  0  0  0
 28 29  1  0  0  0
 29 30  2  0  0  0
 30 31  1  0  0  0
 31 32  1  0  0  0
 31 33  2  0  0  0
 33 34  1  0  0  0
 34 35  2  0  0  0
  1  2  1  0  0  0
  2  3  2  0  0  0
  3  4  1  0  0  0
  4  5  1  0  0  0
  5 14  1  0  0  0
 14 15  2  0  0  0
 15 16  1  0  0  0
 16 17  1  0  0  0
 17 18  1  0  0  0
 17 19  1  0  0  0
 17 20  1  0  0  0
  5  6  2  0  0  0
  3  7  1  0  0  0
  7  8  2  0  0  0
  8 21  1  0  0  0
 21 22  1  0  0  0
  8  9  1  0  0  0
  9 10  1  0  0  0
  9 11  2  0  0  0
 11  1  1  0  0  0
 35 24  1  0  0  0
  6  2  1  0  0  0
 35 29  1  0  0  0
 20 14  1  0  0  0
 32 36  1  0  0  0
  4 12  1  0  0  0
 10 13  1  0  0  0
M  END
> <minimizedAffinity>
-3.42745

> <CNNscore>
0.6082283258

> <CNNaffinity>
7.6713409424

> <CNN_VS>
4.6659269333

> <CNNaffinity_variance>
0.6056662798

$$$$
[H]OC1=C([H])C([H])(C([H])([H])c2c([H])c(=O)oc3c([H])c(O[H])c([H])c([H])c23)c2nc(C3=NOC(C([H])([H])[H])(C([H])([H])[H])C3([H])[H])n([H])c2C([H])=C1OC([H])([H])[H]


 36 40  0  0  0  0  0  0  0  0999 V2000
   11.0466   24.6325   -0.9295 C   0  0  0  0  0  0  0  0  0  0  0  0
   12.1677   24.3728   -1.8567 C   0  0  0  0  0  0  0  0  0  0  0  0
   12.7211   23.2375   -2.3712 C   0  0  0  0  0  0  0  0  0  0  0  0
   13.7219   23.5927   -3.1651 N   0  0  0  0  0  0  0  0  0  0  0  0
   13.8424   24.9318   -3.1871 C   0  0  0  0  0  0  0  0  0  0  0  0
   12.8731   25.3939   -2.3724 N   0  0  0  0  0  0  0  0  0  0  0  0
   12.2784   21.8695   -2.0880 C   0  0  0  0  0  0  0  0  0  0  0  0
   11.1571   21.4519   -1.5508 C   0  0  0  0  0  0  0  0  0  0  0  0
   10.0508   22.2687   -1.0935 C   0  0  0  0  0  0  0  0  0  0  0  0
    8.8248   21.6042   -0.8783 O   0  0  0  0  0  0  0  0  0  0  0  0
   10.0622   23.5474   -0.8592 C   0  0  0  0  0  0  0  0  0  0  0  0
   14.3202   22.9101   -3.6907 H   0  0  0  0  0  0  0  0  0  0  0  0
    8.5038   21.6293    0.0954 H   0  0  0  0  0  0  0  0  0  0  0  0
   14.8250   25.7280   -3.9413 C   0  0  0  0  0  0  0  0  0  0  0  0
   14.9711   25.7111   -5.2217 N   0  0  0  0  0  0  0  0  0  0  0  0
   15.9916   26.5873   -5.5787 O   0  0  0  0  0  0  0  0  0  0  0  0
   16.3007   27.4295   -4.5019 C   0  0  0  0  0  0  0  0  0  0  0  0
   15.5557   28.7459   -4.5833 C   0  0  0  0  0  0  0  0  0  0  0  0
   17.7825   27.7074   -4.3713 C   0  0  0  0  0  0  0  0  0  0  0  0
   15.7878   26.6667   -3.3119 C   0  0  0  0  0  0  0  0  0  0  0  0
   11.0461   20.0816   -1.4189 O   0  0  0  0  0  0  0  0  0  0  0  0
   11.0229   19.5069   -0.1286 C   0  0  0  0  0  0  0  0  0  0  0  0
   11.5354   24.8969    0.4824 C   0  0  0  0  0  0  0  0  0  0  0  0
   12.9767   24.8944    0.6476 C   0  0  0  0  0  0  0  0  0  0  0  0
   13.6796   26.0742    0.7356 C   0  0  0  0  0  0  0  0  0  0  0  0
   15.0703   26.0653    0.9233 C   0  0  0  0  0  0  0  0  0  0  0  0
   15.7047   27.1688    1.0029 O   0  0  0  0  0  0  0  0  0  0  0  0
   15.7078   24.9231    1.0156 O   0  0  0  0  0  0  0  0  0  0  0  0
   15.0858   23.7670    0.9376 C   0  0  0  0  0  0  0  0  0  0  0  0
   15.8135   22.5892    1.0402 C   0  0  0  0  0  0  0  0  0  0  0  0
   15.2094   21.3575    0.9623 C   0  0  0  0  0  0  0  0  0  0  0  0
   15.9319   20.1663    1.0645 O   0  0  0  0  0  0  0  0  0  0  0  0
   13.8481   21.3147    0.7773 C   0  0  0  0  0  0  0  0  0  0  0  0
   13.1256   22.4839    0.6757 C   0  0  0  0  0  0  0  0  0  0  0  0
   13.6956   23.7265    0.7502 C   0  0  0  0  0  0  0  0  0  0  0  0
   16.2911   19.7726    0.1994 H   0  0  0  0  0  0  0  0  0  0  0  0
  1 23  1  0  0  0
 23 24  1  0  0  0
 24 25  2  0  0  0
 25 26  1  0  0  0
 26 27  2  0  0  0
 26 28  1  0  0  0
 28 29  1  0  0  0
 29 30  2  0  0  0
 30 31  1  0  0  0
 31 32  1  0  0  0
 31 33  2  0  0  0
 33 34  1  0  0  0
 34 35  2  0  0  0
  1  2  1  0  0  0
  2  3  2  0  0  0
  3  4  1  0  0  0
  4  5  1  0  0  0
  5 14  1  0  0  0
 14 15  2  0  0  0
 15 16  1  0  0  0
 16 17  1  0  0  0
 17 18  1  0  0  0
 17 19  1  0  0  0
 17 20  1  0  0  0
  5  6  2  0  0  0
  3  7  1  0  0  0
  7  8  2  0  0  0
  8 21  1  0  0  0
 21 22  1  0  0  0
  8  9  1  0  0  0
  9 10  1  0  0  0
  9 11  2  0  0  0
 11  1  1  0  0  0
 35 24  1  0  0  0
  6  2  1  0  0  0
 35 29  1  0  0  0
 20 14  1  0  0  0
 32 36  1  0  0  0
  4 12  1  0  0  0
 10 13  1  0  0  0
M  END
> <minimizedAffinity>
1.71406

> <CNNscore>
0.6077966690

> <CNNaffinity>
7.6723990440

> <CNN_VS>
4.6632585526

> <CNNaffinity_variance>
0.9106337428

$$$$
[H]OC(=O)[C@@]([H])(N([H])C(=O)[C@@]([H])(N([H])C(=O)[C@@]([H])(N([H])C(=O)[C@@]([H])(N([H])C(=O)[C@@]1([H])N(C(=O)[C@@]([H])(N([H])C(=O)OC([H])([H])c2c([H])c([H])c([H])c([H])c2[H])[C@@]([H])(C([H])([H])[H])C([H])([H])C([H])([H])[H])C([H])([H])C([H])([H])C1([H])[H])C([H])([H])C([H])(C([H])([H])[H])C([H])([H])[H])C([H])([H])O[H])C([H])([H])C([H])(C([H])([H])[H])C([H])([H])[H])C([H])([H])O[H]


 62 63  0  0  0  0  0  0  0  0999 V2000
    8.2272   21.4691    6.7127 C   0  0  0  0  0  0  0  0  0  0  0  0
    9.2471   22.0434    4.4303 C   0  0  0  0  0  0  0  0  0  0  0  0
    8.9650   20.9618    3.8733 O   0  0  0  0  0  0  0  0  0  0  0  0
    8.9039   22.2852    5.7557 N   0  0  0  0  0  0  0  0  0  0  0  0
    9.1922   23.2492    6.1425 H   0  0  0  0  0  0  0  0  0  0  0  0
   11.2308   22.1678    1.6111 C   0  0  0  0  0  0  0  0  0  0  0  0
   12.1624   21.7946    2.3987 O   0  0  0  0  0  0  0  0  0  0  0  0
   10.1163   22.8274    2.2586 N   0  0  0  0  0  0  0  0  0  0  0  0
    8.9370   23.3793    1.6334 C   0  0  0  0  0  0  0  0  0  0  0  0
    8.8073   24.7044    2.3803 C   0  0  0  0  0  0  0  0  0  0  0  0
    9.3643   24.4326    3.7564 C   0  0  0  0  0  0  0  0  0  0  0  0
    9.9616   23.0824    3.6575 C   0  0  0  0  0  0  0  0  0  0  0  0
   11.3148   21.9343    0.1553 C   0  0  0  0  0  0  0  0  0  0  0  0
   10.0000   21.4943   -0.2801 N   0  0  0  0  0  0  0  0  0  0  0  0
    9.6257   20.1000   -0.2724 C   0  0  0  0  0  0  0  0  0  0  0  0
   10.4284   19.2274    0.1064 O   0  0  0  0  0  0  0  0  0  0  0  0
    9.3216   22.1961   -0.5837 H   0  0  0  0  0  0  0  0  0  0  0  0
    8.3781   19.7255   -0.6796 O   0  0  0  0  0  0  0  0  0  0  0  0
    7.8937   20.0071   -1.9700 C   0  0  0  0  0  0  0  0  0  0  0  0
    6.5275   19.4539   -2.0956 C   0  0  0  0  0  0  0  0  0  0  0  0
    6.1580   18.4020   -1.3016 C   0  0  0  0  0  0  0  0  0  0  0  0
    4.8893   17.8436   -1.3581 C   0  0  0  0  0  0  0  0  0  0  0  0
    3.9497   18.3455   -2.2352 C   0  0  0  0  0  0  0  0  0  0  0  0
    4.3038   19.4005   -3.0398 C   0  0  0  0  0  0  0  0  0  0  0  0
    5.5792   19.9460   -2.9680 C   0  0  0  0  0  0  0  0  0  0  0  0
   11.7609   23.1829   -0.5485 C   0  0  0  0  0  0  0  0  0  0  0  0
   10.6259   23.8909   -1.2609 C   0  0  0  0  0  0  0  0  0  0  0  0
   12.4524   25.5659   -0.0531 C   0  0  0  0  0  0  0  0  0  0  0  0
   12.6239   24.1150    0.2255 C   0  0  0  0  0  0  0  0  0  0  0  0
    7.3897   22.2341    7.6562 C   0  0  0  0  0  0  0  0  0  0  0  0
    6.6737   21.5499    8.4350 O   0  0  0  0  0  0  0  0  0  0  0  0
    7.3034   23.6258    7.7827 N   0  0  0  0  0  0  0  0  0  0  0  0
    7.8613   24.2299    7.1475 H   0  0  0  0  0  0  0  0  0  0  0  0
    6.4623   24.2890    8.7672 C   0  0  0  0  0  0  0  0  0  0  0  0
    5.2449   24.7822    8.0256 C   0  0  0  0  0  0  0  0  0  0  0  0
    4.1767   24.1033    8.0174 O   0  0  0  0  0  0  0  0  0  0  0  0
    5.2859   26.0060    7.3447 N   0  0  0  0  0  0  0  0  0  0  0  0
    6.1645   26.5591    7.3472 H   0  0  0  0  0  0  0  0  0  0  0  0
    4.0886   26.5509    6.6100 C   0  0  0  0  0  0  0  0  0  0  0  0
    4.6124   26.8649    5.2839 C   0  0  0  0  0  0  0  0  0  0  0  0
    4.8965   25.8461    4.5097 O   0  0  0  0  0  0  0  0  0  0  0  0
    4.8708   28.1039    4.6825 N   0  0  0  0  0  0  0  0  0  0  0  0
    4.7221   29.0039    5.1636 H   0  0  0  0  0  0  0  0  0  0  0  0
    5.3920   28.1234    3.3037 C   0  0  0  0  0  0  0  0  0  0  0  0
    6.7389   28.7352    3.2984 C   0  0  0  0  0  0  0  0  0  0  0  0
    6.9168   30.0142    2.8274 O   0  0  0  0  0  0  0  0  0  0  0  0
    7.7138   28.0829    3.7251 O   0  0  0  0  0  0  0  0  0  0  0  0
    7.7881   30.2706    2.4095 H   0  0  0  0  0  0  0  0  0  0  0  0
    4.4572   28.9229    2.4437 C   0  0  0  0  0  0  0  0  0  0  0  0
    4.8761   28.7373    1.1194 O   0  0  0  0  0  0  0  0  0  0  0  0
    4.9027   27.7571    0.9603 H   0  0  0  0  0  0  0  0  0  0  0  0
    3.5510   27.5908    7.4890 C   0  0  0  0  0  0  0  0  0  0  0  0
    2.3929   27.3451    8.3575 C   0  0  0  0  0  0  0  0  0  0  0  0
    1.4099   26.3656    7.6627 C   0  0  0  0  0  0  0  0  0  0  0  0
    1.5567   28.5908    8.6134 C   0  0  0  0  0  0  0  0  0  0  0  0
    7.2250   25.5378    9.1637 C   0  0  0  0  0  0  0  0  0  0  0  0
    8.5959   25.2487    9.0476 O   0  0  0  0  0  0  0  0  0  0  0  0
    8.9068   25.7728    8.2560 H   0  0  0  0  0  0  0  0  0  0  0  0
    8.9831   20.3237    7.2316 C   0  0  0  0  0  0  0  0  0  0  0  0
    8.4633   18.9588    7.0825 C   0  0  0  0  0  0  0  0  0  0  0  0
    9.0545   18.0764    6.0580 C   0  0  0  0  0  0  0  0  0  0  0  0
    8.7066   18.2429    8.4290 C   0  0  0  0  0  0  0  0  0  0  0  0
 28 29  1  0  0  0
 29 26  1  0  0  0
 26 27  1  0  0  0
 26 13  1  0  0  0
 13 14  1  0  0  0
 14 15  1  0  0  0
 15 16  2  0  0  0
 15 18  1  0  0  0
 18 19  1  0  0  0
 19 20  1  0  0  0
 20 21  2  0  0  0
 21 22  1  0  0  0
 22 23  2  0  0  0
 23 24  1  0  0  0
 24 25  2  0  0  0
 13  6  1  0  0  0
  6  7  2  0  0  0
  6  8  1  0  0  0
  8  9  1  0  0  0
  9 10  1  0  0  0
 10 11  1  0  0  0
 11 12  1  0  0  0
 12  2  1  0  0  0
  2  3  2  0  0  0
  2  4  1  0  0  0
  4  1  1  0  0  0
  1 59  1  0  0  0
 59 60  1  0  0  0
 60 61  1  0  0  0
 60 62  1  0  0  0
  1 30  1  0  0  0
 30 31  2  0  0  0
 30 32  1  0  0  0
 32 34  1  0  0  0
 34 56  1  0  0  0
 56 57  1  0  0  0
 34 35  1  0  0  0
 35 36  2  0  0  0
 35 37  1  0  0  0
 37 39  1  0  0  0
 39 52  1  0  0  0
 52 53  1  0  0  0
 53 54  1  0  0  0
 53 55  1  0  0  0
 39 40  1  0  0  0
 40 41  2  0  0  0
 40 42  1  0  0  0
 42 44  1  0  0  0
 44 49  1  0  0  0
 49 50  1  0  0  0
 44 45  1  0  0  0
 45 46  1  0  0  0
 45 47  2  0  0  0
 25 20  1  0  0  0
 12  8  1  0  0  0
 14 17  1  0  0  0
  4  5  1  0  0  0
 32 33  1  0  0  0
 57 58  1  0  0  0
 37 38  1  0  0  0
 42 43  1  0  0  0
 50 51  1  0  0  0
 46 48  1  0  0  0
M  END
> <minimizedAffinity>
-7.69272

> <CNNscore>
0.1534370482

> <CNNaffinity>
6.0879793167

> <CNN_VS>
0.9341215491

> <CNNaffinity_variance>
1.6097328663

$$$$
[H]OC(=O)[C@@]([H])(N([H])C(=O)[C@@]([H])(N([H])C(=O)[C@@]([H])(N([H])C(=O)[C@@]([H])(N([H])C(=O)[C@@]1([H])N(C(=O)[C@@]([H])(N([H])C(=O)OC([H])([H])c2c([H])c([H])c([H])c([H])c2[H])[C@@]([H])(C([H])([H])[H])C([H])([H])C([H])([H])[H])C([H])([H])C([H])([H])C1([H])[H])C([H])([H])C([H])(C([H])([H])[H])C([H])([H])[H])C([H])([H])O[H])C([H])([H])C([H])(C([H])([H])[H])C([H])([H])[H])C([H])([H])O[H]


 62 63  0  0  0  0  0  0  0  0999 V2000
    8.0795   23.5211    4.0532 C   0  0  0  0  0  0  0  0  0  0  0  0
    9.0851   22.1890    2.1054 C   0  0  0  0  0  0  0  0  0  0  0  0
    9.5990   21.2880    2.8009 O   0  0  0  0  0  0  0  0  0  0  0  0
    8.3739   23.2333    2.6856 N   0  0  0  0  0  0  0  0  0  0  0  0
    7.9700   23.9593    1.9987 H   0  0  0  0  0  0  0  0  0  0  0  0
   11.6185   22.7060   -0.1776 C   0  0  0  0  0  0  0  0  0  0  0  0
   11.3377   23.9411   -0.0262 O   0  0  0  0  0  0  0  0  0  0  0  0
   10.5447   21.7939    0.1562 N   0  0  0  0  0  0  0  0  0  0  0  0
   10.5539   20.3526    0.0625 C   0  0  0  0  0  0  0  0  0  0  0  0
    9.1821   20.0945   -0.5555 C   0  0  0  0  0  0  0  0  0  0  0  0
    8.3070   21.2124   -0.0433 C   0  0  0  0  0  0  0  0  0  0  0  0
    9.2416   22.1371    0.6357 C   0  0  0  0  0  0  0  0  0  0  0  0
   12.9445   22.2726   -0.6623 C   0  0  0  0  0  0  0  0  0  0  0  0
   13.3703   23.2428   -1.6568 N   0  0  0  0  0  0  0  0  0  0  0  0
   14.3085   22.8990   -2.6989 C   0  0  0  0  0  0  0  0  0  0  0  0
   14.7870   21.7523   -2.7719 O   0  0  0  0  0  0  0  0  0  0  0  0
   12.9802   24.1870   -1.6220 H   0  0  0  0  0  0  0  0  0  0  0  0
   14.6778   23.8346   -3.6213 O   0  0  0  0  0  0  0  0  0  0  0  0
   15.0565   25.1395   -3.2568 C   0  0  0  0  0  0  0  0  0  0  0  0
   15.3798   25.9004   -4.4834 C   0  0  0  0  0  0  0  0  0  0  0  0
   15.2482   25.2899   -5.7014 C   0  0  0  0  0  0  0  0  0  0  0  0
   15.5215   25.9486   -6.8914 C   0  0  0  0  0  0  0  0  0  0  0  0
   15.9418   27.2628   -6.8754 C   0  0  0  0  0  0  0  0  0  0  0  0
   16.0798   27.8906   -5.6618 C   0  0  0  0  0  0  0  0  0  0  0  0
   15.8010   27.2139   -4.4813 C   0  0  0  0  0  0  0  0  0  0  0  0
   13.9097   22.1674    0.4825 C   0  0  0  0  0  0  0  0  0  0  0  0
   14.3458   20.7411    0.7517 C   0  0  0  0  0  0  0  0  0  0  0  0
   14.7070   24.5580    0.7105 C   0  0  0  0  0  0  0  0  0  0  0  0
   15.0464   23.1269    0.4892 C   0  0  0  0  0  0  0  0  0  0  0  0
    7.2416   22.4973    4.7064 C   0  0  0  0  0  0  0  0  0  0  0  0
    6.0952   22.3279    4.2119 O   0  0  0  0  0  0  0  0  0  0  0  0
    7.5763   21.6975    5.8057 N   0  0  0  0  0  0  0  0  0  0  0  0
    8.5040   21.8171    6.2581 H   0  0  0  0  0  0  0  0  0  0  0  0
    6.6856   20.6920    6.3643 C   0  0  0  0  0  0  0  0  0  0  0  0
    7.0098   19.3971    5.6620 C   0  0  0  0  0  0  0  0  0  0  0  0
    8.1027   19.2582    5.0388 O   0  0  0  0  0  0  0  0  0  0  0  0
    6.1023   18.3304    5.7026 N   0  0  0  0  0  0  0  0  0  0  0  0
    5.2036   18.4475    6.2090 H   0  0  0  0  0  0  0  0  0  0  0  0
    6.3921   17.0104    5.0365 C   0  0  0  0  0  0  0  0  0  0  0  0
    5.5068   17.0091    3.8756 C   0  0  0  0  0  0  0  0  0  0  0  0
    5.8298   17.8124    2.8915 O   0  0  0  0  0  0  0  0  0  0  0  0
    4.3385   16.2759    3.6286 N   0  0  0  0  0  0  0  0  0  0  0  0
    3.9355   15.6148    4.3098 H   0  0  0  0  0  0  0  0  0  0  0  0
    3.6448   16.4671    2.3420 C   0  0  0  0  0  0  0  0  0  0  0  0
    2.1973   16.2226    2.5255 C   0  0  0  0  0  0  0  0  0  0  0  0
    1.3837   16.0301    1.4346 O   0  0  0  0  0  0  0  0  0  0  0  0
    1.7188   16.1915    3.6779 O   0  0  0  0  0  0  0  0  0  0  0  0
    0.4228   16.3023    1.4801 H   0  0  0  0  0  0  0  0  0  0  0  0
    4.2093   15.5034    1.3393 C   0  0  0  0  0  0  0  0  0  0  0  0
    3.7322   14.2343    1.6933 O   0  0  0  0  0  0  0  0  0  0  0  0
    2.7423   14.3016    1.7412 H   0  0  0  0  0  0  0  0  0  0  0  0
    6.2611   16.0160    6.1029 C   0  0  0  0  0  0  0  0  0  0  0  0
    6.7641   16.2672    7.4592 C   0  0  0  0  0  0  0  0  0  0  0  0
    8.3135   16.1796    7.4727 C   0  0  0  0  0  0  0  0  0  0  0  0
    6.3242   15.2169    8.4691 C   0  0  0  0  0  0  0  0  0  0  0  0
    5.3010   21.0761    5.8810 C   0  0  0  0  0  0  0  0  0  0  0  0
    4.3712   20.4884    6.7564 O   0  0  0  0  0  0  0  0  0  0  0  0
    3.9841   21.2494    7.2750 H   0  0  0  0  0  0  0  0  0  0  0  0
    7.8258   24.9299    4.3747 C   0  0  0  0  0  0  0  0  0  0  0  0
    7.9987   25.9700    3.3531 C   0  0  0  0  0  0  0  0  0  0  0  0
    6.8509   26.8307    3.0074 C   0  0  0  0  0  0  0  0  0  0  0  0
    9.0868   26.9310    3.8796 C   0  0  0  0  0  0  0  0  0  0  0  0
 28 29  1  0  0  0
 29 26  1  0  0  0
 26 27  1  0  0  0
 26 13  1  0  0  0
 13 14  1  0  0  0
 14 15  1  0  0  0
 15 16  2  0  0  0
 15 18  1  0  0  0
 18 19  1  0  0  0
 19 20  1  0  0  0
 20 21  2  0  0  0
 21 22  1  0  0  0
 22 23  2  0  0  0
 23 24  1  0  0  0
 24 25  2  0  0  0
 13  6  1  0  0  0
  6  7  2  0  0  0
  6  8  1  0  0  0
  8  9  1  0  0  0
  9 10  1  0  0  0
 10 11  1  0  0  0
 11 12  1  0  0  0
 12  2  1  0  0  0
  2  3  2  0  0  0
  2  4  1  0  0  0
  4  1  1  0  0  0
  1 59  1  0  0  0
 59 60  1  0  0  0
 60 61  1  0  0  0
 60 62  1  0  0  0
  1 30  1  0  0  0
 30 31  2  0  0  0
 30 32  1  0  0  0
 32 34  1  0  0  0
 34 56  1  0  0  0
 56 57  1  0  0  0
 34 35  1  0  0  0
 35 36  2  0  0  0
 35 37  1  0  0  0
 37 39  1  0  0  0
 39 52  1  0  0  0
 52 53  1  0  0  0
 53 54  1  0  0  0
 53 55  1  0  0  0
 39 40  1  0  0  0
 40 41  2  0  0  0
 40 42  1  0  0  0
 42 44  1  0  0  0
 44 49  1  0  0  0
 49 50  1  0  0  0
 44 45  1  0  0  0
 45 46  1  0  0  0
 45 47  2  0  0  0
 25 20  1  0  0  0
 12  8  1  0  0  0
 14 17  1  0  0  0
  4  5  1  0  0  0
 32 33  1  0  0  0
 57 58  1  0  0  0
 37 38  1  0  0  0
 42 43  1  0  0  0
 50 51  1  0  0  0
 46 48  1  0  0  0
M  END
> <minimizedAffinity>
-8.34094

> <CNNscore>
0.1367614120

> <CNNaffinity>
6.7844114304

> <CNN_VS>
0.9278457165

> <CNNaffinity_variance>
0.3355760574

$$$$
[H]OC(=O)[C@@]([H])(N([H])C(=O)[C@@]([H])(N([H])C(=O)[C@@]([H])(N([H])C(=O)[C@@]([H])(N([H])C(=O)[C@@]1([H])N(C(=O)[C@@]([H])(N([H])C(=O)OC([H])([H])c2c([H])c([H])c([H])c([H])c2[H])[C@@]([H])(C([H])([H])[H])C([H])([H])C([H])([H])[H])C([H])([H])C([H])([H])C1([H])[H])C([H])([H])C([H])(C([H])([H])[H])C([H])([H])[H])C([H])([H])O[H])C([H])([H])C([H])(C([H])([H])[H])C([H])([H])[H])C([H])([H])O[H]


 62 63  0  0  0  0  0  0  0  0999 V2000
    4.9288   18.7989   -1.2907 C   0  0  0  0  0  0  0  0  0  0  0  0
    4.9689   17.4385    0.8835 C   0  0  0  0  0  0  0  0  0  0  0  0
    6.1809   17.1406    0.8415 O   0  0  0  0  0  0  0  0  0  0  0  0
    4.3799   18.2133   -0.1093 N   0  0  0  0  0  0  0  0  0  0  0  0
    3.3287   18.4145    0.0197 H   0  0  0  0  0  0  0  0  0  0  0  0
    5.3130   17.1606    4.3044 C   0  0  0  0  0  0  0  0  0  0  0  0
    5.9671   16.1004    4.0301 O   0  0  0  0  0  0  0  0  0  0  0  0
    4.3861   17.5852    3.2763 N   0  0  0  0  0  0  0  0  0  0  0  0
    3.4959   18.7221    3.3097 C   0  0  0  0  0  0  0  0  0  0  0  0
    2.2184   18.1054    2.7455 C   0  0  0  0  0  0  0  0  0  0  0  0
    2.6902   17.0364    1.7903 C   0  0  0  0  0  0  0  0  0  0  0  0
    4.1503   16.9525    2.0154 C   0  0  0  0  0  0  0  0  0  0  0  0
    5.5058   17.8742    5.5829 C   0  0  0  0  0  0  0  0  0  0  0  0
    5.5005   19.2955    5.2803 N   0  0  0  0  0  0  0  0  0  0  0  0
    6.7073   19.9971    4.9121 C   0  0  0  0  0  0  0  0  0  0  0  0
    7.7970   19.3992    4.8480 O   0  0  0  0  0  0  0  0  0  0  0  0
    4.6138   19.8030    5.3153 H   0  0  0  0  0  0  0  0  0  0  0  0
    6.6616   21.3306    4.6253 O   0  0  0  0  0  0  0  0  0  0  0  0
    7.0863   22.3103    5.5413 C   0  0  0  0  0  0  0  0  0  0  0  0
    7.3516   23.5657    4.8050 C   0  0  0  0  0  0  0  0  0  0  0  0
    8.5955   23.7779    4.2747 C   0  0  0  0  0  0  0  0  0  0  0  0
    8.9086   24.9261    3.5618 C   0  0  0  0  0  0  0  0  0  0  0  0
    7.9535   25.9027    3.3666 C   0  0  0  0  0  0  0  0  0  0  0  0
    6.7002   25.7062    3.8924 C   0  0  0  0  0  0  0  0  0  0  0  0
    6.4062   24.5495    4.6030 C   0  0  0  0  0  0  0  0  0  0  0  0
    4.4309   17.4946    6.5596 C   0  0  0  0  0  0  0  0  0  0  0  0
    4.9596   16.6859    7.7272 C   0  0  0  0  0  0  0  0  0  0  0  0
    2.0546   18.3497    6.7153 C   0  0  0  0  0  0  0  0  0  0  0  0
    3.5002   18.5748    6.9832 C   0  0  0  0  0  0  0  0  0  0  0  0
    5.7489   19.9976   -1.0311 C   0  0  0  0  0  0  0  0  0  0  0  0
    5.3067   21.0789   -1.5028 O   0  0  0  0  0  0  0  0  0  0  0  0
    6.9546   20.0674   -0.3227 N   0  0  0  0  0  0  0  0  0  0  0  0
    7.3667   19.1968    0.0670 H   0  0  0  0  0  0  0  0  0  0  0  0
    7.6793   21.3085   -0.0972 C   0  0  0  0  0  0  0  0  0  0  0  0
    9.1438   20.9486   -0.0693 C   0  0  0  0  0  0  0  0  0  0  0  0
    9.5174   19.7541   -0.2579 O   0  0  0  0  0  0  0  0  0  0  0  0
   10.1062   21.9412    0.1578 N   0  0  0  0  0  0  0  0  0  0  0  0
    9.7982   22.9196    0.3183 H   0  0  0  0  0  0  0  0  0  0  0  0
   11.5813   21.6343    0.1713 C   0  0  0  0  0  0  0  0  0  0  0  0
   11.8538   21.3167    1.5699 C   0  0  0  0  0  0  0  0  0  0  0  0
   13.0613   21.5805    2.0062 O   0  0  0  0  0  0  0  0  0  0  0  0
   11.0215   20.7619    2.5513 N   0  0  0  0  0  0  0  0  0  0  0  0
   10.0476   20.4772    2.3667 H   0  0  0  0  0  0  0  0  0  0  0  0
   11.5655   20.5626    3.9069 C   0  0  0  0  0  0  0  0  0  0  0  0
   11.6263   19.1142    4.2016 C   0  0  0  0  0  0  0  0  0  0  0  0
   10.6361   18.5163    4.9441 O   0  0  0  0  0  0  0  0  0  0  0  0
   12.5826   18.4372    3.7713 O   0  0  0  0  0  0  0  0  0  0  0  0
   10.8535   17.7203    5.5085 H   0  0  0  0  0  0  0  0  0  0  0  0
   10.6714   21.2544    4.8941 C   0  0  0  0  0  0  0  0  0  0  0  0
   11.1606   20.9347    6.1677 O   0  0  0  0  0  0  0  0  0  0  0  0
   12.1210   21.1882    6.1795 H   0  0  0  0  0  0  0  0  0  0  0  0
   12.2081   22.7788   -0.4923 C   0  0  0  0  0  0  0  0  0  0  0  0
   11.6732   24.1392   -0.3549 C   0  0  0  0  0  0  0  0  0  0  0  0
   11.6092   24.8247   -1.7459 C   0  0  0  0  0  0  0  0  0  0  0  0
   12.5644   25.0566    0.4702 C   0  0  0  0  0  0  0  0  0  0  0  0
    7.3378   21.7149    1.3228 C   0  0  0  0  0  0  0  0  0  0  0  0
    8.1827   20.9916    2.1827 O   0  0  0  0  0  0  0  0  0  0  0  0
    8.8210   21.6667    2.5498 H   0  0  0  0  0  0  0  0  0  0  0  0
    4.0602   18.7985   -2.4731 C   0  0  0  0  0  0  0  0  0  0  0  0
    2.7301   18.1794   -2.4201 C   0  0  0  0  0  0  0  0  0  0  0  0
    1.5554   19.0306   -2.1490 C   0  0  0  0  0  0  0  0  0  0  0  0
    2.4743   17.5602   -3.8115 C   0  0  0  0  0  0  0  0  0  0  0  0
 28 29  1  0  0  0
 29 26  1  0  0  0
 26 27  1  0  0  0
 26 13  1  0  0  0
 13 14  1  0  0  0
 14 15  1  0  0  0
 15 16  2  0  0  0
 15 18  1  0  0  0
 18 19  1  0  0  0
 19 20  1  0  0  0
 20 21  2  0  0  0
 21 22  1  0  0  0
 22 23  2  0  0  0
 23 24  1  0  0  0
 24 25  2  0  0  0
 13  6  1  0  0  0
  6  7  2  0  0  0
  6  8  1  0  0  0
  8  9  1  0  0  0
  9 10  1  0  0  0
 10 11  1  0  0  0
 11 12  1  0  0  0
 12  2  1  0  0  0
  2  3  2  0  0  0
  2  4  1  0  0  0
  4  1  1  0  0  0
  1 59  1  0  0  0
 59 60  1  0  0  0
 60 61  1  0  0  0
 60 62  1  0  0  0
  1 30  1  0  0  0
 30 31  2  0  0  0
 30 32  1  0  0  0
 32 34  1  0  0  0
 34 56  1  0  0  0
 56 57  1  0  0  0
 34 35  1  0  0  0
 35 36  2  0  0  0
 35 37  1  0  0  0
 37 39  1  0  0  0
 39 52  1  0  0  0
 52 53  1  0  0  0
 53 54  1  0  0  0
 53 55  1  0  0  0
 39 40  1  0  0  0
 40 41  2  0  0  0
 40 42  1  0  0  0
 42 44  1  0  0  0
 44 49  1  0  0  0
 49 50  1  0  0  0
 44 45  1  0  0  0
 45 46  1  0  0  0
 45 47  2  0  0  0
 25 20  1  0  0  0
 12  8  1  0  0  0
 14 17  1  0  0  0
  4  5  1  0  0  0
 32 33  1  0  0  0
 57 58  1  0  0  0
 37 38  1  0  0  0
 42 43  1  0  0  0
 50 51  1  0  0  0
 46 48  1  0  0  0
M  END
> <minimizedAffinity>
-7.31937

> <CNNscore>
0.1233745888

> <CNNaffinity>
6.1750898361

> <CNN_VS>
0.7618491650

> <CNNaffinity_variance>
2.0432636738

$$$$
[H]OC(=O)[C@@]([H])(N([H])C(=O)[C@@]([H])(N([H])C(=O)[C@@]([H])(N([H])C(=O)[C@@]([H])(N([H])C(=O)[C@@]1([H])N(C(=O)[C@@]([H])(N([H])C(=O)OC([H])([H])c2c([H])c([H])c([H])c([H])c2[H])[C@@]([H])(C([H])([H])[H])C([H])([H])C([H])([H])[H])C([H])([H])C([H])([H])C1([H])[H])C([H])([H])C([H])(C([H])([H])[H])C([H])([H])[H])C([H])([H])O[H])C([H])([H])C([H])(C([H])([H])[H])C([H])([H])[H])C([H])([H])O[H]


 62 63  0  0  0  0  0  0  0  0999 V2000
    7.4514   21.2355    5.1766 C   0  0  0  0  0  0  0  0  0  0  0  0
    9.4038   21.9148    3.6579 C   0  0  0  0  0  0  0  0  0  0  0  0
    9.7834   20.7559    3.3888 O   0  0  0  0  0  0  0  0  0  0  0  0
    8.3150   22.1438    4.4915 N   0  0  0  0  0  0  0  0  0  0  0  0
    8.0680   23.1795    4.6606 H   0  0  0  0  0  0  0  0  0  0  0  0
   11.5969   22.4404    1.0479 C   0  0  0  0  0  0  0  0  0  0  0  0
   12.4781   22.0049    1.8611 O   0  0  0  0  0  0  0  0  0  0  0  0
   10.4085   22.9817    1.6733 N   0  0  0  0  0  0  0  0  0  0  0  0
    9.2604   23.5671    1.0211 C   0  0  0  0  0  0  0  0  0  0  0  0
    9.0174   24.7879    1.9050 C   0  0  0  0  0  0  0  0  0  0  0  0
    9.4749   24.3703    3.2812 C   0  0  0  0  0  0  0  0  0  0  0  0
   10.1335   23.0614    3.0747 C   0  0  0  0  0  0  0  0  0  0  0  0
   11.8051   22.3866   -0.4131 C   0  0  0  0  0  0  0  0  0  0  0  0
   13.0866   23.0168   -0.6823 N   0  0  0  0  0  0  0  0  0  0  0  0
   13.2014   24.4393   -0.9004 C   0  0  0  0  0  0  0  0  0  0  0  0
   12.1954   25.1716   -0.8686 O   0  0  0  0  0  0  0  0  0  0  0  0
   13.9270   22.4352   -0.7008 H   0  0  0  0  0  0  0  0  0  0  0  0
   14.4236   24.9970   -1.1409 O   0  0  0  0  0  0  0  0  0  0  0  0
   15.3182   24.4650   -2.0873 C   0  0  0  0  0  0  0  0  0  0  0  0
   15.5151   25.4583   -3.1657 C   0  0  0  0  0  0  0  0  0  0  0  0
   14.8700   25.2831   -4.3601 C   0  0  0  0  0  0  0  0  0  0  0  0
   14.9993   26.1825   -5.4085 C   0  0  0  0  0  0  0  0  0  0  0  0
   15.7987   27.2985   -5.2696 C   0  0  0  0  0  0  0  0  0  0  0  0
   16.4538   27.4896   -4.0779 C   0  0  0  0  0  0  0  0  0  0  0  0
   16.3112   26.5777   -3.0399 C   0  0  0  0  0  0  0  0  0  0  0  0
   11.7553   20.9659   -0.8953 C   0  0  0  0  0  0  0  0  0  0  0  0
   13.1328   20.3604   -1.0766 C   0  0  0  0  0  0  0  0  0  0  0  0
    9.3885   20.1178   -0.6102 C   0  0  0  0  0  0  0  0  0  0  0  0
   10.8144   20.0535   -0.1920 C   0  0  0  0  0  0  0  0  0  0  0  0
    6.0523   21.6966    5.2582 C   0  0  0  0  0  0  0  0  0  0  0  0
    5.3226   21.4162    4.2702 O   0  0  0  0  0  0  0  0  0  0  0  0
    5.4488   22.4047    6.3045 N   0  0  0  0  0  0  0  0  0  0  0  0
    6.0179   22.6747    7.1308 H   0  0  0  0  0  0  0  0  0  0  0  0
    4.0471   22.7942    6.3029 C   0  0  0  0  0  0  0  0  0  0  0  0
    4.0223   24.3002    6.3821 C   0  0  0  0  0  0  0  0  0  0  0  0
    2.9431   24.9149    6.6261 O   0  0  0  0  0  0  0  0  0  0  0  0
    5.2020   25.0324    6.1941 N   0  0  0  0  0  0  0  0  0  0  0  0
    6.0854   24.5274    5.9881 H   0  0  0  0  0  0  0  0  0  0  0  0
    5.2315   26.5359    6.2870 C   0  0  0  0  0  0  0  0  0  0  0  0
    5.2769   26.9659    4.8925 C   0  0  0  0  0  0  0  0  0  0  0  0
    5.5009   26.0336    3.9988 O   0  0  0  0  0  0  0  0  0  0  0  0
    5.1185   28.2406    4.3324 N   0  0  0  0  0  0  0  0  0  0  0  0
    4.9571   29.0871    4.8989 H   0  0  0  0  0  0  0  0  0  0  0  0
    5.1994   28.3820    2.8673 C   0  0  0  0  0  0  0  0  0  0  0  0
    6.2570   29.3592    2.5278 C   0  0  0  0  0  0  0  0  0  0  0  0
    6.6621   29.5162    1.2238 O   0  0  0  0  0  0  0  0  0  0  0  0
    6.7795   30.0413    3.4331 O   0  0  0  0  0  0  0  0  0  0  0  0
    7.6021   29.7945    1.0281 H   0  0  0  0  0  0  0  0  0  0  0  0
    3.8719   28.8566    2.3523 C   0  0  0  0  0  0  0  0  0  0  0  0
    4.0671   30.1658    1.8925 O   0  0  0  0  0  0  0  0  0  0  0  0
    4.8148   30.1334    1.2394 H   0  0  0  0  0  0  0  0  0  0  0  0
    6.3219   26.8324    7.2176 C   0  0  0  0  0  0  0  0  0  0  0  0
    7.5361   26.0089    7.2722 C   0  0  0  0  0  0  0  0  0  0  0  0
    8.2947   26.2734    8.6001 C   0  0  0  0  0  0  0  0  0  0  0  0
    8.5490   26.3563    6.1906 C   0  0  0  0  0  0  0  0  0  0  0  0
    3.5001   22.3124    7.6322 C   0  0  0  0  0  0  0  0  0  0  0  0
    4.0011   23.1680    8.6289 O   0  0  0  0  0  0  0  0  0  0  0  0
    3.2141   23.7026    8.9334 H   0  0  0  0  0  0  0  0  0  0  0  0
    8.0253   20.5583    6.3448 C   0  0  0  0  0  0  0  0  0  0  0  0
    9.0260   21.2335    7.1802 C   0  0  0  0  0  0  0  0  0  0  0  0
    8.6284   22.4315    7.9448 C   0  0  0  0  0  0  0  0  0  0  0  0
    9.4849   20.2065    8.2383 C   0  0  0  0  0  0  0  0  0  0  0  0
 28 29  1  0  0  0
 29 26  1  0  0  0
 26 27  1  0  0  0
 26 13  1  0  0  0
 13 14  1  0  0  0
 14 15  1  0  0  0
 15 16  2  0  0  0
 15 18  1  0  0  0
 18 19  1  0  0  0
 19 20  1  0  0  0
 20 21  2  0  0  0
 21 22  1  0  0  0
 22 23  2  0  0  0
 23 24  1  0  0  0
 24 25  2  0  0  0
 13  6  1  0  0  0
  6  7  2  0  0  0
  6  8  1  0  0  0
  8  9  1  0  0  0
  9 10  1  0  0  0
 10 11  1  0  0  0
 11 12  1  0  0  0
 12  2  1  0  0  0
  2  3  2  0  0  0
  2  4  1  0  0  0
  4  1  1  0  0  0
  1 59  1  0  0  0
 59 60  1  0  0  0
 60 61  1  0  0  0
 60 62  1  0  0  0
  1 30  1  0  0  0
 30 31  2  0  0  0
 30 32  1  0  0  0
 32 34  1  0  0  0
 34 56  1  0  0  0
 56 57  1  0  0  0
 34 35  1  0  0  0
 35 36  2  0  0  0
 35 37  1  0  0  0
 37 39  1  0  0  0
 39 52  1  0  0  0
 52 53  1  0  0  0
 53 54  1  0  0  0
 53 55  1  0  0  0
 39 40  1  0  0  0
 40 41  2  0  0  0
 40 42  1  0  0  0
 42 44  1  0  0  0
 44 49  1  0  0  0
 49 50  1  0  0  0
 44 45  1  0  0  0
 45 46  1  0  0  0
 45 47  2  0  0  0
 25 20  1  0  0  0
 12  8  1  0  0  0
 14 17  1  0  0  0
  4  5  1  0  0  0
 32 33  1  0  0  0
 57 58  1  0  0  0
 37 38  1  0  0  0
 42 43  1  0  0  0
 50 51  1  0  0  0
 46 48  1  0  0  0
M  END
> <minimizedAffinity>
-8.35503

> <CNNscore>
0.0942737460

> <CNNaffinity>
6.7105941772

> <CNN_VS>
0.6326328516

> <CNNaffinity_variance>
0.6146591306

$$$$
[H]OC(=O)[C@@]([H])(N([H])C(=O)[C@@]([H])(N([H])C(=O)[C@@]([H])(N([H])C(=O)[C@@]([H])(N([H])C(=O)[C@@]1([H])N(C(=O)[C@@]([H])(N([H])C(=O)OC([H])([H])c2c([H])c([H])c([H])c([H])c2[H])[C@@]([H])(C([H])([H])[H])C([H])([H])C([H])([H])[H])C([H])([H])C([H])([H])C1([H])[H])C([H])([H])C([H])(C([H])([H])[H])C([H])([H])[H])C([H])([H])O[H])C([H])([H])C([H])(C([H])([H])[H])C([H])([H])[H])C([H])([H])O[H]


 62 63  0  0  0  0  0  0  0  0999 V2000
    7.6541   20.2164   -0.8718 C   0  0  0  0  0  0  0  0  0  0  0  0
   10.1887   20.4473   -0.5525 C   0  0  0  0  0  0  0  0  0  0  0  0
   10.2827   19.6560    0.4091 O   0  0  0  0  0  0  0  0  0  0  0  0
    8.9637   20.7115   -1.1544 N   0  0  0  0  0  0  0  0  0  0  0  0
    8.9897   21.4086   -1.9764 H   0  0  0  0  0  0  0  0  0  0  0  0
   11.3292   23.6836   -0.9047 C   0  0  0  0  0  0  0  0  0  0  0  0
   10.6199   23.6888   -1.9650 O   0  0  0  0  0  0  0  0  0  0  0  0
   11.7322   22.3692   -0.4503 N   0  0  0  0  0  0  0  0  0  0  0  0
   12.5530   22.0475    0.6938 C   0  0  0  0  0  0  0  0  0  0  0  0
   13.4698   20.9806    0.1008 C   0  0  0  0  0  0  0  0  0  0  0  0
   12.6366   20.2919   -0.9524 C   0  0  0  0  0  0  0  0  0  0  0  0
   11.4101   21.1134   -1.0544 C   0  0  0  0  0  0  0  0  0  0  0  0
   11.6977   24.9389   -0.2198 C   0  0  0  0  0  0  0  0  0  0  0  0
   11.4715   24.7293    1.2003 N   0  0  0  0  0  0  0  0  0  0  0  0
   10.1720   24.3695    1.7164 C   0  0  0  0  0  0  0  0  0  0  0  0
    9.1991   24.2325    0.9522 O   0  0  0  0  0  0  0  0  0  0  0  0
   12.2599   24.8251    1.8439 H   0  0  0  0  0  0  0  0  0  0  0  0
    9.9999   24.1713    3.0557 O   0  0  0  0  0  0  0  0  0  0  0  0
    8.7677   23.7695    3.6027 C   0  0  0  0  0  0  0  0  0  0  0  0
    7.9704   24.9760    3.9143 C   0  0  0  0  0  0  0  0  0  0  0  0
    8.5619   26.2073    3.8278 C   0  0  0  0  0  0  0  0  0  0  0  0
    7.8695   27.3799    4.0931 C   0  0  0  0  0  0  0  0  0  0  0  0
    6.5398   27.3319    4.4587 C   0  0  0  0  0  0  0  0  0  0  0  0
    5.9307   26.1046    4.5509 C   0  0  0  0  0  0  0  0  0  0  0  0
    6.6411   24.9419    4.2810 C   0  0  0  0  0  0  0  0  0  0  0  0
   13.1227   25.3001   -0.5235 C   0  0  0  0  0  0  0  0  0  0  0  0
   14.0880   24.8216    0.5425 C   0  0  0  0  0  0  0  0  0  0  0  0
   14.6717   23.9929   -2.0382 C   0  0  0  0  0  0  0  0  0  0  0  0
   13.6044   25.0199   -1.9026 C   0  0  0  0  0  0  0  0  0  0  0  0
    7.0430   20.8124    0.3316 C   0  0  0  0  0  0  0  0  0  0  0  0
    6.7780   22.0422    0.2618 O   0  0  0  0  0  0  0  0  0  0  0  0
    6.7255   20.1683    1.5334 N   0  0  0  0  0  0  0  0  0  0  0  0
    6.9448   19.1585    1.6427 H   0  0  0  0  0  0  0  0  0  0  0  0
    6.0973   20.8410    2.6601 C   0  0  0  0  0  0  0  0  0  0  0  0
    6.6367   20.1826    3.9053 C   0  0  0  0  0  0  0  0  0  0  0  0
    5.9312   19.3561    4.5543 O   0  0  0  0  0  0  0  0  0  0  0  0
    7.9328   20.4761    4.3491 N   0  0  0  0  0  0  0  0  0  0  0  0
    8.5084   21.1586    3.8193 H   0  0  0  0  0  0  0  0  0  0  0  0
    8.5234   19.8261    5.5734 C   0  0  0  0  0  0  0  0  0  0  0  0
    8.2744   20.7987    6.6333 C   0  0  0  0  0  0  0  0  0  0  0  0
    8.6918   20.4772    7.8335 O   0  0  0  0  0  0  0  0  0  0  0  0
    7.6472   22.0508    6.5842 N   0  0  0  0  0  0  0  0  0  0  0  0
    7.2433   22.4434    5.7203 H   0  0  0  0  0  0  0  0  0  0  0  0
    7.5473   22.8386    7.8262 C   0  0  0  0  0  0  0  0  0  0  0  0
    6.1295   23.1787    8.0771 C   0  0  0  0  0  0  0  0  0  0  0  0
    5.6779   23.3604    9.3625 O   0  0  0  0  0  0  0  0  0  0  0  0
    5.3451   23.3003    7.1138 O   0  0  0  0  0  0  0  0  0  0  0  0
    4.7270   23.1489    9.5871 H   0  0  0  0  0  0  0  0  0  0  0  0
    8.3603   24.0908    7.6724 C   0  0  0  0  0  0  0  0  0  0  0  0
    7.4699   25.1641    7.8094 O   0  0  0  0  0  0  0  0  0  0  0  0
    6.9995   25.0395    8.6754 H   0  0  0  0  0  0  0  0  0  0  0  0
    9.8825   19.4509    5.1796 C   0  0  0  0  0  0  0  0  0  0  0  0
   10.6515   20.2410    4.2099 C   0  0  0  0  0  0  0  0  0  0  0  0
   11.7610   19.3619    3.5735 C   0  0  0  0  0  0  0  0  0  0  0  0
   11.4118   21.3977    4.8428 C   0  0  0  0  0  0  0  0  0  0  0  0
    4.6359   20.4427    2.5953 C   0  0  0  0  0  0  0  0  0  0  0  0
    4.1211   20.9260    1.3796 O   0  0  0  0  0  0  0  0  0  0  0  0
    3.9722   20.1134    0.8180 H   0  0  0  0  0  0  0  0  0  0  0  0
    7.4385   18.7866   -1.1205 C   0  0  0  0  0  0  0  0  0  0  0  0
    6.2627   18.3301   -1.8717 C   0  0  0  0  0  0  0  0  0  0  0  0
    5.0908   17.8270   -1.1292 C   0  0  0  0  0  0  0  0  0  0  0  0
    5.7487   19.5470   -2.6716 C   0  0  0  0  0  0  0  0  0  0  0  0
 28 29  1  0  0  0
 29 26  1  0  0  0
 26 27  1  0  0  0
 26 13  1  0  0  0
 13 14  1  0  0  0
 14 15  1  0  0  0
 15 16  2  0  0  0
 15 18  1  0  0  0
 18 19  1  0  0  0
 19 20  1  0  0  0
 20 21  2  0  0  0
 21 22  1  0  0  0
 22 23  2  0  0  0
 23 24  1  0  0  0
 24 25  2  0  0  0
 13  6  1  0  0  0
  6  7  2  0  0  0
  6  8  1  0  0  0
  8  9  1  0  0  0
  9 10  1  0  0  0
 10 11  1  0  0  0
 11 12  1  0  0  0
 12  2  1  0  0  0
  2  3  2  0  0  0
  2  4  1  0  0  0
  4  1  1  0  0  0
  1 59  1  0  0  0
 59 60  1  0  0  0
 60 61  1  0  0  0
 60 62  1  0  0  0
  1 30  1  0  0  0
 30 31  2  0  0  0
 30 32  1  0  0  0
 32 34  1  0  0  0
 34 56  1  0  0  0
 56 57  1  0  0  0
 34 35  1  0  0  0
 35 36  2  0  0  0
 35 37  1  0  0  0
 37 39  1  0  0  0
 39 52  1  0  0  0
 52 53  1  0  0  0
 53 54  1  0  0  0
 53 55  1  0  0  0
 39 40  1  0  0  0
 40 41  2  0  0  0
 40 42  1  0  0  0
 42 44  1  0  0  0
 44 49  1  0  0  0
 49 50  1  0  0  0
 44 45  1  0  0  0
 45 46  1  0  0  0
 45 47  2  0  0  0
 25 20  1  0  0  0
 12  8  1  0  0  0
 14 17  1  0  0  0
  4  5  1  0  0  0
 32 33  1  0  0  0
 57 58  1  0  0  0
 37 38  1  0  0  0
 42 43  1  0  0  0
 50 51  1  0  0  0
 46 48  1  0  0  0
M  END
> <minimizedAffinity>
-6.64560

> <CNNscore>
0.0790888444

> <CNNaffinity>
6.6450333595

> <CNN_VS>
0.5255479813

> <CNNaffinity_variance>
1.0909519196

$$$$
[H]OC(=O)[C@@]([H])(N([H])C(=O)[C@@]([H])(N([H])C(=O)[C@@]([H])(N([H])C(=O)[C@@]([H])(N([H])C(=O)[C@@]1([H])N(C(=O)[C@@]([H])(N([H])C(=O)OC([H])([H])c2c([H])c([H])c([H])c([H])c2[H])[C@@]([H])(C([H])([H])[H])C([H])([H])C([H])([H])[H])C([H])([H])C([H])([H])C1([H])[H])C([H])([H])C([H])(C([H])([H])[H])C([H])([H])[H])C([H])([H])O[H])C([H])([H])C([H])(C([H])([H])[H])C([H])([H])[H])C([H])([H])O[H]


 62 63  0  0  0  0  0  0  0  0999 V2000
    7.7275   20.9260    0.4914 C   0  0  0  0  0  0  0  0  0  0  0  0
   10.1244   20.5403   -0.3365 C   0  0  0  0  0  0  0  0  0  0  0  0
   10.1821   19.3279   -0.0425 O   0  0  0  0  0  0  0  0  0  0  0  0
    8.9802   21.2905   -0.0899 N   0  0  0  0  0  0  0  0  0  0  0  0
    9.0318   22.3273   -0.3805 H   0  0  0  0  0  0  0  0  0  0  0  0
   11.2329   23.7579   -0.8989 C   0  0  0  0  0  0  0  0  0  0  0  0
   10.4416   23.7256   -1.8989 O   0  0  0  0  0  0  0  0  0  0  0  0
   11.6709   22.4603   -0.4291 N   0  0  0  0  0  0  0  0  0  0  0  0
   12.5801   22.1791    0.6574 C   0  0  0  0  0  0  0  0  0  0  0  0
   13.4470   21.0882    0.0338 C   0  0  0  0  0  0  0  0  0  0  0  0
   12.5328   20.3631   -0.9235 C   0  0  0  0  0  0  0  0  0  0  0  0
   11.3020   21.1837   -0.9584 C   0  0  0  0  0  0  0  0  0  0  0  0
   11.6546   25.0369   -0.2927 C   0  0  0  0  0  0  0  0  0  0  0  0
   11.4715   24.9065    1.1430 N   0  0  0  0  0  0  0  0  0  0  0  0
   10.1954   24.5482    1.7154 C   0  0  0  0  0  0  0  0  0  0  0  0
    9.2061   24.3440    0.9882 O   0  0  0  0  0  0  0  0  0  0  0  0
   12.2742   25.0581    1.7574 H   0  0  0  0  0  0  0  0  0  0  0  0
   10.0640   24.4256    3.0683 O   0  0  0  0  0  0  0  0  0  0  0  0
    8.9337   23.8350    3.6621 C   0  0  0  0  0  0  0  0  0  0  0  0
    8.0804   24.9037    4.2261 C   0  0  0  0  0  0  0  0  0  0  0  0
    8.1938   25.2170    5.5537 C   0  0  0  0  0  0  0  0  0  0  0  0
    7.4344   26.2167    6.1443 C   0  0  0  0  0  0  0  0  0  0  0  0
    6.5270   26.9339    5.3918 C   0  0  0  0  0  0  0  0  0  0  0  0
    6.4001   26.6321    4.0581 C   0  0  0  0  0  0  0  0  0  0  0  0
    7.1697   25.6278    3.4852 C   0  0  0  0  0  0  0  0  0  0  0  0
   13.0768   25.3451   -0.6611 C   0  0  0  0  0  0  0  0  0  0  0  0
   14.0646   24.9108    0.4032 C   0  0  0  0  0  0  0  0  0  0  0  0
   13.2960   25.9846   -3.0994 C   0  0  0  0  0  0  0  0  0  0  0  0
   13.5087   24.9689   -2.0339 C   0  0  0  0  0  0  0  0  0  0  0  0
    7.7593   20.8464    1.9643 C   0  0  0  0  0  0  0  0  0  0  0  0
    8.8904   20.9963    2.4986 O   0  0  0  0  0  0  0  0  0  0  0  0
    6.6801   20.6259    2.8287 N   0  0  0  0  0  0  0  0  0  0  0  0
    5.7319   20.4771    2.4309 H   0  0  0  0  0  0  0  0  0  0  0  0
    6.8098   20.5900    4.2773 C   0  0  0  0  0  0  0  0  0  0  0  0
    5.9828   19.4209    4.7510 C   0  0  0  0  0  0  0  0  0  0  0  0
    5.5754   19.3629    5.9479 O   0  0  0  0  0  0  0  0  0  0  0  0
    5.6506   18.3902    3.8620 N   0  0  0  0  0  0  0  0  0  0  0  0
    5.9904   18.4359    2.8820 H   0  0  0  0  0  0  0  0  0  0  0  0
    4.8075   17.2144    4.2826 C   0  0  0  0  0  0  0  0  0  0  0  0
    5.6789   16.4730    5.1894 C   0  0  0  0  0  0  0  0  0  0  0  0
    6.3406   15.4660    4.6737 O   0  0  0  0  0  0  0  0  0  0  0  0
    5.9341   16.6598    6.5546 N   0  0  0  0  0  0  0  0  0  0  0  0
    5.4780   17.3948    7.1160 H   0  0  0  0  0  0  0  0  0  0  0  0
    6.8877   15.7564    7.2237 C   0  0  0  0  0  0  0  0  0  0  0  0
    6.1786   14.9806    8.2648 C   0  0  0  0  0  0  0  0  0  0  0  0
    4.9147   14.4955    8.0267 O   0  0  0  0  0  0  0  0  0  0  0  0
    6.7353   14.7683    9.3617 O   0  0  0  0  0  0  0  0  0  0  0  0
    4.2767   14.3827    8.7881 H   0  0  0  0  0  0  0  0  0  0  0  0
    7.9794   16.5781    7.8445 C   0  0  0  0  0  0  0  0  0  0  0  0
    9.1106   15.7537    7.9110 O   0  0  0  0  0  0  0  0  0  0  0  0
    9.2739   15.4137    6.9921 H   0  0  0  0  0  0  0  0  0  0  0  0
    4.3284   16.6295    3.0290 C   0  0  0  0  0  0  0  0  0  0  0  0
    4.7690   17.1351    1.7228 C   0  0  0  0  0  0  0  0  0  0  0  0
    3.5574   17.2316    0.7577 C   0  0  0  0  0  0  0  0  0  0  0  0
    5.7373   16.2014    1.0107 C   0  0  0  0  0  0  0  0  0  0  0  0
    6.0816   21.8244    4.7715 C   0  0  0  0  0  0  0  0  0  0  0  0
    4.7057   21.5360    4.7565 O   0  0  0  0  0  0  0  0  0  0  0  0
    4.4438   21.4646    5.7178 H   0  0  0  0  0  0  0  0  0  0  0  0
    6.9470   19.9206   -0.2384 C   0  0  0  0  0  0  0  0  0  0  0  0
    6.1582   20.3010   -1.4166 C   0  0  0  0  0  0  0  0  0  0  0  0
    5.3873   19.2623   -2.1270 C   0  0  0  0  0  0  0  0  0  0  0  0
    5.1118   21.3298   -0.9354 C   0  0  0  0  0  0  0  0  0  0  0  0
 28 29  1  0  0  0
 29 26  1  0  0  0
 26 27  1  0  0  0
 26 13  1  0  0  0
 13 14  1  0  0  0
 14 15  1  0  0  0
 15 16  2  0  0  0
 15 18  1  0  0  0
 18 19  1  0  0  0
 19 20  1  0  0  0
 20 21  2  0  0  0
 21 22  1  0  0  0
 22 23  2  0  0  0
 23 24  1  0  0  0
 24 25  2  0  0  0
 13  6  1  0  0  0
  6  7  2  0  0  0
  6  8  1  0  0  0
  8  9  1  0  0  0
  9 10  1  0  0  0
 10 11  1  0  0  0
 11 12  1  0  0  0
 12  2  1  0  0  0
  2  3  2  0  0  0
  2  4  1  0  0  0
  4  1  1  0  0  0
  1 59  1  0  0  0
 59 60  1  0  0  0
 60 61  1  0  0  0
 60 62  1  0  0  0
  1 30  1  0  0  0
 30 31  2  0  0  0
 30 32  1  0  0  0
 32 34  1  0  0  0
 34 56  1  0  0  0
 56 57  1  0  0  0
 34 35  1  0  0  0
 35 36  2  0  0  0
 35 37  1  0  0  0
 37 39  1  0  0  0
 39 52  1  0  0  0
 52 53  1  0  0  0
 53 54  1  0  0  0
 53 55  1  0  0  0
 39 40  1  0  0  0
 40 41  2  0  0  0
 40 42  1  0  0  0
 42 44  1  0  0  0
 44 49  1  0  0  0
 49 50  1  0  0  0
 44 45  1  0  0  0
 45 46  1  0  0  0
 45 47  2  0  0  0
 25 20  1  0  0  0
 12  8  1  0  0  0
 14 17  1  0  0  0
  4  5  1  0  0  0
 32 33  1  0  0  0
 57 58  1  0  0  0
 37 38  1  0  0  0
 42 43  1  0  0  0
 50 51  1  0  0  0
 46 48  1  0  0  0
M  END
> <minimizedAffinity>
-7.00904

> <CNNscore>
0.0724214017

> <CNNaffinity>
6.5343003273

> <CNN_VS>
0.4732231796

> <CNNaffinity_variance>
0.7662931681

$$$$
[H]OC(=O)[C@@]([H])(N([H])C(=O)[C@@]([H])(N([H])C(=O)[C@@]([H])(N([H])C(=O)[C@@]([H])(N([H])C(=O)[C@@]1([H])N(C(=O)[C@@]([H])(N([H])C(=O)OC([H])([H])c2c([H])c([H])c([H])c([H])c2[H])[C@@]([H])(C([H])([H])[H])C([H])([H])C([H])([H])[H])C([H])([H])C([H])([H])C1([H])[H])C([H])([H])C([H])(C([H])([H])[H])C([H])([H])[H])C([H])([H])O[H])C([H])([H])C([H])(C([H])([H])[H])C([H])([H])[H])C([H])([H])O[H]


 62 63  0  0  0  0  0  0  0  0999 V2000
    8.0191   21.5937    1.4861 C   0  0  0  0  0  0  0  0  0  0  0  0
    9.8548   20.8764    3.1279 C   0  0  0  0  0  0  0  0  0  0  0  0
   10.7343   20.6561    2.2691 O   0  0  0  0  0  0  0  0  0  0  0  0
    8.5858   21.3152    2.7672 N   0  0  0  0  0  0  0  0  0  0  0  0
    7.8998   21.4763    3.5830 H   0  0  0  0  0  0  0  0  0  0  0  0
    8.7287   22.0535    6.1684 C   0  0  0  0  0  0  0  0  0  0  0  0
    9.4747   23.0577    5.9182 O   0  0  0  0  0  0  0  0  0  0  0  0
    9.0960   20.8366    5.4750 N   0  0  0  0  0  0  0  0  0  0  0  0
    8.4629   19.5423    5.5745 C   0  0  0  0  0  0  0  0  0  0  0  0
    9.6835   18.6291    5.6572 C   0  0  0  0  0  0  0  0  0  0  0  0
   10.7520   19.3330    4.8568 C   0  0  0  0  0  0  0  0  0  0  0  0
   10.1776   20.6630    4.5553 C   0  0  0  0  0  0  0  0  0  0  0  0
    7.5888   22.1558    7.1017 C   0  0  0  0  0  0  0  0  0  0  0  0
    6.4395   21.5693    6.4332 N   0  0  0  0  0  0  0  0  0  0  0  0
    5.3194   22.3732    6.0049 C   0  0  0  0  0  0  0  0  0  0  0  0
    5.3049   23.6019    6.2028 O   0  0  0  0  0  0  0  0  0  0  0  0
    6.4367   20.5637    6.2502 H   0  0  0  0  0  0  0  0  0  0  0  0
    4.2616   21.7883    5.3712 O   0  0  0  0  0  0  0  0  0  0  0  0
    3.6712   20.5996    5.8376 C   0  0  0  0  0  0  0  0  0  0  0  0
    4.3017   19.4533    5.1469 C   0  0  0  0  0  0  0  0  0  0  0  0
    4.4261   19.4820    3.7841 C   0  0  0  0  0  0  0  0  0  0  0  0
    5.0187   18.4476    3.0745 C   0  0  0  0  0  0  0  0  0  0  0  0
    5.5068   17.3414    3.7395 C   0  0  0  0  0  0  0  0  0  0  0  0
    5.3897   17.2961    5.1070 C   0  0  0  0  0  0  0  0  0  0  0  0
    4.7933   18.3421    5.7995 C   0  0  0  0  0  0  0  0  0  0  0  0
    7.9102   21.4656    8.3954 C   0  0  0  0  0  0  0  0  0  0  0  0
    8.6653   22.3556    9.3622 C   0  0  0  0  0  0  0  0  0  0  0  0
    6.9507   19.2402    9.1229 C   0  0  0  0  0  0  0  0  0  0  0  0
    6.8020   20.7182    9.0481 C   0  0  0  0  0  0  0  0  0  0  0  0
    8.6270   22.7557    0.8101 C   0  0  0  0  0  0  0  0  0  0  0  0
    7.9123   23.7915    0.7483 O   0  0  0  0  0  0  0  0  0  0  0  0
    9.9009   22.8359    0.2348 N   0  0  0  0  0  0  0  0  0  0  0  0
   10.5171   21.9994    0.2449 H   0  0  0  0  0  0  0  0  0  0  0  0
   10.4223   24.0419   -0.3897 C   0  0  0  0  0  0  0  0  0  0  0  0
   11.5709   23.6069   -1.2653 C   0  0  0  0  0  0  0  0  0  0  0  0
   11.7403   22.3843   -1.5454 O   0  0  0  0  0  0  0  0  0  0  0  0
   12.4575   24.5594   -1.7845 N   0  0  0  0  0  0  0  0  0  0  0  0
   12.3211   25.5614   -1.5491 H   0  0  0  0  0  0  0  0  0  0  0  0
   13.6051   24.1757   -2.6822 C   0  0  0  0  0  0  0  0  0  0  0  0
   14.3260   23.1696   -1.9081 C   0  0  0  0  0  0  0  0  0  0  0  0
   14.7760   22.1320   -2.5706 O   0  0  0  0  0  0  0  0  0  0  0  0
   14.6258   23.1232   -0.5400 N   0  0  0  0  0  0  0  0  0  0  0  0
   14.3256   23.8511    0.1260 H   0  0  0  0  0  0  0  0  0  0  0  0
   15.3938   21.9751   -0.0250 C   0  0  0  0  0  0  0  0  0  0  0  0
   14.4735   21.0343    0.6508 C   0  0  0  0  0  0  0  0  0  0  0  0
   13.2996   21.4896    1.2021 O   0  0  0  0  0  0  0  0  0  0  0  0
   14.7691   19.8234    0.7170 O   0  0  0  0  0  0  0  0  0  0  0  0
   12.9125   21.0225    1.9967 H   0  0  0  0  0  0  0  0  0  0  0  0
   16.4240   22.4769    0.9442 C   0  0  0  0  0  0  0  0  0  0  0  0
   16.3932   21.6094    2.0442 O   0  0  0  0  0  0  0  0  0  0  0  0
   16.5221   20.6903    1.6901 H   0  0  0  0  0  0  0  0  0  0  0  0
   14.2276   25.4462   -3.0583 C   0  0  0  0  0  0  0  0  0  0  0  0
   13.9056   26.1196   -4.3227 C   0  0  0  0  0  0  0  0  0  0  0  0
   15.1615   26.8518   -4.8660 C   0  0  0  0  0  0  0  0  0  0  0  0
   12.8690   27.2236   -4.1706 C   0  0  0  0  0  0  0  0  0  0  0  0
   11.0540   24.8320    0.7394 C   0  0  0  0  0  0  0  0  0  0  0  0
   12.2709   24.2064    1.0620 O   0  0  0  0  0  0  0  0  0  0  0  0
   12.9795   24.8322    0.7393 H   0  0  0  0  0  0  0  0  0  0  0  0
    6.5687   21.4067    1.3690 C   0  0  0  0  0  0  0  0  0  0  0  0
    6.0025   20.6628    0.2370 C   0  0  0  0  0  0  0  0  0  0  0  0
    5.3800   21.4122   -0.8716 C   0  0  0  0  0  0  0  0  0  0  0  0
    7.1675   19.8772   -0.4035 C   0  0  0  0  0  0  0  0  0  0  0  0
 28 29  1  0  0  0
 29 26  1  0  0  0
 26 27  1  0  0  0
 26 13  1  0  0  0
 13 14  1  0  0  0
 14 15  1  0  0  0
 15 16  2  0  0  0
 15 18  1  0  0  0
 18 19  1  0  0  0
 19 20  1  0  0  0
 20 21  2  0  0  0
 21 22  1  0  0  0
 22 23  2  0  0  0
 23 24  1  0  0  0
 24 25  2  0  0  0
 13  6  1  0  0  0
  6  7  2  0  0  0
  6  8  1  0  0  0
  8  9  1  0  0  0
  9 10  1  0  0  0
 10 11  1  0  0  0
 11 12  1  0  0  0
 12  2  1  0  0  0
  2  3  2  0  0  0
  2  4  1  0  0  0
  4  1  1  0  0  0
  1 59  1  0  0  0
 59 60  1  0  0  0
 60 61  1  0  0  0
 60 62  1  0  0  0
  1 30  1  0  0  0
 30 31  2  0  0  0
 30 32  1  0  0  0
 32 34  1  0  0  0
 34 56  1  0  0  0
 56 57  1  0  0  0
 34 35  1  0  0  0
 35 36  2  0  0  0
 35 37  1  0  0  0
 37 39  1  0  0  0
 39 52  1  0  0  0
 52 53  1  0  0  0
 53 54  1  0  0  0
 53 55  1  0  0  0
 39 40  1  0  0  0
 40 41  2  0  0  0
 40 42  1  0  0  0
 42 44  1  0  0  0
 44 49  1  0  0  0
 49 50  1  0  0  0
 44 45  1  0  0  0
 45 46  1  0  0  0
 45 47  2  0  0  0
 25 20  1  0  0  0
 12  8  1  0  0  0
 14 17  1  0  0  0
  4  5  1  0  0  0
 32 33  1  0  0  0
 57 58  1  0  0  0
 37 38  1  0  0  0
 42 43  1  0  0  0
 50 51  1  0  0  0
 46 48  1  0  0  0
M  END
> <minimizedAffinity>
-6.12940

> <CNNscore>
0.0701298937

> <CNNaffinity>
6.7723264694

> <CNN_VS>
0.4749425352

> <CNNaffinity_variance>
0.6635525227

$$$$
[H]OC(=O)[C@@]([H])(N([H])C(=O)[C@@]([H])(N([H])C(=O)[C@@]([H])(N([H])C(=O)[C@@]([H])(N([H])C(=O)[C@@]1([H])N(C(=O)[C@@]([H])(N([H])C(=O)OC([H])([H])c2c([H])c([H])c([H])c([H])c2[H])[C@@]([H])(C([H])([H])[H])C([H])([H])C([H])([H])[H])C([H])([H])C([H])([H])C1([H])[H])C([H])([H])C([H])(C([H])([H])[H])C([H])([H])[H])C([H])([H])O[H])C([H])([H])C([H])(C([H])([H])[H])C([H])([H])[H])C([H])([H])O[H]


 62 63  0  0  0  0  0  0  0  0999 V2000
    7.5058   20.1084   -0.9227 C   0  0  0  0  0  0  0  0  0  0  0  0
   10.0519   20.3129   -0.6874 C   0  0  0  0  0  0  0  0  0  0  0  0
   10.2009   19.3419    0.0837 O   0  0  0  0  0  0  0  0  0  0  0  0
    8.7955   20.6741   -1.1607 N   0  0  0  0  0  0  0  0  0  0  0  0
    8.7742   21.5261   -1.8208 H   0  0  0  0  0  0  0  0  0  0  0  0
   10.9864   23.6320   -0.7756 C   0  0  0  0  0  0  0  0  0  0  0  0
   10.3100   23.6676   -1.8566 O   0  0  0  0  0  0  0  0  0  0  0  0
   11.4615   22.3170   -0.3997 N   0  0  0  0  0  0  0  0  0  0  0  0
   12.2675   21.9675    0.7467 C   0  0  0  0  0  0  0  0  0  0  0  0
   13.2699   21.0062    0.1130 C   0  0  0  0  0  0  0  0  0  0  0  0
   12.5155   20.3426   -1.0132 C   0  0  0  0  0  0  0  0  0  0  0  0
   11.2410   21.0894   -1.1000 C   0  0  0  0  0  0  0  0  0  0  0  0
   11.2509   24.8563    0.0068 C   0  0  0  0  0  0  0  0  0  0  0  0
   11.1408   24.4948    1.4100 N   0  0  0  0  0  0  0  0  0  0  0  0
    9.8668   24.1908    2.0173 C   0  0  0  0  0  0  0  0  0  0  0  0
    8.8168   24.2352    1.3504 O   0  0  0  0  0  0  0  0  0  0  0  0
   11.9924   24.4407    1.9727 H   0  0  0  0  0  0  0  0  0  0  0  0
    9.8038   23.8457    3.3362 O   0  0  0  0  0  0  0  0  0  0  0  0
    8.9017   24.4529    4.2286 C   0  0  0  0  0  0  0  0  0  0  0  0
    8.9962   23.7701    5.5375 C   0  0  0  0  0  0  0  0  0  0  0  0
    9.5929   22.5402    5.6067 C   0  0  0  0  0  0  0  0  0  0  0  0
    9.7270   21.8504    6.8030 C   0  0  0  0  0  0  0  0  0  0  0  0
    9.2515   22.3991    7.9764 C   0  0  0  0  0  0  0  0  0  0  0  0
    8.6495   23.6322    7.9249 C   0  0  0  0  0  0  0  0  0  0  0  0
    8.5250   24.3072    6.7174 C   0  0  0  0  0  0  0  0  0  0  0  0
   12.6027   25.4121   -0.3351 C   0  0  0  0  0  0  0  0  0  0  0  0
   13.6279   25.1706    0.7547 C   0  0  0  0  0  0  0  0  0  0  0  0
   12.8402   26.1114   -2.7552 C   0  0  0  0  0  0  0  0  0  0  0  0
   13.1263   25.1093   -1.6940 C   0  0  0  0  0  0  0  0  0  0  0  0
    6.7915   20.7209    0.2137 C   0  0  0  0  0  0  0  0  0  0  0  0
    6.5732   21.9585    0.1232 O   0  0  0  0  0  0  0  0  0  0  0  0
    6.3310   20.0847    1.3728 N   0  0  0  0  0  0  0  0  0  0  0  0
    6.5065   19.0684    1.4991 H   0  0  0  0  0  0  0  0  0  0  0  0
    5.6100   20.7745    2.4315 C   0  0  0  0  0  0  0  0  0  0  0  0
    6.3934   20.5464    3.7001 C   0  0  0  0  0  0  0  0  0  0  0  0
    7.6339   20.2990    3.6557 O   0  0  0  0  0  0  0  0  0  0  0  0
    5.7513   20.6161    4.9435 N   0  0  0  0  0  0  0  0  0  0  0  0
    4.7326   20.8132    4.9784 H   0  0  0  0  0  0  0  0  0  0  0  0
    6.4961   20.4189    6.2383 C   0  0  0  0  0  0  0  0  0  0  0  0
    6.7541   18.9823    6.2715 C   0  0  0  0  0  0  0  0  0  0  0  0
    7.9698   18.6125    6.5926 O   0  0  0  0  0  0  0  0  0  0  0  0
    5.8998   17.9027    6.0102 N   0  0  0  0  0  0  0  0  0  0  0  0
    4.9163   18.0210    5.7234 H   0  0  0  0  0  0  0  0  0  0  0  0
    6.4335   16.5344    6.1373 C   0  0  0  0  0  0  0  0  0  0  0  0
    6.1441   15.7793    4.8985 C   0  0  0  0  0  0  0  0  0  0  0  0
    5.0828   16.1367    4.1015 O   0  0  0  0  0  0  0  0  0  0  0  0
    6.8702   14.8151    4.5805 O   0  0  0  0  0  0  0  0  0  0  0  0
    4.6135   15.4390    3.5607 H   0  0  0  0  0  0  0  0  0  0  0  0
    5.7822   15.8677    7.3137 C   0  0  0  0  0  0  0  0  0  0  0  0
    4.4203   15.7538    7.0042 O   0  0  0  0  0  0  0  0  0  0  0  0
    4.3614   15.2809    6.1327 H   0  0  0  0  0  0  0  0  0  0  0  0
    5.6662   21.0733    7.2513 C   0  0  0  0  0  0  0  0  0  0  0  0
    5.3111   22.4949    7.1580 C   0  0  0  0  0  0  0  0  0  0  0  0
    5.3289   23.1377    8.5706 C   0  0  0  0  0  0  0  0  0  0  0  0
    3.8919   22.7302    6.6610 C   0  0  0  0  0  0  0  0  0  0  0  0
    4.3223   19.9942    2.6080 C   0  0  0  0  0  0  0  0  0  0  0  0
    4.6578   18.7485    3.1666 O   0  0  0  0  0  0  0  0  0  0  0  0
    4.3168   18.7831    4.1049 H   0  0  0  0  0  0  0  0  0  0  0  0
    7.3949   18.6572   -1.1075 C   0  0  0  0  0  0  0  0  0  0  0  0
    6.1939   18.0736   -1.7175 C   0  0  0  0  0  0  0  0  0  0  0  0
    5.1913   17.4287   -0.8475 C   0  0  0  0  0  0  0  0  0  0  0  0
    5.4459   19.2298   -2.4164 C   0  0  0  0  0  0  0  0  0  0  0  0
 28 29  1  0  0  0
 29 26  1  0  0  0
 26 27  1  0  0  0
 26 13  1  0  0  0
 13 14  1  0  0  0
 14 15  1  0  0  0
 15 16  2  0  0  0
 15 18  1  0  0  0
 18 19  1  0  0  0
 19 20  1  0  0  0
 20 21  2  0  0  0
 21 22  1  0  0  0
 22 23  2  0  0  0
 23 24  1  0  0  0
 24 25  2  0  0  0
 13  6  1  0  0  0
  6  7  2  0  0  0
  6  8  1  0  0  0
  8  9  1  0  0  0
  9 10  1  0  0  0
 10 11  1  0  0  0
 11 12  1  0  0  0
 12  2  1  0  0  0
  2  3  2  0  0  0
  2  4  1  0  0  0
  4  1  1  0  0  0
  1 59  1  0  0  0
 59 60  1  0  0  0
 60 61  1  0  0  0
 60 62  1  0  0  0
  1 30  1  0  0  0
 30 31  2  0  0  0
 30 32  1  0  0  0
 32 34  1  0  0  0
 34 56  1  0  0  0
 56 57  1  0  0  0
 34 35  1  0  0  0
 35 36  2  0  0  0
 35 37  1  0  0  0
 37 39  1  0  0  0
 39 52  1  0  0  0
 52 53  1  0  0  0
 53 54  1  0  0  0
 53 55  1  0  0  0
 39 40  1  0  0  0
 40 41  2  0  0  0
 40 42  1  0  0  0
 42 44  1  0  0  0
 44 49  1  0  0  0
 49 50  1  0  0  0
 44 45  1  0  0  0
 45 46  1  0  0  0
 45 47  2  0  0  0
 25 20  1  0  0  0
 12  8  1  0  0  0
 14 17  1  0  0  0
  4  5  1  0  0  0
 32 33  1  0  0  0
 57 58  1  0  0  0
 37 38  1  0  0  0
 42 43  1  0  0  0
 50 51  1  0  0  0
 46 48  1  0  0  0
M  END
> <minimizedAffinity>
-6.47530

> <CNNscore>
0.0649180710

> <CNNaffinity>
6.6412811279

> <CNN_VS>
0.4311391711

> <CNNaffinity_variance>
0.5911003947

$$$$
[H]OC(=O)[C@@]([H])(N([H])C(=O)[C@@]([H])(N([H])C(=O)[C@@]([H])(N([H])C(=O)[C@@]([H])(N([H])C(=O)[C@@]1([H])N(C(=O)[C@@]([H])(N([H])C(=O)OC([H])([H])c2c([H])c([H])c([H])c([H])c2[H])[C@@]([H])(C([H])([H])[H])C([H])([H])C([H])([H])[H])C([H])([H])C([H])([H])C1([H])[H])C([H])([H])C([H])(C([H])([H])[H])C([H])([H])[H])C([H])([H])O[H])C([H])([H])C([H])(C([H])([H])[H])C([H])([H])[H])C([H])([H])O[H]


 62 63  0  0  0  0  0  0  0  0999 V2000
    7.6858   21.2707    0.3718 C   0  0  0  0  0  0  0  0  0  0  0  0
    5.1272   21.2097    0.2002 C   0  0  0  0  0  0  0  0  0  0  0  0
    4.9008   21.3247    1.4229 O   0  0  0  0  0  0  0  0  0  0  0  0
    6.4259   21.1848   -0.2955 N   0  0  0  0  0  0  0  0  0  0  0  0
    6.5139   21.0825   -1.3650 H   0  0  0  0  0  0  0  0  0  0  0  0
    4.0161   18.9539   -2.1610 C   0  0  0  0  0  0  0  0  0  0  0  0
    4.8722   19.5148   -2.9224 O   0  0  0  0  0  0  0  0  0  0  0  0
    3.5651   19.7676   -1.0515 N   0  0  0  0  0  0  0  0  0  0  0  0
    2.5898   19.4194   -0.0447 C   0  0  0  0  0  0  0  0  0  0  0  0
    1.7805   20.7115    0.0327 C   0  0  0  0  0  0  0  0  0  0  0  0
    2.7655   21.8086   -0.2896 C   0  0  0  0  0  0  0  0  0  0  0  0
    3.9850   21.0972   -0.7326 C   0  0  0  0  0  0  0  0  0  0  0  0
    3.5385   17.5809   -2.4209 C   0  0  0  0  0  0  0  0  0  0  0  0
    3.4465   16.9131   -1.1336 N   0  0  0  0  0  0  0  0  0  0  0  0
    4.6235   16.4871   -0.4142 C   0  0  0  0  0  0  0  0  0  0  0  0
    5.7604   16.6775   -0.8839 O   0  0  0  0  0  0  0  0  0  0  0  0
    2.5227   16.7578   -0.7244 H   0  0  0  0  0  0  0  0  0  0  0  0
    4.4981   15.8714    0.7973 O   0  0  0  0  0  0  0  0  0  0  0  0
    5.6138   15.4676    1.5531 C   0  0  0  0  0  0  0  0  0  0  0  0
    5.6463   16.2508    2.8076 C   0  0  0  0  0  0  0  0  0  0  0  0
    5.2620   17.5642    2.7842 C   0  0  0  0  0  0  0  0  0  0  0  0
    5.2555   18.3526    3.9258 C   0  0  0  0  0  0  0  0  0  0  0  0
    5.6452   17.8203    5.1378 C   0  0  0  0  0  0  0  0  0  0  0  0
    6.0344   16.5040    5.1792 C   0  0  0  0  0  0  0  0  0  0  0  0
    6.0337   15.7311    4.0251 C   0  0  0  0  0  0  0  0  0  0  0  0
    2.2223   17.6141   -3.1420 C   0  0  0  0  0  0  0  0  0  0  0  0
    1.1248   16.8868   -2.3913 C   0  0  0  0  0  0  0  0  0  0  0  0
    2.1072   19.2239   -5.0907 C   0  0  0  0  0  0  0  0  0  0  0  0
    1.7814   18.9334   -3.6689 C   0  0  0  0  0  0  0  0  0  0  0  0
    8.1336   22.6553    0.6149 C   0  0  0  0  0  0  0  0  0  0  0  0
    7.4759   23.5565    0.0296 O   0  0  0  0  0  0  0  0  0  0  0  0
    9.1995   23.0768    1.4189 N   0  0  0  0  0  0  0  0  0  0  0  0
    9.7819   22.3667    1.9048 H   0  0  0  0  0  0  0  0  0  0  0  0
    9.5483   24.4753    1.6167 C   0  0  0  0  0  0  0  0  0  0  0  0
   11.0091   24.6049    1.2639 C   0  0  0  0  0  0  0  0  0  0  0  0
   11.6458   25.6647    1.5352 O   0  0  0  0  0  0  0  0  0  0  0  0
   11.6769   23.5439    0.6383 N   0  0  0  0  0  0  0  0  0  0  0  0
   11.1521   22.6775    0.4110 H   0  0  0  0  0  0  0  0  0  0  0  0
   13.1404   23.6178    0.2881 C   0  0  0  0  0  0  0  0  0  0  0  0
   13.1399   24.0799   -1.0967 C   0  0  0  0  0  0  0  0  0  0  0  0
   12.1439   23.6781   -1.8482 O   0  0  0  0  0  0  0  0  0  0  0  0
   14.0484   24.9013   -1.7775 N   0  0  0  0  0  0  0  0  0  0  0  0
   14.8984   25.2847   -1.3371 H   0  0  0  0  0  0  0  0  0  0  0  0
   13.7857   25.2223   -3.1922 C   0  0  0  0  0  0  0  0  0  0  0  0
   15.0719   25.3482   -3.9122 C   0  0  0  0  0  0  0  0  0  0  0  0
   15.3090   24.6025   -5.0422 O   0  0  0  0  0  0  0  0  0  0  0  0
   15.9413   26.1369   -3.4876 O   0  0  0  0  0  0  0  0  0  0  0  0
   16.2444   24.3325   -5.2692 H   0  0  0  0  0  0  0  0  0  0  0  0
   13.0246   26.5139   -3.2627 C   0  0  0  0  0  0  0  0  0  0  0  0
   13.3917   27.1281   -4.4676 O   0  0  0  0  0  0  0  0  0  0  0  0
   13.2219   26.4685   -5.1907 H   0  0  0  0  0  0  0  0  0  0  0  0
   13.6812   22.3094    0.6606 C   0  0  0  0  0  0  0  0  0  0  0  0
   14.7608   21.6736   -0.1050 C   0  0  0  0  0  0  0  0  0  0  0  0
   14.1763   20.9727   -1.3603 C   0  0  0  0  0  0  0  0  0  0  0  0
   15.4590   20.5541    0.6538 C   0  0  0  0  0  0  0  0  0  0  0  0
    9.4753   24.6942    3.1150 C   0  0  0  0  0  0  0  0  0  0  0  0
    9.4363   26.0819    3.3366 O   0  0  0  0  0  0  0  0  0  0  0  0
    8.5064   26.2700    3.6493 H   0  0  0  0  0  0  0  0  0  0  0  0
    8.6918   20.2779   -0.0214 C   0  0  0  0  0  0  0  0  0  0  0  0
   10.0641   20.6928   -0.3375 C   0  0  0  0  0  0  0  0  0  0  0  0
   11.1690   19.7407   -0.1121 C   0  0  0  0  0  0  0  0  0  0  0  0
   10.0951   21.0049   -1.8496 C   0  0  0  0  0  0  0  0  0  0  0  0
 28 29  1  0  0  0
 29 26  1  0  0  0
 26 27  1  0  0  0
 26 13  1  0  0  0
 13 14  1  0  0  0
 14 15  1  0  0  0
 15 16  2  0  0  0
 15 18  1  0  0  0
 18 19  1  0  0  0
 19 20  1  0  0  0
 20 21  2  0  0  0
 21 22  1  0  0  0
 22 23  2  0  0  0
 23 24  1  0  0  0
 24 25  2  0  0  0
 13  6  1  0  0  0
  6  7  2  0  0  0
  6  8  1  0  0  0
  8  9  1  0  0  0
  9 10  1  0  0  0
 10 11  1  0  0  0
 11 12  1  0  0  0
 12  2  1  0  0  0
  2  3  2  0  0  0
  2  4  1  0  0  0
  4  1  1  0  0  0
  1 59  1  0  0  0
 59 60  1  0  0  0
 60 61  1  0  0  0
 60 62  1  0  0  0
  1 30  1  0  0  0
 30 31  2  0  0  0
 30 32  1  0  0  0
 32 34  1  0  0  0
 34 56  1  0  0  0
 56 57  1  0  0  0
 34 35  1  0  0  0
 35 36  2  0  0  0
 35 37  1  0  0  0
 37 39  1  0  0  0
 39 52  1  0  0  0
 52 53  1  0  0  0
 53 54  1  0  0  0
 53 55  1  0  0  0
 39 40  1  0  0  0
 40 41  2  0  0  0
 40 42  1  0  0  0
 42 44  1  0  0  0
 44 49  1  0  0  0
 49 50  1  0  0  0
 44 45  1  0  0  0
 45 46  1  0  0  0
 45 47  2  0  0  0
 25 20  1  0  0  0
 12  8  1  0  0  0
 14 17  1  0  0  0
  4  5  1  0  0  0
 32 33  1  0  0  0
 57 58  1  0  0  0
 37 38  1  0  0  0
 42 43  1  0  0  0
 50 51  1  0  0  0
 46 48  1  0  0  0
M  END
> <minimizedAffinity>
-6.97784

> <CNNscore>
0.0642202720

> <CNNaffinity>
6.7725157738

> <CNN_VS>
0.4349327981

> <CNNaffinity_variance>
0.7586308718

$$$$
[H]c1c([H])c([H])c2c(c1[H])c1c3c(c4c5c([H])c([H])c([H])c([H])c5n5c4c1n2[C@@]1(C([H])([H])[H])O[C@]5([H])C([H])([H])[C@@]([H])(N([H])C([H])([H])[H])[C@@]1([H])OC([H])([H])[H])C([H])([H])N([H])C3=O


 37 44  0  0  0  0  0  0  0  0999 V2000
   11.7695   24.2004    1.0892 C   0  0  0  0  0  0  0  0  0  0  0  0
   13.2589   24.3707    1.3997 C   0  0  0  0  0  0  0  0  0  0  0  0
   13.9533   23.5434    0.3310 C   0  0  0  0  0  0  0  0  0  0  0  0
   13.2017   23.2891   -0.7519 O   0  0  0  0  0  0  0  0  0  0  0  0
   12.4047   24.3165   -1.2708 C   0  0  0  0  0  0  0  0  0  0  0  0
   11.4525   23.5284   -2.1871 C   0  0  0  0  0  0  0  0  0  0  0  0
   11.5842   24.9851   -0.2276 C   0  0  0  0  0  0  0  0  0  0  0  0
   13.1962   25.2489   -2.0914 N   0  0  0  0  0  0  0  0  0  0  0  0
   12.7598   25.9882   -3.1158 C   0  0  0  0  0  0  0  0  0  0  0  0
   11.5153   26.1573   -3.6494 C   0  0  0  0  0  0  0  0  0  0  0  0
   11.2833   27.0011   -4.7226 C   0  0  0  0  0  0  0  0  0  0  0  0
   12.3205   27.6996   -5.2819 C   0  0  0  0  0  0  0  0  0  0  0  0
   13.5895   27.5433   -4.7545 C   0  0  0  0  0  0  0  0  0  0  0  0
   13.8053   26.7147   -3.7042 C   0  0  0  0  0  0  0  0  0  0  0  0
   14.9356   26.3776   -2.9632 C   0  0  0  0  0  0  0  0  0  0  0  0
   16.2666   26.7823   -3.0551 C   0  0  0  0  0  0  0  0  0  0  0  0
   17.0020   27.6640   -3.9280 C   0  0  0  0  0  0  0  0  0  0  0  0
   16.6658   28.3546   -4.8910 O   0  0  0  0  0  0  0  0  0  0  0  0
   18.3840   27.6568   -3.4965 N   0  0  0  0  0  0  0  0  0  0  0  0
   18.5375   26.7921   -2.3703 C   0  0  0  0  0  0  0  0  0  0  0  0
   17.1616   26.2581   -2.1293 C   0  0  0  0  0  0  0  0  0  0  0  0
   16.7420   25.3734   -1.1598 C   0  0  0  0  0  0  0  0  0  0  0  0
   17.3707   24.7176   -0.1161 C   0  0  0  0  0  0  0  0  0  0  0  0
   18.6656   24.6904    0.3334 C   0  0  0  0  0  0  0  0  0  0  0  0
   19.0070   23.9212    1.4319 C   0  0  0  0  0  0  0  0  0  0  0  0
   18.0313   23.1860    2.0651 C   0  0  0  0  0  0  0  0  0  0  0  0
   16.7183   23.1944    1.6339 C   0  0  0  0  0  0  0  0  0  0  0  0
   16.4125   23.9754    0.5318 C   0  0  0  0  0  0  0  0  0  0  0  0
   15.2308   24.1475   -0.0685 N   0  0  0  0  0  0  0  0  0  0  0  0
   15.4148   24.9869   -1.0918 C   0  0  0  0  0  0  0  0  0  0  0  0
   14.5211   25.4975   -2.0054 C   0  0  0  0  0  0  0  0  0  0  0  0
   19.1813   28.1882   -3.9160 H   0  0  0  0  0  0  0  0  0  0  0  0
    9.9120   23.8357    2.5615 C   0  0  0  0  0  0  0  0  0  0  0  0
   10.9453   24.7349    2.1275 N   0  0  0  0  0  0  0  0  0  0  0  0
   10.4487   25.5812    1.7310 H   0  0  0  0  0  0  0  0  0  0  0  0
   11.8997   26.2869    0.0620 O   0  0  0  0  0  0  0  0  0  0  0  0
   12.6985   26.3865    1.1966 C   0  0  0  0  0  0  0  0  0  0  0  0
 33 34  1  0  0  0
 34  1  1  0  0  0
  1  2  1  0  0  0
  2  3  1  0  0  0
  3  4  1  0  0  0
  4  5  1  0  0  0
  5  6  1  0  0  0
  5  7  1  0  0  0
  7 36  1  0  0  0
 36 37  1  0  0  0
  5  8  1  0  0  0
  8  9  1  0  0  0
  9 10  2  0  0  0
 10 11  1  0  0  0
 11 12  2  0  0  0
 12 13  1  0  0  0
 13 14  2  0  0  0
 14 15  1  0  0  0
 15 16  2  0  0  0
 16 17  1  0  0  0
 17 18  2  0  0  0
 17 19  1  0  0  0
 19 20  1  0  0  0
 20 21  1  0  0  0
 21 22  2  0  0  0
 22 23  1  0  0  0
 23 24  2  0  0  0
 24 25  1  0  0  0
 25 26  2  0  0  0
 26 27  1  0  0  0
 27 28  2  0  0  0
 28 29  1  0  0  0
 29 30  1  0  0  0
 30 31  2  0  0  0
  7  1  1  0  0  0
 31  8  1  0  0  0
 29  3  1  0  0  0
 14  9  1  0  0  0
 31 15  1  0  0  0
 21 16  1  0  0  0
 30 22  1  0  0  0
 28 23  1  0  0  0
 34 35  1  0  0  0
 19 32  1  0  0  0
M  END
> <minimizedAffinity>
22.88922

> <CNNscore>
0.5671959519

> <CNNaffinity>
7.2190599442

> <CNN_VS>
4.0946216583

> <CNNaffinity_variance>
0.9304844141

$$$$
[H]c1c([H])c([H])c2c(c1[H])c1c3c(c4c5c([H])c([H])c([H])c([H])c5n5c4c1n2[C@@]1(C([H])([H])[H])O[C@]5([H])C([H])([H])[C@@]([H])(N([H])C([H])([H])[H])[C@@]1([H])OC([H])([H])[H])C([H])([H])N([H])C3=O


 37 44  0  0  0  0  0  0  0  0999 V2000
   13.3087   21.2311   -2.1788 C   0  0  0  0  0  0  0  0  0  0  0  0
   13.9994   22.1350   -1.1545 C   0  0  0  0  0  0  0  0  0  0  0  0
   15.4604   22.1123   -1.5714 C   0  0  0  0  0  0  0  0  0  0  0  0
   15.6709   21.7330   -2.8419 O   0  0  0  0  0  0  0  0  0  0  0  0
   14.8134   22.2179   -3.8368 C   0  0  0  0  0  0  0  0  0  0  0  0
   15.1301   21.2637   -5.0016 C   0  0  0  0  0  0  0  0  0  0  0  0
   13.3791   22.0492   -3.4864 C   0  0  0  0  0  0  0  0  0  0  0  0
   15.1704   23.5909   -4.2322 N   0  0  0  0  0  0  0  0  0  0  0  0
   14.9632   24.1651   -5.4212 C   0  0  0  0  0  0  0  0  0  0  0  0
   14.3375   23.7194   -6.5490 C   0  0  0  0  0  0  0  0  0  0  0  0
   14.2224   24.5028   -7.6851 C   0  0  0  0  0  0  0  0  0  0  0  0
   14.7444   25.7692   -7.7001 C   0  0  0  0  0  0  0  0  0  0  0  0
   15.3813   26.2403   -6.5662 C   0  0  0  0  0  0  0  0  0  0  0  0
   15.4883   25.4650   -5.4599 C   0  0  0  0  0  0  0  0  0  0  0  0
   16.0384   25.6658   -4.1960 C   0  0  0  0  0  0  0  0  0  0  0  0
   16.6892   26.7581   -3.6242 C   0  0  0  0  0  0  0  0  0  0  0  0
   17.0666   28.0712   -4.0863 C   0  0  0  0  0  0  0  0  0  0  0  0
   16.9215   28.6492   -5.1643 O   0  0  0  0  0  0  0  0  0  0  0  0
   17.7344   28.7461   -2.9933 N   0  0  0  0  0  0  0  0  0  0  0  0
   17.7857   27.8899   -1.8514 C   0  0  0  0  0  0  0  0  0  0  0  0
   17.1090   26.6357   -2.3045 C   0  0  0  0  0  0  0  0  0  0  0  0
   16.8861   25.4761   -1.5943 C   0  0  0  0  0  0  0  0  0  0  0  0
   17.1562   25.0723   -0.2987 C   0  0  0  0  0  0  0  0  0  0  0  0
   17.7717   25.6782    0.7662 C   0  0  0  0  0  0  0  0  0  0  0  0
   17.8994   25.0099    1.9712 C   0  0  0  0  0  0  0  0  0  0  0  0
   17.4015   23.7322    2.0855 C   0  0  0  0  0  0  0  0  0  0  0  0
   16.7767   23.0970    1.0290 C   0  0  0  0  0  0  0  0  0  0  0  0
   16.6663   23.7955   -0.1618 C   0  0  0  0  0  0  0  0  0  0  0  0
   16.1117   23.4029   -1.3127 N   0  0  0  0  0  0  0  0  0  0  0  0
   16.2386   24.4058   -2.1865 C   0  0  0  0  0  0  0  0  0  0  0  0
   15.8217   24.5155   -3.4934 C   0  0  0  0  0  0  0  0  0  0  0  0
   18.1338   29.7129   -2.9952 H   0  0  0  0  0  0  0  0  0  0  0  0
   11.8014   20.5090   -0.4590 C   0  0  0  0  0  0  0  0  0  0  0  0
   11.9539   20.9551   -1.8164 N   0  0  0  0  0  0  0  0  0  0  0  0
   11.6215   20.1560   -2.4256 H   0  0  0  0  0  0  0  0  0  0  0  0
   12.6645   23.1951   -3.2527 O   0  0  0  0  0  0  0  0  0  0  0  0
   12.7223   23.5785   -1.9167 C   0  0  0  0  0  0  0  0  0  0  0  0
 33 34  1  0  0  0
 34  1  1  0  0  0
  1  2  1  0  0  0
  2  3  1  0  0  0
  3  4  1  0  0  0
  4  5  1  0  0  0
  5  6  1  0  0  0
  5  7  1  0  0  0
  7 36  1  0  0  0
 36 37  1  0  0  0
  5  8  1  0  0  0
  8  9  1  0  0  0
  9 10  2  0  0  0
 10 11  1  0  0  0
 11 12  2  0  0  0
 12 13  1  0  0  0
 13 14  2  0  0  0
 14 15  1  0  0  0
 15 16  2  0  0  0
 16 17  1  0  0  0
 17 18  2  0  0  0
 17 19  1  0  0  0
 19 20  1  0  0  0
 20 21  1  0  0  0
 21 22  2  0  0  0
 22 23  1  0  0  0
 23 24  2  0  0  0
 24 25  1  0  0  0
 25 26  2  0  0  0
 26 27  1  0  0  0
 27 28  2  0  0  0
 28 29  1  0  0  0
 29 30  1  0  0  0
 30 31  2  0  0  0
  7  1  1  0  0  0
 31  8  1  0  0  0
 29  3  1  0  0  0
 14  9  1  0  0  0
 31 15  1  0  0  0
 21 16  1  0  0  0
 30 22  1  0  0  0
 28 23  1  0  0  0
 34 35  1  0  0  0
 19 32  1  0  0  0
M  END
> <minimizedAffinity>
34.80104

> <CNNscore>
0.4877910614

> <CNNaffinity>
7.2769899368

> <CNN_VS>
3.5496506691

> <CNNaffinity_variance>
0.6943739653

$$$$
[H]c1c([H])c([H])c2c(c1[H])c1c3c(c4c5c([H])c([H])c([H])c([H])c5n5c4c1n2[C@@]1(C([H])([H])[H])O[C@]5([H])C([H])([H])[C@@]([H])(N([H])C([H])([H])[H])[C@@]1([H])OC([H])([H])[H])C([H])([H])N([H])C3=O


 37 44  0  0  0  0  0  0  0  0999 V2000
   17.2640   23.7389    0.6232 C   0  0  0  0  0  0  0  0  0  0  0  0
   17.3213   25.0103   -0.2275 C   0  0  0  0  0  0  0  0  0  0  0  0
   17.1198   24.5105   -1.6482 C   0  0  0  0  0  0  0  0  0  0  0  0
   16.5495   23.2983   -1.7362 O   0  0  0  0  0  0  0  0  0  0  0  0
   15.4830   22.9959   -0.8810 C   0  0  0  0  0  0  0  0  0  0  0  0
   15.4117   21.4647   -1.0149 C   0  0  0  0  0  0  0  0  0  0  0  0
   15.7814   23.3159    0.5392 C   0  0  0  0  0  0  0  0  0  0  0  0
   14.2211   23.5783   -1.3682 N   0  0  0  0  0  0  0  0  0  0  0  0
   12.9860   23.1134   -1.1563 C   0  0  0  0  0  0  0  0  0  0  0  0
   12.5245   22.0639   -0.4163 C   0  0  0  0  0  0  0  0  0  0  0  0
   11.1753   21.7664   -0.3228 C   0  0  0  0  0  0  0  0  0  0  0  0
   10.2561   22.5369   -0.9846 C   0  0  0  0  0  0  0  0  0  0  0  0
   10.7035   23.6064   -1.7390 C   0  0  0  0  0  0  0  0  0  0  0  0
   12.0263   23.8885   -1.8236 C   0  0  0  0  0  0  0  0  0  0  0  0
   12.7568   24.8838   -2.4688 C   0  0  0  0  0  0  0  0  0  0  0  0
   12.3678   25.9533   -3.2740 C   0  0  0  0  0  0  0  0  0  0  0  0
   11.1058   26.4443   -3.7705 C   0  0  0  0  0  0  0  0  0  0  0  0
    9.9457   26.0559   -3.6273 O   0  0  0  0  0  0  0  0  0  0  0  0
   11.3770   27.6161   -4.5764 N   0  0  0  0  0  0  0  0  0  0  0  0
   12.7809   27.8771   -4.5986 C   0  0  0  0  0  0  0  0  0  0  0  0
   13.3680   26.7898   -3.7565 C   0  0  0  0  0  0  0  0  0  0  0  0
   14.6915   26.5648   -3.4457 C   0  0  0  0  0  0  0  0  0  0  0  0
   15.8760   27.2139   -3.7460 C   0  0  0  0  0  0  0  0  0  0  0  0
   16.1766   28.3253   -4.4905 C   0  0  0  0  0  0  0  0  0  0  0  0
   17.4883   28.7488   -4.6139 C   0  0  0  0  0  0  0  0  0  0  0  0
   18.4839   28.0408   -3.9808 C   0  0  0  0  0  0  0  0  0  0  0  0
   18.2101   26.9171   -3.2242 C   0  0  0  0  0  0  0  0  0  0  0  0
   16.8865   26.5221   -3.1224 C   0  0  0  0  0  0  0  0  0  0  0  0
   16.3735   25.4823   -2.4576 N   0  0  0  0  0  0  0  0  0  0  0  0
   15.0506   25.4944   -2.6452 C   0  0  0  0  0  0  0  0  0  0  0  0
   14.0685   24.6585   -2.1648 C   0  0  0  0  0  0  0  0  0  0  0  0
   10.6817   28.2112   -5.0831 H   0  0  0  0  0  0  0  0  0  0  0  0
   18.9918   24.4919    2.1061 C   0  0  0  0  0  0  0  0  0  0  0  0
   17.6530   23.9864    1.9762 N   0  0  0  0  0  0  0  0  0  0  0  0
   17.6413   23.0569    2.4822 H   0  0  0  0  0  0  0  0  0  0  0  0
   15.0651   24.3396    1.1023 O   0  0  0  0  0  0  0  0  0  0  0  0
   13.8218   23.9130    1.5577 C   0  0  0  0  0  0  0  0  0  0  0  0
 33 34  1  0  0  0
 34  1  1  0  0  0
  1  2  1  0  0  0
  2  3  1  0  0  0
  3  4  1  0  0  0
  4  5  1  0  0  0
  5  6  1  0  0  0
  5  7  1  0  0  0
  7 36  1  0  0  0
 36 37  1  0  0  0
  5  8  1  0  0  0
  8  9  1  0  0  0
  9 10  2  0  0  0
 10 11  1  0  0  0
 11 12  2  0  0  0
 12 13  1  0  0  0
 13 14  2  0  0  0
 14 15  1  0  0  0
 15 16  2  0  0  0
 16 17  1  0  0  0
 17 18  2  0  0  0
 17 19  1  0  0  0
 19 20  1  0  0  0
 20 21  1  0  0  0
 21 22  2  0  0  0
 22 23  1  0  0  0
 23 24  2  0  0  0
 24 25  1  0  0  0
 25 26  2  0  0  0
 26 27  1  0  0  0
 27 28  2  0  0  0
 28 29  1  0  0  0
 29 30  1  0  0  0
 30 31  2  0  0  0
  7  1  1  0  0  0
 31  8  1  0  0  0
 29  3  1  0  0  0
 14  9  1  0  0  0
 31 15  1  0  0  0
 21 16  1  0  0  0
 30 22  1  0  0  0
 28 23  1  0  0  0
 34 35  1  0  0  0
 19 32  1  0  0  0
M  END
> <minimizedAffinity>
22.47176

> <CNNscore>
0.4636594653

> <CNNaffinity>
7.3343095779

> <CNN_VS>
3.4006221294

> <CNNaffinity_variance>
0.7046406269

$$$$
[H]c1c([H])c([H])c2c(c1[H])c1c3c(c4c5c([H])c([H])c([H])c([H])c5n5c4c1n2[C@@]1(C([H])([H])[H])O[C@]5([H])C([H])([H])[C@@]([H])(N([H])C([H])([H])[H])[C@@]1([H])OC([H])([H])[H])C([H])([H])N([H])C3=O


 37 44  0  0  0  0  0  0  0  0999 V2000
   11.4420   24.0741    0.1348 C   0  0  0  0  0  0  0  0  0  0  0  0
   11.3139   25.3108   -0.7583 C   0  0  0  0  0  0  0  0  0  0  0  0
   12.7054   25.9210   -0.7417 C   0  0  0  0  0  0  0  0  0  0  0  0
   13.6805   25.0735   -0.3767 O   0  0  0  0  0  0  0  0  0  0  0  0
   13.6505   23.7642   -0.8717 C   0  0  0  0  0  0  0  0  0  0  0  0
   14.6445   23.0613    0.0691 C   0  0  0  0  0  0  0  0  0  0  0  0
   12.3235   23.1182   -0.6979 C   0  0  0  0  0  0  0  0  0  0  0  0
   14.1669   23.6982   -2.2494 N   0  0  0  0  0  0  0  0  0  0  0  0
   14.7609   22.6547   -2.8366 C   0  0  0  0  0  0  0  0  0  0  0  0
   15.0014   21.3835   -2.4029 C   0  0  0  0  0  0  0  0  0  0  0  0
   15.6309   20.4412   -3.1987 C   0  0  0  0  0  0  0  0  0  0  0  0
   16.0327   20.7726   -4.4657 C   0  0  0  0  0  0  0  0  0  0  0  0
   15.7967   22.0559   -4.9248 C   0  0  0  0  0  0  0  0  0  0  0  0
   15.1799   22.9701   -4.1374 C   0  0  0  0  0  0  0  0  0  0  0  0
   14.7962   24.2961   -4.3246 C   0  0  0  0  0  0  0  0  0  0  0  0
   14.9245   25.1601   -5.4111 C   0  0  0  0  0  0  0  0  0  0  0  0
   15.4996   25.0553   -6.7296 C   0  0  0  0  0  0  0  0  0  0  0  0
   16.0706   24.1369   -7.3194 O   0  0  0  0  0  0  0  0  0  0  0  0
   15.3118   26.3284   -7.3930 N   0  0  0  0  0  0  0  0  0  0  0  0
   14.6301   27.2339   -6.5242 C   0  0  0  0  0  0  0  0  0  0  0  0
   14.4075   26.4434   -5.2745 C   0  0  0  0  0  0  0  0  0  0  0  0
   13.7919   26.8392   -4.1069 C   0  0  0  0  0  0  0  0  0  0  0  0
   13.1771   28.0062   -3.6889 C   0  0  0  0  0  0  0  0  0  0  0  0
   12.9676   29.2237   -4.2835 C   0  0  0  0  0  0  0  0  0  0  0  0
   12.3030   30.2281   -3.6020 C   0  0  0  0  0  0  0  0  0  0  0  0
   11.8565   29.9885   -2.3227 C   0  0  0  0  0  0  0  0  0  0  0  0
   12.0537   28.7712   -1.6986 C   0  0  0  0  0  0  0  0  0  0  0  0
   12.7225   27.7891   -2.4102 C   0  0  0  0  0  0  0  0  0  0  0  0
   13.0321   26.5458   -2.0299 N   0  0  0  0  0  0  0  0  0  0  0  0
   13.6791   25.9617   -3.0426 C   0  0  0  0  0  0  0  0  0  0  0  0
   14.1904   24.6899   -3.1663 C   0  0  0  0  0  0  0  0  0  0  0  0
   15.6132   26.5893   -8.3601 H   0  0  0  0  0  0  0  0  0  0  0  0
    9.0584   24.2853   -0.0237 C   0  0  0  0  0  0  0  0  0  0  0  0
   10.1693   23.4872    0.4161 N   0  0  0  0  0  0  0  0  0  0  0  0
   10.0805   23.4175    1.4685 H   0  0  0  0  0  0  0  0  0  0  0  0
   11.6151   22.8517   -1.8404 O   0  0  0  0  0  0  0  0  0  0  0  0
   11.0117   21.5991   -1.7957 C   0  0  0  0  0  0  0  0  0  0  0  0
 33 34  1  0  0  0
 34  1  1  0  0  0
  1  2  1  0  0  0
  2  3  1  0  0  0
  3  4  1  0  0  0
  4  5  1  0  0  0
  5  6  1  0  0  0
  5  7  1  0  0  0
  7 36  1  0  0  0
 36 37  1  0  0  0
  5  8  1  0  0  0
  8  9  1  0  0  0
  9 10  2  0  0  0
 10 11  1  0  0  0
 11 12  2  0  0  0
 12 13  1  0  0  0
 13 14  2  0  0  0
 14 15  1  0  0  0
 15 16  2  0  0  0
 16 17  1  0  0  0
 17 18  2  0  0  0
 17 19  1  0  0  0
 19 20  1  0  0  0
 20 21  1  0  0  0
 21 22  2  0  0  0
 22 23  1  0  0  0
 23 24  2  0  0  0
 24 25  1  0  0  0
 25 26  2  0  0  0
 26 27  1  0  0  0
 27 28  2  0  0  0
 28 29  1  0  0  0
 29 30  1  0  0  0
 30 31  2  0  0  0
  7  1  1  0  0  0
 31  8  1  0  0  0
 29  3  1  0  0  0
 14  9  1  0  0  0
 31 15  1  0  0  0
 21 16  1  0  0  0
 30 22  1  0  0  0
 28 23  1  0  0  0
 34 35  1  0  0  0
 19 32  1  0  0  0
M  END
> <minimizedAffinity>
33.74165

> <CNNscore>
0.4594696164

> <CNNaffinity>
7.0549902916

> <CNN_VS>
3.2415537834

> <CNNaffinity_variance>
0.8348701596

$$$$
[H]c1c([H])c([H])c2c(c1[H])c1c3c(c4c5c([H])c([H])c([H])c([H])c5n5c4c1n2[C@@]1(C([H])([H])[H])O[C@]5([H])C([H])([H])[C@@]([H])(N([H])C([H])([H])[H])[C@@]1([H])OC([H])([H])[H])C([H])([H])N([H])C3=O


 37 44  0  0  0  0  0  0  0  0999 V2000
   10.5388   24.7581    0.8158 C   0  0  0  0  0  0  0  0  0  0  0  0
   10.7039   25.3368   -0.5919 C   0  0  0  0  0  0  0  0  0  0  0  0
   12.0899   25.9593   -0.5723 C   0  0  0  0  0  0  0  0  0  0  0  0
   12.8953   25.4944    0.3960 O   0  0  0  0  0  0  0  0  0  0  0  0
   12.8961   24.1204    0.6647 C   0  0  0  0  0  0  0  0  0  0  0  0
   13.5949   24.0797    2.0349 C   0  0  0  0  0  0  0  0  0  0  0  0
   11.5259   23.5710    0.8352 C   0  0  0  0  0  0  0  0  0  0  0  0
   13.7145   23.3819   -0.3121 N   0  0  0  0  0  0  0  0  0  0  0  0
   14.3596   22.2285   -0.1123 C   0  0  0  0  0  0  0  0  0  0  0  0
   14.4087   21.3889    0.9623 C   0  0  0  0  0  0  0  0  0  0  0  0
   15.1436   20.2154    0.9462 C   0  0  0  0  0  0  0  0  0  0  0  0
   15.8509   19.8649   -0.1734 C   0  0  0  0  0  0  0  0  0  0  0  0
   15.8130   20.7019   -1.2739 C   0  0  0  0  0  0  0  0  0  0  0  0
   15.0905   21.8481   -1.2472 C   0  0  0  0  0  0  0  0  0  0  0  0
   14.8486   22.8529   -2.1812 C   0  0  0  0  0  0  0  0  0  0  0  0
   15.2833   23.0312   -3.4938 C   0  0  0  0  0  0  0  0  0  0  0  0
   16.1422   22.2944   -4.3880 C   0  0  0  0  0  0  0  0  0  0  0  0
   16.7738   21.2446   -4.2609 O   0  0  0  0  0  0  0  0  0  0  0  0
   16.1982   23.0197   -5.6399 N   0  0  0  0  0  0  0  0  0  0  0  0
   15.3931   24.1963   -5.5569 C   0  0  0  0  0  0  0  0  0  0  0  0
   14.8337   24.1593   -4.1706 C   0  0  0  0  0  0  0  0  0  0  0  0
   13.9897   25.0622   -3.5613 C   0  0  0  0  0  0  0  0  0  0  0  0
   13.3720   26.2312   -3.9692 C   0  0  0  0  0  0  0  0  0  0  0  0
   13.3872   26.9434   -5.1407 C   0  0  0  0  0  0  0  0  0  0  0  0
   12.6489   28.1079   -5.2591 C   0  0  0  0  0  0  0  0  0  0  0  0
   11.9014   28.5398   -4.1875 C   0  0  0  0  0  0  0  0  0  0  0  0
   11.8674   27.8423   -2.9949 C   0  0  0  0  0  0  0  0  0  0  0  0
   12.6182   26.6814   -2.9119 C   0  0  0  0  0  0  0  0  0  0  0  0
   12.7485   25.8425   -1.8797 N   0  0  0  0  0  0  0  0  0  0  0  0
   13.5745   24.8620   -2.2563 C   0  0  0  0  0  0  0  0  0  0  0  0
   14.0162   23.7500   -1.5763 C   0  0  0  0  0  0  0  0  0  0  0  0
   16.7334   22.7586   -6.4998 H   0  0  0  0  0  0  0  0  0  0  0  0
    8.9406   23.9923    2.4314 C   0  0  0  0  0  0  0  0  0  0  0  0
    9.2001   24.3187    1.0564 N   0  0  0  0  0  0  0  0  0  0  0  0
    9.0604   23.4220    0.5118 H   0  0  0  0  0  0  0  0  0  0  0  0
   11.0880   22.7011   -0.1290 O   0  0  0  0  0  0  0  0  0  0  0  0
   10.8326   21.4364    0.3913 C   0  0  0  0  0  0  0  0  0  0  0  0
 33 34  1  0  0  0
 34  1  1  0  0  0
  1  2  1  0  0  0
  2  3  1  0  0  0
  3  4  1  0  0  0
  4  5  1  0  0  0
  5  6  1  0  0  0
  5  7  1  0  0  0
  7 36  1  0  0  0
 36 37  1  0  0  0
  5  8  1  0  0  0
  8  9  1  0  0  0
  9 10  2  0  0  0
 10 11  1  0  0  0
 11 12  2  0  0  0
 12 13  1  0  0  0
 13 14  2  0  0  0
 14 15  1  0  0  0
 15 16  2  0  0  0
 16 17  1  0  0  0
 17 18  2  0  0  0
 17 19  1  0  0  0
 19 20  1  0  0  0
 20 21  1  0  0  0
 21 22  2  0  0  0
 22 23  1  0  0  0
 23 24  2  0  0  0
 24 25  1  0  0  0
 25 26  2  0  0  0
 26 27  1  0  0  0
 27 28  2  0  0  0
 28 29  1  0  0  0
 29 30  1  0  0  0
 30 31  2  0  0  0
  7  1  1  0  0  0
 31  8  1  0  0  0
 29  3  1  0  0  0
 14  9  1  0  0  0
 31 15  1  0  0  0
 21 16  1  0  0  0
 30 22  1  0  0  0
 28 23  1  0  0  0
 34 35  1  0  0  0
 19 32  1  0  0  0
M  END
> <minimizedAffinity>
24.59204

> <CNNscore>
0.4491555095

> <CNNaffinity>
6.9077262878

> <CNN_VS>
3.1026432514

> <CNNaffinity_variance>
0.6123462915

$$$$
[H]c1c([H])c([H])c2c(c1[H])c1c3c(c4c5c([H])c([H])c([H])c([H])c5n5c4c1n2[C@@]1(C([H])([H])[H])O[C@]5([H])C([H])([H])[C@@]([H])(N([H])C([H])([H])[H])[C@@]1([H])OC([H])([H])[H])C([H])([H])N([H])C3=O


 37 44  0  0  0  0  0  0  0  0999 V2000
   16.2011   26.6130   -4.6558 C   0  0  0  0  0  0  0  0  0  0  0  0
   15.4045   25.3382   -4.9450 C   0  0  0  0  0  0  0  0  0  0  0  0
   16.1616   24.2546   -4.1958 C   0  0  0  0  0  0  0  0  0  0  0  0
   16.9609   24.7090   -3.2175 O   0  0  0  0  0  0  0  0  0  0  0  0
   16.4901   25.7356   -2.3901 C   0  0  0  0  0  0  0  0  0  0  0  0
   17.7937   26.2111   -1.7252 C   0  0  0  0  0  0  0  0  0  0  0  0
   15.9282   26.8764   -3.1590 C   0  0  0  0  0  0  0  0  0  0  0  0
   15.5845   25.2165   -1.3512 N   0  0  0  0  0  0  0  0  0  0  0  0
   15.3683   25.7373   -0.1393 C   0  0  0  0  0  0  0  0  0  0  0  0
   15.8314   26.8737    0.4574 C   0  0  0  0  0  0  0  0  0  0  0  0
   15.4585   27.2352    1.7410 C   0  0  0  0  0  0  0  0  0  0  0  0
   14.5973   26.4430    2.4533 C   0  0  0  0  0  0  0  0  0  0  0  0
   14.1153   25.2873    1.8657 C   0  0  0  0  0  0  0  0  0  0  0  0
   14.4870   24.9431    0.6088 C   0  0  0  0  0  0  0  0  0  0  0  0
   14.1605   23.8820   -0.2327 C   0  0  0  0  0  0  0  0  0  0  0  0
   13.3236   22.7800   -0.0631 C   0  0  0  0  0  0  0  0  0  0  0  0
   12.4981   22.2876    1.0122 C   0  0  0  0  0  0  0  0  0  0  0  0
   12.2708   22.7070    2.1478 O   0  0  0  0  0  0  0  0  0  0  0  0
   11.8669   21.0665    0.5574 N   0  0  0  0  0  0  0  0  0  0  0  0
   12.2738   20.7777   -0.7808 C   0  0  0  0  0  0  0  0  0  0  0  0
   13.2023   21.8967   -1.1299 C   0  0  0  0  0  0  0  0  0  0  0  0
   13.8854   22.1094   -2.3076 C   0  0  0  0  0  0  0  0  0  0  0  0
   13.9497   21.4429   -3.5185 C   0  0  0  0  0  0  0  0  0  0  0  0
   13.3644   20.2978   -3.9938 C   0  0  0  0  0  0  0  0  0  0  0  0
   13.6231   19.8649   -5.2825 C   0  0  0  0  0  0  0  0  0  0  0  0
   14.4737   20.5977   -6.0780 C   0  0  0  0  0  0  0  0  0  0  0  0
   15.0777   21.7554   -5.6253 C   0  0  0  0  0  0  0  0  0  0  0  0
   14.7961   22.1590   -4.3307 C   0  0  0  0  0  0  0  0  0  0  0  0
   15.2505   23.2291   -3.6714 N   0  0  0  0  0  0  0  0  0  0  0  0
   14.7111   23.2110   -2.4490 C   0  0  0  0  0  0  0  0  0  0  0  0
   14.8406   24.0899   -1.3979 C   0  0  0  0  0  0  0  0  0  0  0  0
   11.2071   20.4570    1.0933 H   0  0  0  0  0  0  0  0  0  0  0  0
   15.8353   27.4529   -6.8721 C   0  0  0  0  0  0  0  0  0  0  0  0
   15.7607   27.7094   -5.4602 N   0  0  0  0  0  0  0  0  0  0  0  0
   16.4166   28.5191   -5.2753 H   0  0  0  0  0  0  0  0  0  0  0  0
   14.5776   27.0833   -3.0531 O   0  0  0  0  0  0  0  0  0  0  0  0
   13.8764   26.4673   -4.0846 C   0  0  0  0  0  0  0  0  0  0  0  0
 33 34  1  0  0  0
 34  1  1  0  0  0
  1  2  1  0  0  0
  2  3  1  0  0  0
  3  4  1  0  0  0
  4  5  1  0  0  0
  5  6  1  0  0  0
  5  7  1  0  0  0
  7 36  1  0  0  0
 36 37  1  0  0  0
  5  8  1  0  0  0
  8  9  1  0  0  0
  9 10  2  0  0  0
 10 11  1  0  0  0
 11 12  2  0  0  0
 12 13  1  0  0  0
 13 14  2  0  0  0
 14 15  1  0  0  0
 15 16  2  0  0  0
 16 17  1  0  0  0
 17 18  2  0  0  0
 17 19  1  0  0  0
 19 20  1  0  0  0
 20 21  1  0  0  0
 21 22  2  0  0  0
 22 23  1  0  0  0
 23 24  2  0  0  0
 24 25  1  0  0  0
 25 26  2  0  0  0
 26 27  1  0  0  0
 27 28  2  0  0  0
 28 29  1  0  0  0
 29 30  1  0  0  0
 30 31  2  0  0  0
  7  1  1  0  0  0
 31  8  1  0  0  0
 29  3  1  0  0  0
 14  9  1  0  0  0
 31 15  1  0  0  0
 21 16  1  0  0  0
 30 22  1  0  0  0
 28 23  1  0  0  0
 34 35  1  0  0  0
 19 32  1  0  0  0
M  END
> <minimizedAffinity>
20.71715

> <CNNscore>
0.4385127127

> <CNNaffinity>
7.4167203903

> <CNN_VS>
3.2523262501

> <CNNaffinity_variance>
0.9401893616

$$$$
[H]c1c([H])c([H])c2c(c1[H])c1c3c(c4c5c([H])c([H])c([H])c([H])c5n5c4c1n2[C@@]1(C([H])([H])[H])O[C@]5([H])C([H])([H])[C@@]([H])(N([H])C([H])([H])[H])[C@@]1([H])OC([H])([H])[H])C([H])([H])N([H])C3=O


 37 44  0  0  0  0  0  0  0  0999 V2000
   11.8212   27.4447   -4.4737 C   0  0  0  0  0  0  0  0  0  0  0  0
   11.5707   26.5529   -3.2550 C   0  0  0  0  0  0  0  0  0  0  0  0
   12.2709   25.2502   -3.6035 C   0  0  0  0  0  0  0  0  0  0  0  0
   13.2051   25.3594   -4.5614 O   0  0  0  0  0  0  0  0  0  0  0  0
   14.0627   26.4658   -4.5380 C   0  0  0  0  0  0  0  0  0  0  0  0
   14.6560   26.4198   -5.9570 C   0  0  0  0  0  0  0  0  0  0  0  0
   13.3323   27.7515   -4.3908 C   0  0  0  0  0  0  0  0  0  0  0  0
   15.1481   26.2843   -3.5593 N   0  0  0  0  0  0  0  0  0  0  0  0
   16.3728   26.8175   -3.6083 C   0  0  0  0  0  0  0  0  0  0  0  0
   16.9484   27.6936   -4.4819 C   0  0  0  0  0  0  0  0  0  0  0  0
   18.2527   28.1335   -4.3309 C   0  0  0  0  0  0  0  0  0  0  0  0
   19.0081   27.6895   -3.2779 C   0  0  0  0  0  0  0  0  0  0  0  0
   18.4426   26.8022   -2.3802 C   0  0  0  0  0  0  0  0  0  0  0  0
   17.1651   26.3782   -2.5376 C   0  0  0  0  0  0  0  0  0  0  0  0
   16.3380   25.5290   -1.8061 C   0  0  0  0  0  0  0  0  0  0  0  0
   16.5486   24.8011   -0.6359 C   0  0  0  0  0  0  0  0  0  0  0  0
   17.6659   24.6147    0.2569 C   0  0  0  0  0  0  0  0  0  0  0  0
   18.8146   25.0593    0.2588 O   0  0  0  0  0  0  0  0  0  0  0  0
   17.2411   23.7170    1.3104 N   0  0  0  0  0  0  0  0  0  0  0  0
   15.8808   23.3340    1.1042 C   0  0  0  0  0  0  0  0  0  0  0  0
   15.4858   24.0489   -0.1484 C   0  0  0  0  0  0  0  0  0  0  0  0
   14.2728   24.0289   -0.8019 C   0  0  0  0  0  0  0  0  0  0  0  0
   13.0569   23.4150   -0.5586 C   0  0  0  0  0  0  0  0  0  0  0  0
   12.6093   22.5721    0.4257 C   0  0  0  0  0  0  0  0  0  0  0  0
   11.3060   22.1073    0.4072 C   0  0  0  0  0  0  0  0  0  0  0  0
   10.4678   22.5017   -0.6103 C   0  0  0  0  0  0  0  0  0  0  0  0
   10.8918   23.3501   -1.6155 C   0  0  0  0  0  0  0  0  0  0  0  0
   12.2022   23.7959   -1.5652 C   0  0  0  0  0  0  0  0  0  0  0  0
   12.8403   24.6117   -2.4099 N   0  0  0  0  0  0  0  0  0  0  0  0
   14.0909   24.7598   -1.9630 C   0  0  0  0  0  0  0  0  0  0  0  0
   15.1375   25.5054   -2.4557 C   0  0  0  0  0  0  0  0  0  0  0  0
   17.8100   23.3748    2.1187 H   0  0  0  0  0  0  0  0  0  0  0  0
    9.8986   28.6275   -5.2832 C   0  0  0  0  0  0  0  0  0  0  0  0
   11.0483   28.6459   -4.4215 N   0  0  0  0  0  0  0  0  0  0  0  0
   11.6640   29.4320   -4.7725 H   0  0  0  0  0  0  0  0  0  0  0  0
   13.5147   28.4311   -3.2148 O   0  0  0  0  0  0  0  0  0  0  0  0
   13.2173   29.7837   -3.3462 C   0  0  0  0  0  0  0  0  0  0  0  0
 33 34  1  0  0  0
 34  1  1  0  0  0
  1  2  1  0  0  0
  2  3  1  0  0  0
  3  4  1  0  0  0
  4  5  1  0  0  0
  5  6  1  0  0  0
  5  7  1  0  0  0
  7 36  1  0  0  0
 36 37  1  0  0  0
  5  8  1  0  0  0
  8  9  1  0  0  0
  9 10  2  0  0  0
 10 11  1  0  0  0
 11 12  2  0  0  0
 12 13  1  0  0  0
 13 14  2  0  0  0
 14 15  1  0  0  0
 15 16  2  0  0  0
 16 17  1  0  0  0
 17 18  2  0  0  0
 17 19  1  0  0  0
 19 20  1  0  0  0
 20 21  1  0  0  0
 21 22  2  0  0  0
 22 23  1  0  0  0
 23 24  2  0  0  0
 24 25  1  0  0  0
 25 26  2  0  0  0
 26 27  1  0  0  0
 27 28  2  0  0  0
 28 29  1  0  0  0
 29 30  1  0  0  0
 30 31  2  0  0  0
  7  1  1  0  0  0
 31  8  1  0  0  0
 29  3  1  0  0  0
 14  9  1  0  0  0
 31 15  1  0  0  0
 21 16  1  0  0  0
 30 22  1  0  0  0
 28 23  1  0  0  0
 34 35  1  0  0  0
 19 32  1  0  0  0
M  END
> <minimizedAffinity>
24.51460

> <CNNscore>
0.4358334243

> <CNNaffinity>
7.2470197678

> <CNN_VS>
3.1584935188

> <CNNaffinity_variance>
1.0304183960

$$$$
[H]c1c([H])c([H])c2c(c1[H])c1c3c(c4c5c([H])c([H])c([H])c([H])c5n5c4c1n2[C@@]1(C([H])([H])[H])O[C@]5([H])C([H])([H])[C@@]([H])(N([H])C([H])([H])[H])[C@@]1([H])OC([H])([H])[H])C([H])([H])N([H])C3=O


 37 44  0  0  0  0  0  0  0  0999 V2000
   10.0408   22.6266    0.6902 C   0  0  0  0  0  0  0  0  0  0  0  0
   11.4537   22.3295    1.1991 C   0  0  0  0  0  0  0  0  0  0  0  0
   12.1519   21.7079    0.0013 C   0  0  0  0  0  0  0  0  0  0  0  0
   11.5724   21.9732   -1.1803 O   0  0  0  0  0  0  0  0  0  0  0  0
   11.1008   23.2696   -1.4192 C   0  0  0  0  0  0  0  0  0  0  0  0
   10.1926   23.0418   -2.6402 C   0  0  0  0  0  0  0  0  0  0  0  0
   10.2544   23.7827   -0.3108 C   0  0  0  0  0  0  0  0  0  0  0  0
   12.1954   24.1784   -1.7999 N   0  0  0  0  0  0  0  0  0  0  0  0
   12.1054   25.2684   -2.5683 C   0  0  0  0  0  0  0  0  0  0  0  0
   11.0357   25.8848   -3.1495 C   0  0  0  0  0  0  0  0  0  0  0  0
   11.1720   27.0357   -3.9075 C   0  0  0  0  0  0  0  0  0  0  0  0
   12.4102   27.5919   -4.0923 C   0  0  0  0  0  0  0  0  0  0  0  0
   13.5073   26.9831   -3.5101 C   0  0  0  0  0  0  0  0  0  0  0  0
   13.3623   25.8569   -2.7704 C   0  0  0  0  0  0  0  0  0  0  0  0
   14.2515   25.0523   -2.0616 C   0  0  0  0  0  0  0  0  0  0  0  0
   15.6305   25.1283   -1.8714 C   0  0  0  0  0  0  0  0  0  0  0  0
   16.6705   26.0194   -2.3238 C   0  0  0  0  0  0  0  0  0  0  0  0
   16.6564   27.0217   -3.0395 O   0  0  0  0  0  0  0  0  0  0  0  0
   17.9231   25.5489   -1.7707 N   0  0  0  0  0  0  0  0  0  0  0  0
   17.6975   24.3824   -0.9783 C   0  0  0  0  0  0  0  0  0  0  0  0
   16.2228   24.1542   -1.0756 C   0  0  0  0  0  0  0  0  0  0  0  0
   15.4691   23.1550   -0.4992 C   0  0  0  0  0  0  0  0  0  0  0  0
   15.7574   22.0897    0.3355 C   0  0  0  0  0  0  0  0  0  0  0  0
   16.9189   21.6167    0.8895 C   0  0  0  0  0  0  0  0  0  0  0  0
   16.8981   20.5007    1.7075 C   0  0  0  0  0  0  0  0  0  0  0  0
   15.6986   19.8740    1.9563 C   0  0  0  0  0  0  0  0  0  0  0  0
   14.5127   20.3286    1.4115 C   0  0  0  0  0  0  0  0  0  0  0  0
   14.5707   21.4479    0.5978 C   0  0  0  0  0  0  0  0  0  0  0  0
   13.5742   22.0713   -0.0382 N   0  0  0  0  0  0  0  0  0  0  0  0
   14.1016   23.1019   -0.7055 C   0  0  0  0  0  0  0  0  0  0  0  0
   13.5058   24.0596   -1.4941 C   0  0  0  0  0  0  0  0  0  0  0  0
   18.8720   25.9682   -1.9048 H   0  0  0  0  0  0  0  0  0  0  0  0
    8.9952   22.0083    2.7579 C   0  0  0  0  0  0  0  0  0  0  0  0
    9.1652   23.0181    1.7499 N   0  0  0  0  0  0  0  0  0  0  0  0
    8.2076   23.1724    1.3264 H   0  0  0  0  0  0  0  0  0  0  0  0
   10.7634   24.8244    0.4199 O   0  0  0  0  0  0  0  0  0  0  0  0
    9.9574   25.1352    1.5104 C   0  0  0  0  0  0  0  0  0  0  0  0
 33 34  1  0  0  0
 34  1  1  0  0  0
  1  2  1  0  0  0
  2  3  1  0  0  0
  3  4  1  0  0  0
  4  5  1  0  0  0
  5  6  1  0  0  0
  5  7  1  0  0  0
  7 36  1  0  0  0
 36 37  1  0  0  0
  5  8  1  0  0  0
  8  9  1  0  0  0
  9 10  2  0  0  0
 10 11  1  0  0  0
 11 12  2  0  0  0
 12 13  1  0  0  0
 13 14  2  0  0  0
 14 15  1  0  0  0
 15 16  2  0  0  0
 16 17  1  0  0  0
 17 18  2  0  0  0
 17 19  1  0  0  0
 19 20  1  0  0  0
 20 21  1  0  0  0
 21 22  2  0  0  0
 22 23  1  0  0  0
 23 24  2  0  0  0
 24 25  1  0  0  0
 25 26  2  0  0  0
 26 27  1  0  0  0
 27 28  2  0  0  0
 28 29  1  0  0  0
 29 30  1  0  0  0
 30 31  2  0  0  0
  7  1  1  0  0  0
 31  8  1  0  0  0
 29  3  1  0  0  0
 14  9  1  0  0  0
 31 15  1  0  0  0
 21 16  1  0  0  0
 30 22  1  0  0  0
 28 23  1  0  0  0
 34 35  1  0  0  0
 19 32  1  0  0  0
M  END
> <minimizedAffinity>
18.51367

> <CNNscore>
0.4299423397

> <CNNaffinity>
7.2206511497

> <CNN_VS>
3.1044635773

> <CNNaffinity_variance>
1.1080534458

$$$$
[H]c1c([H])c([H])c2c(c1[H])c1c3c(c4c5c([H])c([H])c([H])c([H])c5n5c4c1n2[C@@]1(C([H])([H])[H])O[C@]5([H])C([H])([H])[C@@]([H])(N([H])C([H])([H])[H])[C@@]1([H])OC([H])([H])[H])C([H])([H])N([H])C3=O


 37 44  0  0  0  0  0  0  0  0999 V2000
   13.3377   21.6885    1.9198 C   0  0  0  0  0  0  0  0  0  0  0  0
   12.3977   22.1139    0.7890 C   0  0  0  0  0  0  0  0  0  0  0  0
   12.3770   23.6305    0.8800 C   0  0  0  0  0  0  0  0  0  0  0  0
   13.4173   24.1627    1.5408 O   0  0  0  0  0  0  0  0  0  0  0  0
   14.6943   23.6337    1.3176 C   0  0  0  0  0  0  0  0  0  0  0  0
   15.4750   24.2124    2.5106 C   0  0  0  0  0  0  0  0  0  0  0  0
   14.7259   22.1521    1.4276 C   0  0  0  0  0  0  0  0  0  0  0  0
   15.2790   24.1488    0.0679 N   0  0  0  0  0  0  0  0  0  0  0  0
   16.5775   24.3019   -0.2094 C   0  0  0  0  0  0  0  0  0  0  0  0
   17.7011   23.9888    0.4987 C   0  0  0  0  0  0  0  0  0  0  0  0
   18.9726   24.2255    0.0039 C   0  0  0  0  0  0  0  0  0  0  0  0
   19.1321   24.7901   -1.2340 C   0  0  0  0  0  0  0  0  0  0  0  0
   18.0056   25.1135   -1.9684 C   0  0  0  0  0  0  0  0  0  0  0  0
   16.7660   24.8775   -1.4744 C   0  0  0  0  0  0  0  0  0  0  0  0
   15.4801   25.0694   -1.9747 C   0  0  0  0  0  0  0  0  0  0  0  0
   15.0166   25.5890   -3.1824 C   0  0  0  0  0  0  0  0  0  0  0  0
   15.6441   26.1391   -4.3588 C   0  0  0  0  0  0  0  0  0  0  0  0
   16.8227   26.3216   -4.6668 O   0  0  0  0  0  0  0  0  0  0  0  0
   14.5938   26.5129   -5.2826 N   0  0  0  0  0  0  0  0  0  0  0  0
   13.3179   26.2099   -4.7170 C   0  0  0  0  0  0  0  0  0  0  0  0
   13.6408   25.6254   -3.3790 C   0  0  0  0  0  0  0  0  0  0  0  0
   12.7741   25.1629   -2.4128 C   0  0  0  0  0  0  0  0  0  0  0  0
   11.3977   25.0490   -2.3272 C   0  0  0  0  0  0  0  0  0  0  0  0
   10.3724   25.3771   -3.1762 C   0  0  0  0  0  0  0  0  0  0  0  0
    9.0594   25.1389   -2.8096 C   0  0  0  0  0  0  0  0  0  0  0  0
    8.7980   24.5699   -1.5843 C   0  0  0  0  0  0  0  0  0  0  0  0
    9.8113   24.2292   -0.7086 C   0  0  0  0  0  0  0  0  0  0  0  0
   11.1132   24.4815   -1.1082 C   0  0  0  0  0  0  0  0  0  0  0  0
   12.2508   24.2454   -0.4476 N   0  0  0  0  0  0  0  0  0  0  0  0
   13.2608   24.6532   -1.2217 C   0  0  0  0  0  0  0  0  0  0  0  0
   14.6210   24.6154   -1.0157 C   0  0  0  0  0  0  0  0  0  0  0  0
   14.7065   26.9421   -6.2298 H   0  0  0  0  0  0  0  0  0  0  0  0
   12.4119   19.8653    3.1728 C   0  0  0  0  0  0  0  0  0  0  0  0
   13.3115   20.2749    2.1299 N   0  0  0  0  0  0  0  0  0  0  0  0
   14.2787   19.9859    2.4480 H   0  0  0  0  0  0  0  0  0  0  0  0
   14.9683   21.4549    0.2728 O   0  0  0  0  0  0  0  0  0  0  0  0
   15.9316   20.4681    0.4557 C   0  0  0  0  0  0  0  0  0  0  0  0
 33 34  1  0  0  0
 34  1  1  0  0  0
  1  2  1  0  0  0
  2  3  1  0  0  0
  3  4  1  0  0  0
  4  5  1  0  0  0
  5  6  1  0  0  0
  5  7  1  0  0  0
  7 36  1  0  0  0
 36 37  1  0  0  0
  5  8  1  0  0  0
  8  9  1  0  0  0
  9 10  2  0  0  0
 10 11  1  0  0  0
 11 12  2  0  0  0
 12 13  1  0  0  0
 13 14  2  0  0  0
 14 15  1  0  0  0
 15 16  2  0  0  0
 16 17  1  0  0  0
 17 18  2  0  0  0
 17 19  1  0  0  0
 19 20  1  0  0  0
 20 21  1  0  0  0
 21 22  2  0  0  0
 22 23  1  0  0  0
 23 24  2  0  0  0
 24 25  1  0  0  0
 25 26  2  0  0  0
 26 27  1  0  0  0
 27 28  2  0  0  0
 28 29  1  0  0  0
 29 30  1  0  0  0
 30 31  2  0  0  0
  7  1  1  0  0  0
 31  8  1  0  0  0
 29  3  1  0  0  0
 14  9  1  0  0  0
 31 15  1  0  0  0
 21 16  1  0  0  0
 30 22  1  0  0  0
 28 23  1  0  0  0
 34 35  1  0  0  0
 19 32  1  0  0  0
M  END
> <minimizedAffinity>
36.08551

> <CNNscore>
0.4275811017

> <CNNaffinity>
6.8324522972

> <CNN_VS>
2.9214274883

> <CNNaffinity_variance>
1.1245484352

$$$$
[H]/C(C(=O)N([H])C([H])([H])C(=O)OC([H])([H])C([H])([H])[H])=C(/[H])c1sc([H])c([H])c1-c1c([H])c([H])c([H])c([H])c1[H]


 23 24  0  0  0  0  0  0  0  0999 V2000
   15.3627   23.9910   -2.6191 C   0  0  0  0  0  0  0  0  0  0  0  0
   14.1591   23.9688   -2.0906 C   0  0  0  0  0  0  0  0  0  0  0  0
   13.8183   22.9114   -1.1134 C   0  0  0  0  0  0  0  0  0  0  0  0
   12.4466   21.8605   -1.1479 S   0  0  0  0  0  0  0  0  0  0  0  0
   12.7652   20.9578    0.2584 C   0  0  0  0  0  0  0  0  0  0  0  0
   13.9308   21.5018    0.7140 C   0  0  0  0  0  0  0  0  0  0  0  0
   14.4739   22.5039    0.0136 C   0  0  0  0  0  0  0  0  0  0  0  0
   15.7359   23.1919    0.4221 C   0  0  0  0  0  0  0  0  0  0  0  0
   15.8890   24.5517    0.3359 C   0  0  0  0  0  0  0  0  0  0  0  0
   17.0521   25.1947    0.7063 C   0  0  0  0  0  0  0  0  0  0  0  0
   18.0923   24.4166    1.1810 C   0  0  0  0  0  0  0  0  0  0  0  0
   17.9391   23.0618    1.2667 C   0  0  0  0  0  0  0  0  0  0  0  0
   16.7719   22.4336    0.8933 C   0  0  0  0  0  0  0  0  0  0  0  0
   15.6821   26.3455   -3.3120 N   0  0  0  0  0  0  0  0  0  0  0  0
   15.8277   24.9723   -3.5892 C   0  0  0  0  0  0  0  0  0  0  0  0
   16.3474   24.5320   -4.6487 O   0  0  0  0  0  0  0  0  0  0  0  0
   15.2599   26.7142   -2.4397 H   0  0  0  0  0  0  0  0  0  0  0  0
   16.1318   27.3191   -4.2677 C   0  0  0  0  0  0  0  0  0  0  0  0
   15.0768   27.6048   -5.2569 C   0  0  0  0  0  0  0  0  0  0  0  0
   15.3182   28.2422   -6.2991 O   0  0  0  0  0  0  0  0  0  0  0  0
   13.7974   27.1538   -5.0171 O   0  0  0  0  0  0  0  0  0  0  0  0
   12.4052   25.4502   -4.1375 C   0  0  0  0  0  0  0  0  0  0  0  0
   13.4986   26.4455   -3.8413 C   0  0  0  0  0  0  0  0  0  0  0  0
 22 23  1  0  0  0
 23 21  1  0  0  0
 21 19  1  0  0  0
 19 20  2  0  0  0
 19 18  1  0  0  0
 18 14  1  0  0  0
 14 15  1  0  0  0
 15 16  2  0  0  0
 15  1  1  0  0  0
  1  2  2  0  0  0
  2  3  1  0  0  0
  3  4  1  0  0  0
  4  5  1  0  0  0
  5  6  2  0  0  0
  6  7  1  0  0  0
  7  8  1  0  0  0
  8  9  2  0  0  0
  9 10  1  0  0  0
 10 11  2  0  0  0
 11 12  1  0  0  0
 12 13  2  0  0  0
  7  3  2  0  0  0
 13  8  1  0  0  0
 14 17  1  0  0  0
M  END
> <minimizedAffinity>
2.31989

> <CNNscore>
0.6261965036

> <CNNaffinity>
6.5914702415

> <CNN_VS>
4.1275558472

> <CNNaffinity_variance>
0.3346852660

$$$$
[H]/C(C(=O)N([H])C([H])([H])C(=O)OC([H])([H])C([H])([H])[H])=C(/[H])c1sc([H])c([H])c1-c1c([H])c([H])c([H])c([H])c1[H]


 23 24  0  0  0  0  0  0  0  0999 V2000
   12.1064   24.0258   -0.2367 C   0  0  0  0  0  0  0  0  0  0  0  0
   12.9746   24.0187   -1.2241 C   0  0  0  0  0  0  0  0  0  0  0  0
   14.3954   24.3171   -0.9392 C   0  0  0  0  0  0  0  0  0  0  0  0
   15.2749   23.9347    0.4987 S   0  0  0  0  0  0  0  0  0  0  0  0
   16.7907   24.5724    0.0633 C   0  0  0  0  0  0  0  0  0  0  0  0
   16.5674   25.0651   -1.1895 C   0  0  0  0  0  0  0  0  0  0  0  0
   15.3404   24.9364   -1.7071 C   0  0  0  0  0  0  0  0  0  0  0  0
   14.9695   25.4523   -3.0595 C   0  0  0  0  0  0  0  0  0  0  0  0
   13.9262   26.3212   -3.2505 C   0  0  0  0  0  0  0  0  0  0  0  0
   13.5738   26.7988   -4.4960 C   0  0  0  0  0  0  0  0  0  0  0  0
   14.3167   26.3707   -5.5812 C   0  0  0  0  0  0  0  0  0  0  0  0
   15.3561   25.5050   -5.3902 C   0  0  0  0  0  0  0  0  0  0  0  0
   15.6964   25.0365   -4.1408 C   0  0  0  0  0  0  0  0  0  0  0  0
    9.9938   23.1076    0.6685 N   0  0  0  0  0  0  0  0  0  0  0  0
   10.6835   23.7506   -0.3777 C   0  0  0  0  0  0  0  0  0  0  0  0
   10.1319   24.1100   -1.4514 O   0  0  0  0  0  0  0  0  0  0  0  0
   10.4410   22.8138    1.5567 H   0  0  0  0  0  0  0  0  0  0  0  0
    8.5916   22.8261    0.5333 C   0  0  0  0  0  0  0  0  0  0  0  0
    8.0240   22.3748    1.8167 C   0  0  0  0  0  0  0  0  0  0  0  0
    8.0500   21.1762    2.1535 O   0  0  0  0  0  0  0  0  0  0  0  0
    7.4536   23.3048    2.6579 O   0  0  0  0  0  0  0  0  0  0  0  0
    8.9997   24.6908    3.7993 C   0  0  0  0  0  0  0  0  0  0  0  0
    7.9533   24.6165    2.7161 C   0  0  0  0  0  0  0  0  0  0  0  0
 22 23  1  0  0  0
 23 21  1  0  0  0
 21 19  1  0  0  0
 19 20  2  0  0  0
 19 18  1  0  0  0
 18 14  1  0  0  0
 14 15  1  0  0  0
 15 16  2  0  0  0
 15  1  1  0  0  0
  1  2  2  0  0  0
  2  3  1  0  0  0
  3  4  1  0  0  0
  4  5  1  0  0  0
  5  6  2  0  0  0
  6  7  1  0  0  0
  7  8  1  0  0  0
  8  9  2  0  0  0
  9 10  1  0  0  0
 10 11  2  0  0  0
 11 12  1  0  0  0
 12 13  2  0  0  0
  7  3  2  0  0  0
 13  8  1  0  0  0
 14 17  1  0  0  0
M  END
> <minimizedAffinity>
-6.32301

> <CNNscore>
0.5711057782

> <CNNaffinity>
6.3840093613

> <CNN_VS>
3.6459445953

> <CNNaffinity_variance>
0.0664057881

$$$$
[H]/C(C(=O)N([H])C([H])([H])C(=O)OC([H])([H])C([H])([H])[H])=C(/[H])c1sc([H])c([H])c1-c1c([H])c([H])c([H])c([H])c1[H]


 23 24  0  0  0  0  0  0  0  0999 V2000
   14.9259   23.9562   -2.4120 C   0  0  0  0  0  0  0  0  0  0  0  0
   15.6816   24.3754   -3.4029 C   0  0  0  0  0  0  0  0  0  0  0  0
   16.2411   25.7443   -3.3560 C   0  0  0  0  0  0  0  0  0  0  0  0
   16.9817   26.5239   -2.0029 S   0  0  0  0  0  0  0  0  0  0  0  0
   17.3581   28.0167   -2.7268 C   0  0  0  0  0  0  0  0  0  0  0  0
   16.8954   27.8643   -4.0015 C   0  0  0  0  0  0  0  0  0  0  0  0
   16.3217   26.7007   -4.3281 C   0  0  0  0  0  0  0  0  0  0  0  0
   15.7605   26.4225   -5.6846 C   0  0  0  0  0  0  0  0  0  0  0  0
   14.4507   26.6763   -6.0009 C   0  0  0  0  0  0  0  0  0  0  0  0
   13.9229   26.4182   -7.2493 C   0  0  0  0  0  0  0  0  0  0  0  0
   14.7672   25.8823   -8.2046 C   0  0  0  0  0  0  0  0  0  0  0  0
   16.0721   25.6297   -7.8889 C   0  0  0  0  0  0  0  0  0  0  0  0
   16.5851   25.8925   -6.6383 C   0  0  0  0  0  0  0  0  0  0  0  0
   13.3998   22.3573   -1.2982 N   0  0  0  0  0  0  0  0  0  0  0  0
   14.3142   22.6373   -2.3323 C   0  0  0  0  0  0  0  0  0  0  0  0
   14.6419   21.7973   -3.2118 O   0  0  0  0  0  0  0  0  0  0  0  0
   13.1222   23.0459   -0.5743 H   0  0  0  0  0  0  0  0  0  0  0  0
   12.7982   21.0560   -1.2090 C   0  0  0  0  0  0  0  0  0  0  0  0
   12.1806   20.8565    0.1146 C   0  0  0  0  0  0  0  0  0  0  0  0
   12.8625   20.8541    1.1566 O   0  0  0  0  0  0  0  0  0  0  0  0
   10.8181   20.6690    0.1938 O   0  0  0  0  0  0  0  0  0  0  0  0
    8.7167   20.2337   -0.8106 C   0  0  0  0  0  0  0  0  0  0  0  0
    9.9816   21.0524   -0.8678 C   0  0  0  0  0  0  0  0  0  0  0  0
 22 23  1  0  0  0
 23 21  1  0  0  0
 21 19  1  0  0  0
 19 20  2  0  0  0
 19 18  1  0  0  0
 18 14  1  0  0  0
 14 15  1  0  0  0
 15 16  2  0  0  0
 15  1  1  0  0  0
  1  2  2  0  0  0
  2  3  1  0  0  0
  3  4  1  0  0  0
  4  5  1  0  0  0
  5  6  2  0  0  0
  6  7  1  0  0  0
  7  8  1  0  0  0
  8  9  2  0  0  0
  9 10  1  0  0  0
 10 11  2  0  0  0
 11 12  1  0  0  0
 12 13  2  0  0  0
  7  3  2  0  0  0
 13  8  1  0  0  0
 14 17  1  0  0  0
M  END
> <minimizedAffinity>
-2.80009

> <CNNscore>
0.5086671114

> <CNNaffinity>
6.0370020866

> <CNN_VS>
3.0708243847

> <CNNaffinity_variance>
0.1361635774

$$$$
[H]/C(C(=O)N([H])C([H])([H])C(=O)OC([H])([H])C([H])([H])[H])=C(/[H])c1sc([H])c([H])c1-c1c([H])c([H])c([H])c([H])c1[H]


 23 24  0  0  0  0  0  0  0  0999 V2000
   14.8301   21.5622   -1.0311 C   0  0  0  0  0  0  0  0  0  0  0  0
   14.7812   22.7157   -0.4020 C   0  0  0  0  0  0  0  0  0  0  0  0
   15.9906   23.5669   -0.3586 C   0  0  0  0  0  0  0  0  0  0  0  0
   16.9065   24.0095    1.0387 S   0  0  0  0  0  0  0  0  0  0  0  0
   18.1034   24.9555    0.2859 C   0  0  0  0  0  0  0  0  0  0  0  0
   17.7543   24.8993   -1.0321 C   0  0  0  0  0  0  0  0  0  0  0  0
   16.6714   24.1885   -1.3668 C   0  0  0  0  0  0  0  0  0  0  0  0
   16.1793   24.0685   -2.7725 C   0  0  0  0  0  0  0  0  0  0  0  0
   15.0337   24.6875   -3.2022 C   0  0  0  0  0  0  0  0  0  0  0  0
   14.5695   24.5783   -4.4969 C   0  0  0  0  0  0  0  0  0  0  0  0
   15.3051   23.8087   -5.3796 C   0  0  0  0  0  0  0  0  0  0  0  0
   16.4464   23.1923   -4.9508 C   0  0  0  0  0  0  0  0  0  0  0  0
   16.8978   23.3103   -3.6552 C   0  0  0  0  0  0  0  0  0  0  0  0
   12.5959   20.7788   -0.3096 N   0  0  0  0  0  0  0  0  0  0  0  0
   13.7169   20.6310   -1.1494 C   0  0  0  0  0  0  0  0  0  0  0  0
   13.8170   19.7222   -2.0157 O   0  0  0  0  0  0  0  0  0  0  0  0
   12.5053   21.5277    0.4018 H   0  0  0  0  0  0  0  0  0  0  0  0
   11.4973   19.8593   -0.4157 C   0  0  0  0  0  0  0  0  0  0  0  0
   10.2142   20.5529   -0.2022 C   0  0  0  0  0  0  0  0  0  0  0  0
    9.3252   20.5586   -1.0742 O   0  0  0  0  0  0  0  0  0  0  0  0
   10.0000   21.2076    0.9909 O   0  0  0  0  0  0  0  0  0  0  0  0
    7.8529   22.1076    1.4318 C   0  0  0  0  0  0  0  0  0  0  0  0
    8.8213   20.9892    1.7236 C   0  0  0  0  0  0  0  0  0  0  0  0
 22 23  1  0  0  0
 23 21  1  0  0  0
 21 19  1  0  0  0
 19 20  2  0  0  0
 19 18  1  0  0  0
 18 14  1  0  0  0
 14 15  1  0  0  0
 15 16  2  0  0  0
 15  1  1  0  0  0
  1  2  2  0  0  0
  2  3  1  0  0  0
  3  4  1  0  0  0
  4  5  1  0  0  0
  5  6  2  0  0  0
  6  7  1  0  0  0
  7  8  1  0  0  0
  8  9  2  0  0  0
  9 10  1  0  0  0
 10 11  2  0  0  0
 11 12  1  0  0  0
 12 13  2  0  0  0
  7  3  2  0  0  0
 13  8  1  0  0  0
 14 17  1  0  0  0
M  END
> <minimizedAffinity>
6.40996

> <CNNscore>
0.5020450354

> <CNNaffinity>
6.3241338730

> <CNN_VS>
3.1749999523

> <CNNaffinity_variance>
1.2618860006

$$$$
[H]/C(C(=O)N([H])C([H])([H])C(=O)OC([H])([H])C([H])([H])[H])=C(/[H])c1sc([H])c([H])c1-c1c([H])c([H])c([H])c([H])c1[H]


 23 24  0  0  0  0  0  0  0  0999 V2000
   11.3359   24.0842   -0.8586 C   0  0  0  0  0  0  0  0  0  0  0  0
   12.0973   25.1418   -1.0326 C   0  0  0  0  0  0  0  0  0  0  0  0
   13.1094   25.1339   -2.1119 C   0  0  0  0  0  0  0  0  0  0  0  0
   13.2574   26.2619   -3.4130 S   0  0  0  0  0  0  0  0  0  0  0  0
   14.6204   25.6007   -4.1871 C   0  0  0  0  0  0  0  0  0  0  0  0
   14.9202   24.5201   -3.4095 C   0  0  0  0  0  0  0  0  0  0  0  0
   14.1477   24.2771   -2.3445 C   0  0  0  0  0  0  0  0  0  0  0  0
   14.3641   23.1152   -1.4304 C   0  0  0  0  0  0  0  0  0  0  0  0
   14.0583   21.8295   -1.7960 C   0  0  0  0  0  0  0  0  0  0  0  0
   14.2504   20.7514   -0.9567 C   0  0  0  0  0  0  0  0  0  0  0  0
   14.7736   21.0008    0.2989 C   0  0  0  0  0  0  0  0  0  0  0  0
   15.0781   22.2820    0.6625 C   0  0  0  0  0  0  0  0  0  0  0  0
   14.8810   23.3486   -0.1859 C   0  0  0  0  0  0  0  0  0  0  0  0
    9.1243   23.2479   -0.1270 N   0  0  0  0  0  0  0  0  0  0  0  0
   10.3046   23.9600    0.1618 C   0  0  0  0  0  0  0  0  0  0  0  0
   10.5271   24.5079    1.2739 O   0  0  0  0  0  0  0  0  0  0  0  0
    8.9374   22.7904   -1.0386 H   0  0  0  0  0  0  0  0  0  0  0  0
    8.0994   23.1277    0.8724 C   0  0  0  0  0  0  0  0  0  0  0  0
    8.0079   21.7401    1.3614 C   0  0  0  0  0  0  0  0  0  0  0  0
    7.6639   21.4841    2.5305 O   0  0  0  0  0  0  0  0  0  0  0  0
    8.3110   20.7080    0.5008 O   0  0  0  0  0  0  0  0  0  0  0  0
    7.8734   19.8698   -1.6718 C   0  0  0  0  0  0  0  0  0  0  0  0
    7.3112   20.1258   -0.2962 C   0  0  0  0  0  0  0  0  0  0  0  0
 22 23  1  0  0  0
 23 21  1  0  0  0
 21 19  1  0  0  0
 19 20  2  0  0  0
 19 18  1  0  0  0
 18 14  1  0  0  0
 14 15  1  0  0  0
 15 16  2  0  0  0
 15  1  1  0  0  0
  1  2  2  0  0  0
  2  3  1  0  0  0
  3  4  1  0  0  0
  4  5  1  0  0  0
  5  6  2  0  0  0
  6  7  1  0  0  0
  7  8  1  0  0  0
  8  9  2  0  0  0
  9 10  1  0  0  0
 10 11  2  0  0  0
 11 12  1  0  0  0
 12 13  2  0  0  0
  7  3  2  0  0  0
 13  8  1  0  0  0
 14 17  1  0  0  0
M  END
> <minimizedAffinity>
-7.08397

> <CNNscore>
0.4752855897

> <CNNaffinity>
5.9512372017

> <CNN_VS>
2.8285372257

> <CNNaffinity_variance>
0.3259080350

$$$$
[H]/C(C(=O)N([H])C([H])([H])C(=O)OC([H])([H])C([H])([H])[H])=C(/[H])c1sc([H])c([H])c1-c1c([H])c([H])c([H])c([H])c1[H]


 23 24  0  0  0  0  0  0  0  0999 V2000
   15.4738   23.3320   -2.9680 C   0  0  0  0  0  0  0  0  0  0  0  0
   14.3032   22.9094   -2.5440 C   0  0  0  0  0  0  0  0  0  0  0  0
   14.2369   22.0545   -1.3382 C   0  0  0  0  0  0  0  0  0  0  0  0
   14.4889   20.3467   -1.2539 S   0  0  0  0  0  0  0  0  0  0  0  0
   14.2590   20.1241    0.4170 C   0  0  0  0  0  0  0  0  0  0  0  0
   13.9922   21.3868    0.8603 C   0  0  0  0  0  0  0  0  0  0  0  0
   13.9797   22.3795   -0.0365 C   0  0  0  0  0  0  0  0  0  0  0  0
   13.6818   23.7985    0.3243 C   0  0  0  0  0  0  0  0  0  0  0  0
   12.4010   24.2839    0.3887 C   0  0  0  0  0  0  0  0  0  0  0  0
   12.1170   25.5936    0.7163 C   0  0  0  0  0  0  0  0  0  0  0  0
   13.1824   26.4329    0.9871 C   0  0  0  0  0  0  0  0  0  0  0  0
   14.4582   25.9487    0.9228 C   0  0  0  0  0  0  0  0  0  0  0  0
   14.7266   24.6386    0.5943 C   0  0  0  0  0  0  0  0  0  0  0  0
   16.0770   25.5161   -3.9638 N   0  0  0  0  0  0  0  0  0  0  0  0
   15.6806   24.1756   -4.1366 C   0  0  0  0  0  0  0  0  0  0  0  0
   15.4901   23.6509   -5.2657 O   0  0  0  0  0  0  0  0  0  0  0  0
   16.2403   25.9524   -3.0375 H   0  0  0  0  0  0  0  0  0  0  0  0
   16.2756   26.3563   -5.1119 C   0  0  0  0  0  0  0  0  0  0  0  0
   15.5841   27.6468   -4.9397 C   0  0  0  0  0  0  0  0  0  0  0  0
   15.9612   28.6715   -5.5384 O   0  0  0  0  0  0  0  0  0  0  0  0
   14.4971   27.7140   -4.0960 O   0  0  0  0  0  0  0  0  0  0  0  0
   12.2675   26.9429   -3.8756 C   0  0  0  0  0  0  0  0  0  0  0  0
   13.7276   26.5690   -3.8302 C   0  0  0  0  0  0  0  0  0  0  0  0
 22 23  1  0  0  0
 23 21  1  0  0  0
 21 19  1  0  0  0
 19 20  2  0  0  0
 19 18  1  0  0  0
 18 14  1  0  0  0
 14 15  1  0  0  0
 15 16  2  0  0  0
 15  1  1  0  0  0
  1  2  2  0  0  0
  2  3  1  0  0  0
  3  4  1  0  0  0
  4  5  1  0  0  0
  5  6  2  0  0  0
  6  7  1  0  0  0
  7  8  1  0  0  0
  8  9  2  0  0  0
  9 10  1  0  0  0
 10 11  2  0  0  0
 11 12  1  0  0  0
 12 13  2  0  0  0
  7  3  2  0  0  0
 13  8  1  0  0  0
 14 17  1  0  0  0
M  END
> <minimizedAffinity>
-2.21518

> <CNNscore>
0.4516679049

> <CNNaffinity>
6.2340016365

> <CNN_VS>
2.8156983852

> <CNNaffinity_variance>
0.1472272724

$$$$
[H]/C(C(=O)N([H])C([H])([H])C(=O)OC([H])([H])C([H])([H])[H])=C(/[H])c1sc([H])c([H])c1-c1c([H])c([H])c([H])c([H])c1[H]


 23 24  0  0  0  0  0  0  0  0999 V2000
   12.6265   24.7938   -1.7816 C   0  0  0  0  0  0  0  0  0  0  0  0
   13.4404   24.4531   -2.7564 C   0  0  0  0  0  0  0  0  0  0  0  0
   14.4359   25.4339   -3.2426 C   0  0  0  0  0  0  0  0  0  0  0  0
   14.3281   26.4156   -4.6610 S   0  0  0  0  0  0  0  0  0  0  0  0
   15.8041   27.2499   -4.5222 C   0  0  0  0  0  0  0  0  0  0  0  0
   16.3381   26.7390   -3.3751 C   0  0  0  0  0  0  0  0  0  0  0  0
   15.6398   25.8073   -2.7161 C   0  0  0  0  0  0  0  0  0  0  0  0
   16.1283   25.1604   -1.4609 C   0  0  0  0  0  0  0  0  0  0  0  0
   17.4498   24.8531   -1.2624 C   0  0  0  0  0  0  0  0  0  0  0  0
   17.9089   24.2516   -0.1087 C   0  0  0  0  0  0  0  0  0  0  0  0
   16.9814   23.9559    0.8736 C   0  0  0  0  0  0  0  0  0  0  0  0
   15.6650   24.2624    0.6753 C   0  0  0  0  0  0  0  0  0  0  0  0
   15.2211   24.8630   -0.4817 C   0  0  0  0  0  0  0  0  0  0  0  0
   10.7967   24.4072   -0.1604 N   0  0  0  0  0  0  0  0  0  0  0  0
   11.6041   23.9285   -1.2106 C   0  0  0  0  0  0  0  0  0  0  0  0
   11.4927   22.7718   -1.6964 O   0  0  0  0  0  0  0  0  0  0  0  0
   10.8801   25.3599    0.2403 H   0  0  0  0  0  0  0  0  0  0  0  0
    9.7911   23.5566    0.4128 C   0  0  0  0  0  0  0  0  0  0  0  0
   10.2940   22.9057    1.6361 C   0  0  0  0  0  0  0  0  0  0  0  0
   10.8104   21.7729    1.6046 O   0  0  0  0  0  0  0  0  0  0  0  0
   10.1873   23.5706    2.8379 O   0  0  0  0  0  0  0  0  0  0  0  0
    8.9619   24.9257    4.3467 C   0  0  0  0  0  0  0  0  0  0  0  0
    9.4538   24.7653    2.9303 C   0  0  0  0  0  0  0  0  0  0  0  0
 22 23  1  0  0  0
 23 21  1  0  0  0
 21 19  1  0  0  0
 19 20  2  0  0  0
 19 18  1  0  0  0
 18 14  1  0  0  0
 14 15  1  0  0  0
 15 16  2  0  0  0
 15  1  1  0  0  0
  1  2  2  0  0  0
  2  3  1  0  0  0
  3  4  1  0  0  0
  4  5  1  0  0  0
  5  6  2  0  0  0
  6  7  1  0  0  0
  7  8  1  0  0  0
  8  9  2  0  0  0
  9 10  1  0  0  0
 10 11  2  0  0  0
 11 12  1  0  0  0
 12 13  2  0  0  0
  7  3  2  0  0  0
 13  8  1  0  0  0
 14 17  1  0  0  0
M  END
> <minimizedAffinity>
-4.53742

> <CNNscore>
0.3953641653

> <CNNaffinity>
6.3892369270

> <CNN_VS>
2.5260753632

> <CNNaffinity_variance>
0.1764656603

$$$$
[H]/C(C(=O)N([H])C([H])([H])C(=O)OC([H])([H])C([H])([H])[H])=C(/[H])c1sc([H])c([H])c1-c1c([H])c([H])c([H])c([H])c1[H]


 23 24  0  0  0  0  0  0  0  0999 V2000
   12.5581   25.5585   -2.0688 C   0  0  0  0  0  0  0  0  0  0  0  0
   11.9488   24.3974   -1.9721 C   0  0  0  0  0  0  0  0  0  0  0  0
   11.4109   23.9704   -0.6616 C   0  0  0  0  0  0  0  0  0  0  0  0
    9.7483   23.8291   -0.2111 S   0  0  0  0  0  0  0  0  0  0  0  0
    9.9494   23.2921    1.3906 C   0  0  0  0  0  0  0  0  0  0  0  0
   11.3061   23.2389    1.5277 C   0  0  0  0  0  0  0  0  0  0  0  0
   12.0591   23.5862    0.4779 C   0  0  0  0  0  0  0  0  0  0  0  0
   13.5528   23.5871    0.5126 C   0  0  0  0  0  0  0  0  0  0  0  0
   14.2810   24.7406    0.6513 C   0  0  0  0  0  0  0  0  0  0  0  0
   15.6604   24.7511    0.6796 C   0  0  0  0  0  0  0  0  0  0  0  0
   16.3140   23.5381    0.5619 C   0  0  0  0  0  0  0  0  0  0  0  0
   15.5879   22.3892    0.4238 C   0  0  0  0  0  0  0  0  0  0  0  0
   14.2111   22.3939    0.3972 C   0  0  0  0  0  0  0  0  0  0  0  0
   14.2419   25.4597   -3.8801 N   0  0  0  0  0  0  0  0  0  0  0  0
   13.1316   26.0978   -3.2936 C   0  0  0  0  0  0  0  0  0  0  0  0
   12.5929   27.1295   -3.7752 O   0  0  0  0  0  0  0  0  0  0  0  0
   14.6866   24.6075   -3.4915 H   0  0  0  0  0  0  0  0  0  0  0  0
   14.8176   25.9907   -5.0844 C   0  0  0  0  0  0  0  0  0  0  0  0
   15.6941   27.1367   -4.7823 C   0  0  0  0  0  0  0  0  0  0  0  0
   15.6044   28.2075   -5.4115 O   0  0  0  0  0  0  0  0  0  0  0  0
   16.6315   27.0139   -3.7802 O   0  0  0  0  0  0  0  0  0  0  0  0
   18.6687   28.2110   -3.9559 C   0  0  0  0  0  0  0  0  0  0  0  0
   17.3136   28.1435   -3.2981 C   0  0  0  0  0  0  0  0  0  0  0  0
 22 23  1  0  0  0
 23 21  1  0  0  0
 21 19  1  0  0  0
 19 20  2  0  0  0
 19 18  1  0  0  0
 18 14  1  0  0  0
 14 15  1  0  0  0
 15 16  2  0  0  0
 15  1  1  0  0  0
  1  2  2  0  0  0
  2  3  1  0  0  0
  3  4  1  0  0  0
  4  5  1  0  0  0
  5  6  2  0  0  0
  6  7  1  0  0  0
  7  8  1  0  0  0
  8  9  2  0  0  0
  9 10  1  0  0  0
 10 11  2  0  0  0
 11 12  1  0  0  0
 12 13  2  0  0  0
  7  3  2  0  0  0
 13  8  1  0  0  0
 14 17  1  0  0  0
M  END
> <minimizedAffinity>
-5.84057

> <CNNscore>
0.3555685878

> <CNNaffinity>
6.2744698524

> <CNN_VS>
2.2310044765

> <CNNaffinity_variance>
0.2913057804

$$$$
[H]/C(C(=O)N([H])C([H])([H])C(=O)OC([H])([H])C([H])([H])[H])=C(/[H])c1sc([H])c([H])c1-c1c([H])c([H])c([H])c([H])c1[H]


 23 24  0  0  0  0  0  0  0  0999 V2000
   11.3744   24.1337   -0.7985 C   0  0  0  0  0  0  0  0  0  0  0  0
   12.1506   25.1732   -1.0117 C   0  0  0  0  0  0  0  0  0  0  0  0
   13.1343   25.1261   -2.1159 C   0  0  0  0  0  0  0  0  0  0  0  0
   13.2791   26.2352   -3.4336 S   0  0  0  0  0  0  0  0  0  0  0  0
   14.6038   25.5290   -4.2339 C   0  0  0  0  0  0  0  0  0  0  0  0
   14.8944   24.4495   -3.4514 C   0  0  0  0  0  0  0  0  0  0  0  0
   14.1431   24.2392   -2.3645 C   0  0  0  0  0  0  0  0  0  0  0  0
   14.3517   23.0820   -1.4426 C   0  0  0  0  0  0  0  0  0  0  0  0
   14.0026   21.8011   -1.7851 C   0  0  0  0  0  0  0  0  0  0  0  0
   14.1872   20.7276   -0.9384 C   0  0  0  0  0  0  0  0  0  0  0  0
   14.7487   20.9767    0.3007 C   0  0  0  0  0  0  0  0  0  0  0  0
   15.0964   22.2532    0.6414 C   0  0  0  0  0  0  0  0  0  0  0  0
   14.9062   23.3152   -0.2143 C   0  0  0  0  0  0  0  0  0  0  0  0
    9.2316   23.2379    0.0572 N   0  0  0  0  0  0  0  0  0  0  0  0
   10.3675   24.0481    0.2499 C   0  0  0  0  0  0  0  0  0  0  0  0
   10.5697   24.7176    1.2975 O   0  0  0  0  0  0  0  0  0  0  0  0
    9.0619   22.6805   -0.8005 H   0  0  0  0  0  0  0  0  0  0  0  0
    8.2306   23.1546    1.0841 C   0  0  0  0  0  0  0  0  0  0  0  0
    8.4837   22.0014    1.9668 C   0  0  0  0  0  0  0  0  0  0  0  0
    7.9018   20.9135    1.7983 O   0  0  0  0  0  0  0  0  0  0  0  0
    9.3853   22.1369    2.9996 O   0  0  0  0  0  0  0  0  0  0  0  0
   11.6399   21.5668    2.5456 C   0  0  0  0  0  0  0  0  0  0  0  0
   10.3613   21.1528    3.2293 C   0  0  0  0  0  0  0  0  0  0  0  0
 22 23  1  0  0  0
 23 21  1  0  0  0
 21 19  1  0  0  0
 19 20  2  0  0  0
 19 18  1  0  0  0
 18 14  1  0  0  0
 14 15  1  0  0  0
 15 16  2  0  0  0
 15  1  1  0  0  0
  1  2  2  0  0  0
  2  3  1  0  0  0
  3  4  1  0  0  0
  4  5  1  0  0  0
  5  6  2  0  0  0
  6  7  1  0  0  0
  7  8  1  0  0  0
  8  9  2  0  0  0
  9 10  1  0  0  0
 10 11  2  0  0  0
 11 12  1  0  0  0
 12 13  2  0  0  0
  7  3  2  0  0  0
 13  8  1  0  0  0
 14 17  1  0  0  0
M  END
> <minimizedAffinity>
-7.04731

> <CNNscore>
0.3457038105

> <CNNaffinity>
5.6334214211

> <CNN_VS>
1.9474952221

> <CNNaffinity_variance>
0.6025800109

$$$$
[H]c1nc(N2C([H])([H])C([H])([H])N(C([H])([H])[H])C([H])([H])C2([H])[H])c([H])c([H])c1-c1c([H])nc2c(c1[H])c([H])c([H])n2[H]


 23 26  0  0  0  0  0  0  0  0999 V2000
   13.9845   23.3297   -1.6541 C   0  0  0  0  0  0  0  0  0  0  0  0
   13.7753   23.7909   -2.9335 C   0  0  0  0  0  0  0  0  0  0  0  0
   14.5686   24.8165   -3.4636 C   0  0  0  0  0  0  0  0  0  0  0  0
   15.5719   25.3747   -2.7007 C   0  0  0  0  0  0  0  0  0  0  0  0
   15.7483   24.8782   -1.4126 C   0  0  0  0  0  0  0  0  0  0  0  0
   14.9573   23.8831   -0.9378 N   0  0  0  0  0  0  0  0  0  0  0  0
   16.4328   26.4571   -3.2168 C   0  0  0  0  0  0  0  0  0  0  0  0
   15.9610   27.2732   -4.1972 C   0  0  0  0  0  0  0  0  0  0  0  0
   16.7548   28.2595   -4.6621 N   0  0  0  0  0  0  0  0  0  0  0  0
   17.9916   28.4292   -4.1617 C   0  0  0  0  0  0  0  0  0  0  0  0
   18.9596   29.3161   -4.4456 N   0  0  0  0  0  0  0  0  0  0  0  0
   20.0466   29.0914   -3.6709 C   0  0  0  0  0  0  0  0  0  0  0  0
   19.7645   28.0153   -2.8554 C   0  0  0  0  0  0  0  0  0  0  0  0
   18.4981   27.6064   -3.1571 C   0  0  0  0  0  0  0  0  0  0  0  0
   17.6989   26.6010   -2.6778 C   0  0  0  0  0  0  0  0  0  0  0  0
   18.8883   30.0698   -5.1589 H   0  0  0  0  0  0  0  0  0  0  0  0
   11.7201   20.6639    1.8621 C   0  0  0  0  0  0  0  0  0  0  0  0
   11.5492   20.5669    0.4263 N   0  0  0  0  0  0  0  0  0  0  0  0
   12.7728   20.1297   -0.1974 C   0  0  0  0  0  0  0  0  0  0  0  0
   13.7497   21.3064   -0.2080 C   0  0  0  0  0  0  0  0  0  0  0  0
   13.1818   22.2916   -1.1163 N   0  0  0  0  0  0  0  0  0  0  0  0
   11.7744   22.1507   -1.4312 C   0  0  0  0  0  0  0  0  0  0  0  0
   11.0574   21.7966   -0.1370 C   0  0  0  0  0  0  0  0  0  0  0  0
 17 18  1  0  0  0
 18 19  1  0  0  0
 19 20  1  0  0  0
 20 21  1  0  0  0
 21 22  1  0  0  0
 22 23  1  0  0  0
 21  1  1  0  0  0
  1  2  2  0  0  0
  2  3  1  0  0  0
  3  4  2  0  0  0
  4  5  1  0  0  0
  5  6  2  0  0  0
  4  7  1  0  0  0
  7  8  2  0  0  0
  8  9  1  0  0  0
  9 10  2  0  0  0
 10 11  1  0  0  0
 11 12  1  0  0  0
 12 13  2  0  0  0
 13 14  1  0  0  0
 14 15  2  0  0  0
 23 18  1  0  0  0
  6  1  1  0  0  0
 15  7  1  0  0  0
 14 10  1  0  0  0
 11 16  1  0  0  0
M  END
> <minimizedAffinity>
4.31014

> <CNNscore>
0.6047567725

> <CNNaffinity>
6.8581800461

> <CNN_VS>
4.1475310326

> <CNNaffinity_variance>
1.0449719429

$$$$
[H]c1nc(N2C([H])([H])C([H])([H])N(C([H])([H])[H])C([H])([H])C2([H])[H])c([H])c([H])c1-c1c([H])nc2c(c1[H])c([H])c([H])n2[H]


 23 26  0  0  0  0  0  0  0  0999 V2000
   11.5701   23.1223   -0.9888 C   0  0  0  0  0  0  0  0  0  0  0  0
   11.1926   24.4315   -1.1806 C   0  0  0  0  0  0  0  0  0  0  0  0
   12.0249   25.3232   -1.8693 C   0  0  0  0  0  0  0  0  0  0  0  0
   13.2372   24.8912   -2.3632 C   0  0  0  0  0  0  0  0  0  0  0  0
   13.5790   23.5597   -2.1463 C   0  0  0  0  0  0  0  0  0  0  0  0
   12.7430   22.7290   -1.4738 N   0  0  0  0  0  0  0  0  0  0  0  0
   14.1470   25.7944   -3.0951 C   0  0  0  0  0  0  0  0  0  0  0  0
   13.7265   26.3665   -4.2551 C   0  0  0  0  0  0  0  0  0  0  0  0
   14.5646   27.1906   -4.9165 N   0  0  0  0  0  0  0  0  0  0  0  0
   15.7948   27.4395   -4.4332 C   0  0  0  0  0  0  0  0  0  0  0  0
   16.7994   28.2052   -4.8898 N   0  0  0  0  0  0  0  0  0  0  0  0
   17.8599   28.1408   -4.0511 C   0  0  0  0  0  0  0  0  0  0  0  0
   17.5218   27.2986   -3.0125 C   0  0  0  0  0  0  0  0  0  0  0  0
   16.2492   26.8657   -3.2469 C   0  0  0  0  0  0  0  0  0  0  0  0
   15.4046   26.0267   -2.5672 C   0  0  0  0  0  0  0  0  0  0  0  0
   16.7708   28.7690   -5.7635 H   0  0  0  0  0  0  0  0  0  0  0  0
    7.3047   21.1883    0.6432 C   0  0  0  0  0  0  0  0  0  0  0  0
    8.6333   20.6180    0.7420 N   0  0  0  0  0  0  0  0  0  0  0  0
    9.4718   21.4387    1.5789 C   0  0  0  0  0  0  0  0  0  0  0  0
    9.8656   22.6847    0.7842 C   0  0  0  0  0  0  0  0  0  0  0  0
   10.7283   22.2188   -0.2914 N   0  0  0  0  0  0  0  0  0  0  0  0
   10.6758   20.8042   -0.6009 C   0  0  0  0  0  0  0  0  0  0  0  0
    9.2133   20.3879   -0.5551 C   0  0  0  0  0  0  0  0  0  0  0  0
 17 18  1  0  0  0
 18 19  1  0  0  0
 19 20  1  0  0  0
 20 21  1  0  0  0
 21 22  1  0  0  0
 22 23  1  0  0  0
 21  1  1  0  0  0
  1  2  2  0  0  0
  2  3  1  0  0  0
  3  4  2  0  0  0
  4  5  1  0  0  0
  5  6  2  0  0  0
  4  7  1  0  0  0
  7  8  2  0  0  0
  8  9  1  0  0  0
  9 10  2  0  0  0
 10 11  1  0  0  0
 11 12  1  0  0  0
 12 13  2  0  0  0
 13 14  1  0  0  0
 14 15  2  0  0  0
 23 18  1  0  0  0
  6  1  1  0  0  0
 15  7  1  0  0  0
 14 10  1  0  0  0
 11 16  1  0  0  0
M  END
> <minimizedAffinity>
-8.62517

> <CNNscore>
0.4841444492

> <CNNaffinity>
6.5501275063

> <CNN_VS>
3.1712079048

> <CNNaffinity_variance>
0.2334630787

$$$$
[H]c1nc(N2C([H])([H])C([H])([H])N(C([H])([H])[H])C([H])([H])C2([H])[H])c([H])c([H])c1-c1c([H])nc2c(c1[H])c([H])c([H])n2[H]


 23 26  0  0  0  0  0  0  0  0999 V2000
   15.2884   22.7904   -1.3263 C   0  0  0  0  0  0  0  0  0  0  0  0
   16.2156   23.7709   -1.5948 C   0  0  0  0  0  0  0  0  0  0  0  0
   16.1323   24.5335   -2.7668 C   0  0  0  0  0  0  0  0  0  0  0  0
   15.1126   24.3047   -3.6658 C   0  0  0  0  0  0  0  0  0  0  0  0
   14.1974   23.3037   -3.3544 C   0  0  0  0  0  0  0  0  0  0  0  0
   14.3147   22.5880   -2.2075 N   0  0  0  0  0  0  0  0  0  0  0  0
   14.9845   25.0831   -4.9134 C   0  0  0  0  0  0  0  0  0  0  0  0
   14.1586   26.1633   -4.9427 C   0  0  0  0  0  0  0  0  0  0  0  0
   14.0483   26.8685   -6.0870 N   0  0  0  0  0  0  0  0  0  0  0  0
   14.7453   26.5058   -7.1786 C   0  0  0  0  0  0  0  0  0  0  0  0
   14.8117   27.0280   -8.4143 N   0  0  0  0  0  0  0  0  0  0  0  0
   15.6618   26.3095   -9.1846 C   0  0  0  0  0  0  0  0  0  0  0  0
   16.1623   25.2832   -8.4109 C   0  0  0  0  0  0  0  0  0  0  0  0
   15.5980   25.4032   -7.1742 C   0  0  0  0  0  0  0  0  0  0  0  0
   15.7170   24.6800   -6.0158 C   0  0  0  0  0  0  0  0  0  0  0  0
   14.2860   27.8653   -8.7377 H   0  0  0  0  0  0  0  0  0  0  0  0
   16.2042   21.8504    3.4565 C   0  0  0  0  0  0  0  0  0  0  0  0
   15.5385   20.9943    2.4951 N   0  0  0  0  0  0  0  0  0  0  0  0
   16.4519   20.6065    1.4499 C   0  0  0  0  0  0  0  0  0  0  0  0
   16.6509   21.8053    0.5212 C   0  0  0  0  0  0  0  0  0  0  0  0
   15.3719   22.0175   -0.1402 N   0  0  0  0  0  0  0  0  0  0  0  0
   14.2121   21.4038    0.4746 C   0  0  0  0  0  0  0  0  0  0  0  0
   14.3415   21.6031    1.9772 C   0  0  0  0  0  0  0  0  0  0  0  0
 17 18  1  0  0  0
 18 19  1  0  0  0
 19 20  1  0  0  0
 20 21  1  0  0  0
 21 22  1  0  0  0
 22 23  1  0  0  0
 21  1  1  0  0  0
  1  2  2  0  0  0
  2  3  1  0  0  0
  3  4  2  0  0  0
  4  5  1  0  0  0
  5  6  2  0  0  0
  4  7  1  0  0  0
  7  8  2  0  0  0
  8  9  1  0  0  0
  9 10  2  0  0  0
 10 11  1  0  0  0
 11 12  1  0  0  0
 12 13  2  0  0  0
 13 14  1  0  0  0
 14 15  2  0  0  0
 23 18  1  0  0  0
  6  1  1  0  0  0
 15  7  1  0  0  0
 14 10  1  0  0  0
 11 16  1  0  0  0
M  END
> <minimizedAffinity>
26.72798

> <CNNscore>
0.4699428678

> <CNNaffinity>
6.2222151756

> <CNN_VS>
2.9240856171

> <CNNaffinity_variance>
0.9556574821

$$$$
[H]c1nc(N2C([H])([H])C([H])([H])N(C([H])([H])[H])C([H])([H])C2([H])[H])c([H])c([H])c1-c1c([H])nc2c(c1[H])c([H])c([H])n2[H]


 23 26  0  0  0  0  0  0  0  0999 V2000
   13.6396   24.5356   -2.1301 C   0  0  0  0  0  0  0  0  0  0  0  0
   12.5150   25.0409   -1.5192 C   0  0  0  0  0  0  0  0  0  0  0  0
   11.9074   26.2109   -1.9925 C   0  0  0  0  0  0  0  0  0  0  0  0
   12.4366   26.8687   -3.0822 C   0  0  0  0  0  0  0  0  0  0  0  0
   13.5743   26.3229   -3.6691 C   0  0  0  0  0  0  0  0  0  0  0  0
   14.1315   25.1870   -3.1787 N   0  0  0  0  0  0  0  0  0  0  0  0
   11.8307   28.1044   -3.6163 C   0  0  0  0  0  0  0  0  0  0  0  0
   12.4087   29.3037   -3.3383 C   0  0  0  0  0  0  0  0  0  0  0  0
   11.8481   30.4270   -3.8310 N   0  0  0  0  0  0  0  0  0  0  0  0
   10.7358   30.3576   -4.5839 C   0  0  0  0  0  0  0  0  0  0  0  0
    9.9969   31.3069   -5.1813 N   0  0  0  0  0  0  0  0  0  0  0  0
    8.9540   30.7482   -5.8390 C   0  0  0  0  0  0  0  0  0  0  0  0
    9.0266   29.3831   -5.6562 C   0  0  0  0  0  0  0  0  0  0  0  0
   10.1245   29.1411   -4.8828 C   0  0  0  0  0  0  0  0  0  0  0  0
   10.6868   27.9935   -4.3868 C   0  0  0  0  0  0  0  0  0  0  0  0
   10.1943   32.3276   -5.1458 H   0  0  0  0  0  0  0  0  0  0  0  0
   14.1527   20.4537    0.6398 C   0  0  0  0  0  0  0  0  0  0  0  0
   14.9499   20.8587   -0.5007 N   0  0  0  0  0  0  0  0  0  0  0  0
   15.6628   22.0768   -0.2089 C   0  0  0  0  0  0  0  0  0  0  0  0
   14.6668   23.2364   -0.2601 C   0  0  0  0  0  0  0  0  0  0  0  0
   14.2557   23.3513   -1.6515 N   0  0  0  0  0  0  0  0  0  0  0  0
   14.5085   22.2051   -2.5012 C   0  0  0  0  0  0  0  0  0  0  0  0
   14.1562   20.9628   -1.6968 C   0  0  0  0  0  0  0  0  0  0  0  0
 17 18  1  0  0  0
 18 19  1  0  0  0
 19 20  1  0  0  0
 20 21  1  0  0  0
 21 22  1  0  0  0
 22 23  1  0  0  0
 21  1  1  0  0  0
  1  2  2  0  0  0
  2  3  1  0  0  0
  3  4  2  0  0  0
  4  5  1  0  0  0
  5  6  2  0  0  0
  4  7  1  0  0  0
  7  8  2  0  0  0
  8  9  1  0  0  0
  9 10  2  0  0  0
 10 11  1  0  0  0
 11 12  1  0  0  0
 12 13  2  0  0  0
 13 14  1  0  0  0
 14 15  2  0  0  0
 23 18  1  0  0  0
  6  1  1  0  0  0
 15  7  1  0  0  0
 14 10  1  0  0  0
 11 16  1  0  0  0
M  END
> <minimizedAffinity>
19.10316

> <CNNscore>
0.4624150693

> <CNNaffinity>
5.9951696396

> <CNN_VS>
2.7722568512

> <CNNaffinity_variance>
0.9330037832

$$$$
[H]c1nc(N2C([H])([H])C([H])([H])N(C([H])([H])[H])C([H])([H])C2([H])[H])c([H])c([H])c1-c1c([H])nc2c(c1[H])c([H])c([H])n2[H]


 23 26  0  0  0  0  0  0  0  0999 V2000
   11.4714   23.5429   -0.3743 C   0  0  0  0  0  0  0  0  0  0  0  0
   10.9440   24.5090   -1.1999 C   0  0  0  0  0  0  0  0  0  0  0  0
   11.7716   25.2555   -2.0484 C   0  0  0  0  0  0  0  0  0  0  0  0
   13.1306   25.0250   -2.0617 C   0  0  0  0  0  0  0  0  0  0  0  0
   13.6210   24.0390   -1.2108 C   0  0  0  0  0  0  0  0  0  0  0  0
   12.7840   23.3386   -0.4045 N   0  0  0  0  0  0  0  0  0  0  0  0
   14.0415   25.7865   -2.9389 C   0  0  0  0  0  0  0  0  0  0  0  0
   13.6457   26.0953   -4.2028 C   0  0  0  0  0  0  0  0  0  0  0  0
   14.4847   26.7917   -4.9967 N   0  0  0  0  0  0  0  0  0  0  0  0
   15.6918   27.1721   -4.5417 C   0  0  0  0  0  0  0  0  0  0  0  0
   16.6918   27.8584   -5.1187 N   0  0  0  0  0  0  0  0  0  0  0  0
   17.7254   28.0001   -4.2561 C   0  0  0  0  0  0  0  0  0  0  0  0
   17.3740   27.3787   -3.0759 C   0  0  0  0  0  0  0  0  0  0  0  0
   16.1208   26.8680   -3.2508 C   0  0  0  0  0  0  0  0  0  0  0  0
   15.2751   26.1606   -2.4361 C   0  0  0  0  0  0  0  0  0  0  0  0
   16.6782   28.2300   -6.0902 H   0  0  0  0  0  0  0  0  0  0  0  0
    8.1185   22.7437    3.1918 C   0  0  0  0  0  0  0  0  0  0  0  0
    8.6719   21.7801    2.2615 N   0  0  0  0  0  0  0  0  0  0  0  0
   10.0856   21.6162    2.4889 C   0  0  0  0  0  0  0  0  0  0  0  0
   10.8044   22.8449    1.9297 C   0  0  0  0  0  0  0  0  0  0  0  0
   10.6345   22.7867    0.4853 N   0  0  0  0  0  0  0  0  0  0  0  0
    9.5790   21.9269   -0.0112 C   0  0  0  0  0  0  0  0  0  0  0  0
    8.3740   22.1244    0.8961 C   0  0  0  0  0  0  0  0  0  0  0  0
 17 18  1  0  0  0
 18 19  1  0  0  0
 19 20  1  0  0  0
 20 21  1  0  0  0
 21 22  1  0  0  0
 22 23  1  0  0  0
 21  1  1  0  0  0
  1  2  2  0  0  0
  2  3  1  0  0  0
  3  4  2  0  0  0
  4  5  1  0  0  0
  5  6  2  0  0  0
  4  7  1  0  0  0
  7  8  2  0  0  0
  8  9  1  0  0  0
  9 10  2  0  0  0
 10 11  1  0  0  0
 11 12  1  0  0  0
 12 13  2  0  0  0
 13 14  1  0  0  0
 14 15  2  0  0  0
 23 18  1  0  0  0
  6  1  1  0  0  0
 15  7  1  0  0  0
 14 10  1  0  0  0
 11 16  1  0  0  0
M  END
> <minimizedAffinity>
-7.16870

> <CNNscore>
0.4137204587

> <CNNaffinity>
6.3355484009

> <CNN_VS>
2.6211459637

> <CNNaffinity_variance>
0.1740090549

$$$$
[H]c1nc(N2C([H])([H])C([H])([H])N(C([H])([H])[H])C([H])([H])C2([H])[H])c([H])c([H])c1-c1c([H])nc2c(c1[H])c([H])c([H])n2[H]


 23 26  0  0  0  0  0  0  0  0999 V2000
   12.1859   22.6146    0.6406 C   0  0  0  0  0  0  0  0  0  0  0  0
   11.5759   23.2737   -0.4018 C   0  0  0  0  0  0  0  0  0  0  0  0
   12.3285   24.0314   -1.3082 C   0  0  0  0  0  0  0  0  0  0  0  0
   13.6960   24.1221   -1.1605 C   0  0  0  0  0  0  0  0  0  0  0  0
   14.2712   23.4398   -0.0926 C   0  0  0  0  0  0  0  0  0  0  0  0
   13.5051   22.7167    0.7627 N   0  0  0  0  0  0  0  0  0  0  0  0
   14.5299   24.9083   -2.0909 C   0  0  0  0  0  0  0  0  0  0  0  0
   15.8345   25.1389   -1.7836 C   0  0  0  0  0  0  0  0  0  0  0  0
   16.5885   25.8580   -2.6400 N   0  0  0  0  0  0  0  0  0  0  0  0
   16.0547   26.3373   -3.7777 C   0  0  0  0  0  0  0  0  0  0  0  0
   16.5792   27.0660   -4.7766 N   0  0  0  0  0  0  0  0  0  0  0  0
   15.6429   27.3118   -5.7227 C   0  0  0  0  0  0  0  0  0  0  0  0
   14.4681   26.7158   -5.3140 C   0  0  0  0  0  0  0  0  0  0  0  0
   14.7208   26.1148   -4.1152 C   0  0  0  0  0  0  0  0  0  0  0  0
   13.9462   25.3849   -3.2513 C   0  0  0  0  0  0  0  0  0  0  0  0
   17.5645   27.3967   -4.8207 H   0  0  0  0  0  0  0  0  0  0  0  0
    9.9212   21.5446    4.9213 C   0  0  0  0  0  0  0  0  0  0  0  0
    9.8298   20.8277    3.6651 N   0  0  0  0  0  0  0  0  0  0  0  0
   11.1087   20.2640    3.3136 C   0  0  0  0  0  0  0  0  0  0  0  0
   12.0079   21.3958    2.8139 C   0  0  0  0  0  0  0  0  0  0  0  0
   11.4249   21.8475    1.5591 N   0  0  0  0  0  0  0  0  0  0  0  0
   10.0472   21.4738    1.3103 C   0  0  0  0  0  0  0  0  0  0  0  0
    9.2896   21.6534    2.6173 C   0  0  0  0  0  0  0  0  0  0  0  0
 17 18  1  0  0  0
 18 19  1  0  0  0
 19 20  1  0  0  0
 20 21  1  0  0  0
 21 22  1  0  0  0
 22 23  1  0  0  0
 21  1  1  0  0  0
  1  2  2  0  0  0
  2  3  1  0  0  0
  3  4  2  0  0  0
  4  5  1  0  0  0
  5  6  2  0  0  0
  4  7  1  0  0  0
  7  8  2  0  0  0
  8  9  1  0  0  0
  9 10  2  0  0  0
 10 11  1  0  0  0
 11 12  1  0  0  0
 12 13  2  0  0  0
 13 14  1  0  0  0
 14 15  2  0  0  0
 23 18  1  0  0  0
  6  1  1  0  0  0
 15  7  1  0  0  0
 14 10  1  0  0  0
 11 16  1  0  0  0
M  END
> <minimizedAffinity>
-8.31060

> <CNNscore>
0.4101442099

> <CNNaffinity>
6.4304504395

> <CNN_VS>
2.6374120712

> <CNNaffinity_variance>
0.1404411942

$$$$
[H]c1nc(N2C([H])([H])C([H])([H])N(C([H])([H])[H])C([H])([H])C2([H])[H])c([H])c([H])c1-c1c([H])nc2c(c1[H])c([H])c([H])n2[H]


 23 26  0  0  0  0  0  0  0  0999 V2000
   11.5594   23.5230    0.8853 C   0  0  0  0  0  0  0  0  0  0  0  0
   10.7056   24.0745   -0.0422 C   0  0  0  0  0  0  0  0  0  0  0  0
   11.2037   24.6797   -1.2031 C   0  0  0  0  0  0  0  0  0  0  0  0
   12.5633   24.7267   -1.4256 C   0  0  0  0  0  0  0  0  0  0  0  0
   13.3898   24.1570   -0.4617 C   0  0  0  0  0  0  0  0  0  0  0  0
   12.8658   23.5804    0.6492 N   0  0  0  0  0  0  0  0  0  0  0  0
   13.1339   25.3537   -2.6341 C   0  0  0  0  0  0  0  0  0  0  0  0
   12.6425   26.5482   -3.0600 C   0  0  0  0  0  0  0  0  0  0  0  0
   13.1705   27.1133   -4.1649 N   0  0  0  0  0  0  0  0  0  0  0  0
   14.1661   26.5021   -4.8314 C   0  0  0  0  0  0  0  0  0  0  0  0
   14.8499   26.8464   -5.9349 N   0  0  0  0  0  0  0  0  0  0  0  0
   15.7722   25.9013   -6.2321 C   0  0  0  0  0  0  0  0  0  0  0  0
   15.6764   24.9086   -5.2792 C   0  0  0  0  0  0  0  0  0  0  0  0
   14.6868   25.2779   -4.4153 C   0  0  0  0  0  0  0  0  0  0  0  0
   14.1569   24.6954   -3.2932 C   0  0  0  0  0  0  0  0  0  0  0  0
   14.6957   27.7151   -6.4861 H   0  0  0  0  0  0  0  0  0  0  0  0
    8.2879   21.1381    3.7502 C   0  0  0  0  0  0  0  0  0  0  0  0
    9.6776   21.4282    4.0416 N   0  0  0  0  0  0  0  0  0  0  0  0
    9.8849   22.8512    4.1373 C   0  0  0  0  0  0  0  0  0  0  0  0
    9.8691   23.4318    2.7224 C   0  0  0  0  0  0  0  0  0  0  0  0
   11.0562   22.9103    2.0612 N   0  0  0  0  0  0  0  0  0  0  0  0
   11.6801   21.7500    2.6647 C   0  0  0  0  0  0  0  0  0  0  0  0
   10.5629   20.8093    3.0905 C   0  0  0  0  0  0  0  0  0  0  0  0
 17 18  1  0  0  0
 18 19  1  0  0  0
 19 20  1  0  0  0
 20 21  1  0  0  0
 21 22  1  0  0  0
 22 23  1  0  0  0
 21  1  1  0  0  0
  1  2  2  0  0  0
  2  3  1  0  0  0
  3  4  2  0  0  0
  4  5  1  0  0  0
  5  6  2  0  0  0
  4  7  1  0  0  0
  7  8  2  0  0  0
  8  9  1  0  0  0
  9 10  2  0  0  0
 10 11  1  0  0  0
 11 12  1  0  0  0
 12 13  2  0  0  0
 13 14  1  0  0  0
 14 15  2  0  0  0
 23 18  1  0  0  0
  6  1  1  0  0  0
 15  7  1  0  0  0
 14 10  1  0  0  0
 11 16  1  0  0  0
M  END
> <minimizedAffinity>
-8.33500

> <CNNscore>
0.3607089221

> <CNNaffinity>
6.2791700363

> <CNN_VS>
2.2649526596

> <CNNaffinity_variance>
0.0612462349

$$$$
[H]c1nc(N2C([H])([H])C([H])([H])N(C([H])([H])[H])C([H])([H])C2([H])[H])c([H])c([H])c1-c1c([H])nc2c(c1[H])c([H])c([H])n2[H]


 23 26  0  0  0  0  0  0  0  0999 V2000
   12.4098   26.6765   -3.2856 C   0  0  0  0  0  0  0  0  0  0  0  0
   11.6252   25.8924   -2.4715 C   0  0  0  0  0  0  0  0  0  0  0  0
   12.1549   24.7576   -1.8439 C   0  0  0  0  0  0  0  0  0  0  0  0
   13.4761   24.4166   -2.0394 C   0  0  0  0  0  0  0  0  0  0  0  0
   14.2328   25.2374   -2.8703 C   0  0  0  0  0  0  0  0  0  0  0  0
   13.6803   26.3280   -3.4591 N   0  0  0  0  0  0  0  0  0  0  0  0
   14.0777   23.2304   -1.3990 C   0  0  0  0  0  0  0  0  0  0  0  0
   13.8127   21.9952   -1.9026 C   0  0  0  0  0  0  0  0  0  0  0  0
   14.3672   20.9175   -1.3110 N   0  0  0  0  0  0  0  0  0  0  0  0
   15.1681   21.0666   -0.2409 C   0  0  0  0  0  0  0  0  0  0  0  0
   15.8298   20.1750    0.5149 N   0  0  0  0  0  0  0  0  0  0  0  0
   16.5165   20.8061    1.4959 C   0  0  0  0  0  0  0  0  0  0  0  0
   16.2861   22.1596    1.3643 C   0  0  0  0  0  0  0  0  0  0  0  0
   15.4551   22.3214    0.2940 C   0  0  0  0  0  0  0  0  0  0  0  0
   14.8964   23.4231   -0.3003 C   0  0  0  0  0  0  0  0  0  0  0  0
   15.8187   19.1449    0.3705 H   0  0  0  0  0  0  0  0  0  0  0  0
    9.0987   30.2447   -4.2354 C   0  0  0  0  0  0  0  0  0  0  0  0
   10.4604   30.1451   -4.7211 N   0  0  0  0  0  0  0  0  0  0  0  0
   10.6078   28.9910   -5.5717 C   0  0  0  0  0  0  0  0  0  0  0  0
   10.6378   27.7454   -4.6848 C   0  0  0  0  0  0  0  0  0  0  0  0
   11.8746   27.8255   -3.9218 N   0  0  0  0  0  0  0  0  0  0  0  0
   12.5130   29.1244   -3.8525 C   0  0  0  0  0  0  0  0  0  0  0  0
   11.4138   30.1550   -3.6429 C   0  0  0  0  0  0  0  0  0  0  0  0
 17 18  1  0  0  0
 18 19  1  0  0  0
 19 20  1  0  0  0
 20 21  1  0  0  0
 21 22  1  0  0  0
 22 23  1  0  0  0
 21  1  1  0  0  0
  1  2  2  0  0  0
  2  3  1  0  0  0
  3  4  2  0  0  0
  4  5  1  0  0  0
  5  6  2  0  0  0
  4  7  1  0  0  0
  7  8  2  0  0  0
  8  9  1  0  0  0
  9 10  2  0  0  0
 10 11  1  0  0  0
 11 12  1  0  0  0
 12 13  2  0  0  0
 13 14  1  0  0  0
 14 15  2  0  0  0
 23 18  1  0  0  0
  6  1  1  0  0  0
 15  7  1  0  0  0
 14 10  1  0  0  0
 11 16  1  0  0  0
M  END
> <minimizedAffinity>
18.18658

> <CNNscore>
0.3439094126

> <CNNaffinity>
6.0906953812

> <CNN_VS>
2.0946474075

> <CNNaffinity_variance>
0.7715486288

$$$$
[H]c1nc(N2C([H])([H])C([H])([H])N(C([H])([H])[H])C([H])([H])C2([H])[H])c([H])c([H])c1-c1c([H])nc2c(c1[H])c([H])c([H])n2[H]


 23 26  0  0  0  0  0  0  0  0999 V2000
   11.3260   22.7616   -0.8386 C   0  0  0  0  0  0  0  0  0  0  0  0
   11.0957   24.1010   -1.0535 C   0  0  0  0  0  0  0  0  0  0  0  0
   12.0867   24.9170   -1.6142 C   0  0  0  0  0  0  0  0  0  0  0  0
   13.3087   24.3789   -1.9570 C   0  0  0  0  0  0  0  0  0  0  0  0
   13.4984   23.0204   -1.7222 C   0  0  0  0  0  0  0  0  0  0  0  0
   12.5115   22.2656   -1.1769 N   0  0  0  0  0  0  0  0  0  0  0  0
   14.3826   25.1996   -2.5504 C   0  0  0  0  0  0  0  0  0  0  0  0
   15.6303   25.1550   -2.0109 C   0  0  0  0  0  0  0  0  0  0  0  0
   16.6051   25.9081   -2.5602 N   0  0  0  0  0  0  0  0  0  0  0  0
   16.3429   26.6888   -3.6236 C   0  0  0  0  0  0  0  0  0  0  0  0
   17.1200   27.5164   -4.3414 N   0  0  0  0  0  0  0  0  0  0  0  0
   16.4026   28.0952   -5.3326 C   0  0  0  0  0  0  0  0  0  0  0  0
   15.1109   27.6190   -5.2476 C   0  0  0  0  0  0  0  0  0  0  0  0
   15.0730   26.7521   -4.1945 C   0  0  0  0  0  0  0  0  0  0  0  0
   14.0754   25.9902   -3.6435 C   0  0  0  0  0  0  0  0  0  0  0  0
   18.1300   27.6909   -4.1640 H   0  0  0  0  0  0  0  0  0  0  0  0
    6.7498   21.0210   -0.0478 C   0  0  0  0  0  0  0  0  0  0  0  0
    8.0053   20.4540    0.4021 N   0  0  0  0  0  0  0  0  0  0  0  0
    8.6563   21.3455    1.3287 C   0  0  0  0  0  0  0  0  0  0  0  0
    9.2540   22.5071    0.5333 C   0  0  0  0  0  0  0  0  0  0  0  0
   10.3236   21.9346   -0.2708 N   0  0  0  0  0  0  0  0  0  0  0  0
   10.3024   20.4972   -0.4529 C   0  0  0  0  0  0  0  0  0  0  0  0
    8.8561   20.0969   -0.7025 C   0  0  0  0  0  0  0  0  0  0  0  0
 17 18  1  0  0  0
 18 19  1  0  0  0
 19 20  1  0  0  0
 20 21  1  0  0  0
 21 22  1  0  0  0
 22 23  1  0  0  0
 21  1  1  0  0  0
  1  2  2  0  0  0
  2  3  1  0  0  0
  3  4  2  0  0  0
  4  5  1  0  0  0
  5  6  2  0  0  0
  4  7  1  0  0  0
  7  8  2  0  0  0
  8  9  1  0  0  0
  9 10  2  0  0  0
 10 11  1  0  0  0
 11 12  1  0  0  0
 12 13  2  0  0  0
 13 14  1  0  0  0
 14 15  2  0  0  0
 23 18  1  0  0  0
  6  1  1  0  0  0
 15  7  1  0  0  0
 14 10  1  0  0  0
 11 16  1  0  0  0
M  END
> <minimizedAffinity>
-8.39267

> <CNNscore>
0.2923782468

> <CNNaffinity>
6.2618265152

> <CNN_VS>
1.8308218718

> <CNNaffinity_variance>
0.1144425124

$$$$
[H]OC(=O)[C@@]([H])(N([H])C(=O)[C@]([H])(N([H])C(=O)[C@]([H])(N([H])C(=O)[C@]([H])(N([H])C(=O)[C@]([H])(N([H])C(=O)[C@]1([H])N([H])C(=O)[C@]2([H])N([H])C(=O)[C@@]([H])(C([H])(C([H])([H])[H])C([H])([H])[H])C([H])([H])C([H])=C([H])C([H])=C([H])C([H])=C([H])C(=C([H])C1([H])[H])C2([H])[H])C([H])([H])c1c([H])c([H])c([H])c([H])c1[H])C([H])([H])c1c([H])c([H])c([H])c([H])c1[H])C([H])([H])c1c([H])c([H])c([H])c([H])c1[H])C([H])([H])c1c([H])c([H])c([H])c([H])c1[H])C([H])([H])C([H])(C([H])([H])[H])C([H])([H])[H]


 86 91  0  0  0  0  0  0  0  0999 V2000
    5.3044   20.9938   -1.1254 C   0  0  0  0  0  0  0  0  0  0  0  0
    7.7643   21.4184   -0.5263 N   0  0  0  0  0  0  0  0  0  0  0  0
    6.3984   21.3264   -0.1987 C   0  0  0  0  0  0  0  0  0  0  0  0
    6.0978   21.5524    1.0122 O   0  0  0  0  0  0  0  0  0  0  0  0
    8.0593   21.2636   -1.5105 H   0  0  0  0  0  0  0  0  0  0  0  0
    8.7878   21.7244    0.4606 C   0  0  0  0  0  0  0  0  0  0  0  0
   11.3059   21.5856    0.3605 N   0  0  0  0  0  0  0  0  0  0  0  0
   10.0256   20.9942    0.2104 C   0  0  0  0  0  0  0  0  0  0  0  0
   10.0294   19.7678   -0.1583 O   0  0  0  0  0  0  0  0  0  0  0  0
   11.3536   22.5748    0.6702 H   0  0  0  0  0  0  0  0  0  0  0  0
   12.5245   20.8172    0.0947 C   0  0  0  0  0  0  0  0  0  0  0  0
   13.8810   22.8522   -0.5946 N   0  0  0  0  0  0  0  0  0  0  0  0
   13.3436   21.5654   -0.8462 C   0  0  0  0  0  0  0  0  0  0  0  0
   13.6321   21.0701   -1.9951 O   0  0  0  0  0  0  0  0  0  0  0  0
   13.6829   23.2930    0.3267 H   0  0  0  0  0  0  0  0  0  0  0  0
   14.7121   23.5701   -1.6043 C   0  0  0  0  0  0  0  0  0  0  0  0
   15.4908   24.5392   -0.7821 C   0  0  0  0  0  0  0  0  0  0  0  0
   15.1762   24.7027    0.5428 O   0  0  0  0  0  0  0  0  0  0  0  0
   16.4146   25.1963   -1.2968 O   0  0  0  0  0  0  0  0  0  0  0  0
   14.2716   25.0535    0.8179 H   0  0  0  0  0  0  0  0  0  0  0  0
   13.7838   24.1777   -2.5819 C   0  0  0  0  0  0  0  0  0  0  0  0
   13.0404   26.4728   -3.3730 C   0  0  0  0  0  0  0  0  0  0  0  0
   13.1567   25.4813   -2.2750 C   0  0  0  0  0  0  0  0  0  0  0  0
   11.8310   25.2260   -1.5702 C   0  0  0  0  0  0  0  0  0  0  0  0
   13.2775   20.6346    1.4076 C   0  0  0  0  0  0  0  0  0  0  0  0
   12.3436   20.5500    2.5474 C   0  0  0  0  0  0  0  0  0  0  0  0
   11.6725   21.6535    3.0432 C   0  0  0  0  0  0  0  0  0  0  0  0
   10.8457   21.5113    4.1373 C   0  0  0  0  0  0  0  0  0  0  0  0
   10.6739   20.2864    4.7498 C   0  0  0  0  0  0  0  0  0  0  0  0
   11.3464   19.1995    4.2466 C   0  0  0  0  0  0  0  0  0  0  0  0
   12.1744   19.3284    3.1539 C   0  0  0  0  0  0  0  0  0  0  0  0
    8.9895   23.2349    0.4559 C   0  0  0  0  0  0  0  0  0  0  0  0
    8.8835   23.8518    1.7816 C   0  0  0  0  0  0  0  0  0  0  0  0
    9.6276   24.9342    2.1536 C   0  0  0  0  0  0  0  0  0  0  0  0
    9.4705   25.4562    3.4233 C   0  0  0  0  0  0  0  0  0  0  0  0
    8.5807   24.9094    4.3216 C   0  0  0  0  0  0  0  0  0  0  0  0
    7.8194   23.8182    3.9702 C   0  0  0  0  0  0  0  0  0  0  0  0
    7.9936   23.3133    2.6946 C   0  0  0  0  0  0  0  0  0  0  0  0
    4.2112   20.4010   -0.3449 N   0  0  0  0  0  0  0  0  0  0  0  0
    2.8904   20.9793   -0.4160 C   0  0  0  0  0  0  0  0  0  0  0  0
    2.6617   21.9557   -1.1497 O   0  0  0  0  0  0  0  0  0  0  0  0
    4.3180   19.5758    0.2708 H   0  0  0  0  0  0  0  0  0  0  0  0
    1.7904   20.3985    0.4011 C   0  0  0  0  0  0  0  0  0  0  0  0
    2.2933   19.7306    1.5396 N   0  0  0  0  0  0  0  0  0  0  0  0
    1.7637   18.6420    2.2475 C   0  0  0  0  0  0  0  0  0  0  0  0
    0.6825   18.1283    1.8738 O   0  0  0  0  0  0  0  0  0  0  0  0
    3.2267   20.0982    1.9369 H   0  0  0  0  0  0  0  0  0  0  0  0
    2.4775   18.0713    3.4628 C   0  0  0  0  0  0  0  0  0  0  0  0
    3.8934   17.8805    2.9883 C   0  0  0  0  0  0  0  0  0  0  0  0
    4.7867   17.1303    3.8453 C   0  0  0  0  0  0  0  0  0  0  0  0
    2.3426   19.0279    4.5088 N   0  0  0  0  0  0  0  0  0  0  0  0
    2.9953   19.4493    5.6976 C   0  0  0  0  0  0  0  0  0  0  0  0
    2.3381   20.2489    6.4065 O   0  0  0  0  0  0  0  0  0  0  0  0
    4.3588   19.0796    6.2344 C   0  0  0  0  0  0  0  0  0  0  0  0
    4.4235   17.5909    6.2987 C   0  0  0  0  0  0  0  0  0  0  0  0
    5.0878   16.9341    5.1536 C   0  0  0  0  0  0  0  0  0  0  0  0
    6.1409   15.9715    5.2252 C   0  0  0  0  0  0  0  0  0  0  0  0
    6.8022   15.4257    6.2234 C   0  0  0  0  0  0  0  0  0  0  0  0
    6.7629   15.5545    7.6353 C   0  0  0  0  0  0  0  0  0  0  0  0
    7.4530   16.2798    8.5224 C   0  0  0  0  0  0  0  0  0  0  0  0
    8.5184   17.2178    8.3240 C   0  0  0  0  0  0  0  0  0  0  0  0
    5.3726   19.7477    5.4803 N   0  0  0  0  0  0  0  0  0  0  0  0
    6.7467   19.8254    5.6482 C   0  0  0  0  0  0  0  0  0  0  0  0
    7.4575   19.4208    4.6435 O   0  0  0  0  0  0  0  0  0  0  0  0
    7.5450   20.2995    6.7951 C   0  0  0  0  0  0  0  0  0  0  0  0
    7.3966   19.4543    8.0329 C   0  0  0  0  0  0  0  0  0  0  0  0
    8.5536   18.5045    8.1207 C   0  0  0  0  0  0  0  0  0  0  0  0
    1.4942   19.6222    4.3727 H   0  0  0  0  0  0  0  0  0  0  0  0
    5.0125   20.2960    4.6228 H   0  0  0  0  0  0  0  0  0  0  0  0
    7.3594   21.7726    7.0815 C   0  0  0  0  0  0  0  0  0  0  0  0
    8.6445   22.4907    7.4303 C   0  0  0  0  0  0  0  0  0  0  0  0
    6.3114   21.9974    8.1729 C   0  0  0  0  0  0  0  0  0  0  0  0
    0.8707   19.5833   -0.4904 C   0  0  0  0  0  0  0  0  0  0  0  0
    1.5563   18.8799   -1.5870 C   0  0  0  0  0  0  0  0  0  0  0  0
    1.7636   17.4937   -1.5044 C   0  0  0  0  0  0  0  0  0  0  0  0
    2.3708   16.7768   -2.5105 C   0  0  0  0  0  0  0  0  0  0  0  0
    2.8084   17.4038   -3.6644 C   0  0  0  0  0  0  0  0  0  0  0  0
    2.6161   18.7656   -3.7703 C   0  0  0  0  0  0  0  0  0  0  0  0
    2.0010   19.4723   -2.7431 C   0  0  0  0  0  0  0  0  0  0  0  0
    5.8879   19.9354   -2.0589 C   0  0  0  0  0  0  0  0  0  0  0  0
    6.0817   18.6405   -1.4472 C   0  0  0  0  0  0  0  0  0  0  0  0
    7.3193   18.0265   -1.5482 C   0  0  0  0  0  0  0  0  0  0  0  0
    7.5616   16.7908   -0.9851 C   0  0  0  0  0  0  0  0  0  0  0  0
    6.5711   16.1230   -0.2975 C   0  0  0  0  0  0  0  0  0  0  0  0
    5.3316   16.7151   -0.1841 C   0  0  0  0  0  0  0  0  0  0  0  0
    5.1033   17.9685   -0.7620 C   0  0  0  0  0  0  0  0  0  0  0  0
 22 23  1  0  0  0
 23 24  1  0  0  0
 23 21  1  0  0  0
 21 16  1  0  0  0
 16 12  1  0  0  0
 12 13  1  0  0  0
 13 14  2  0  0  0
 13 11  1  0  0  0
 11 25  1  0  0  0
 25 26  1  0  0  0
 26 27  2  0  0  0
 27 28  1  0  0  0
 28 29  2  0  0  0
 29 30  1  0  0  0
 30 31  2  0  0  0
 11  7  1  0  0  0
  7  8  1  0  0  0
  8  9  2  0  0  0
  8  6  1  0  0  0
  6 32  1  0  0  0
 32 33  1  0  0  0
 33 34  2  0  0  0
 34 35  1  0  0  0
 35 36  2  0  0  0
 36 37  1  0  0  0
 37 38  2  0  0  0
  6  2  1  0  0  0
  2  3  1  0  0  0
  3  4  2  0  0  0
  3  1  1  0  0  0
  1 80  1  0  0  0
 80 81  1  0  0  0
 81 82  2  0  0  0
 82 83  1  0  0  0
 83 84  2  0  0  0
 84 85  1  0  0  0
 85 86  2  0  0  0
  1 39  1  0  0  0
 39 40  1  0  0  0
 40 41  2  0  0  0
 40 43  1  0  0  0
 43 73  1  0  0  0
 73 74  1  0  0  0
 74 75  2  0  0  0
 75 76  1  0  0  0
 76 77  2  0  0  0
 77 78  1  0  0  0
 78 79  2  0  0  0
 43 44  1  0  0  0
 44 45  1  0  0  0
 45 46  2  0  0  0
 45 48  1  0  0  0
 48 49  1  0  0  0
 49 50  1  0  0  0
 48 51  1  0  0  0
 51 52  1  0  0  0
 52 53  2  0  0  0
 52 54  1  0  0  0
 54 55  1  0  0  0
 55 56  1  0  0  0
 56 57  1  0  0  0
 57 58  2  0  0  0
 58 59  1  0  0  0
 59 60  2  0  0  0
 60 61  1  0  0  0
 54 62  1  0  0  0
 62 63  1  0  0  0
 63 64  2  0  0  0
 63 65  1  0  0  0
 65 66  1  0  0  0
 66 67  1  0  0  0
 65 70  1  0  0  0
 70 71  1  0  0  0
 70 72  1  0  0  0
 16 17  1  0  0  0
 17 18  1  0  0  0
 17 19  2  0  0  0
 31 26  1  0  0  0
 38 33  1  0  0  0
 86 81  1  0  0  0
 79 74  1  0  0  0
 56 50  2  0  0  0
 67 61  2  0  0  0
 12 15  1  0  0  0
  7 10  1  0  0  0
  2  5  1  0  0  0
 39 42  1  0  0  0
 44 47  1  0  0  0
 51 68  1  0  0  0
 62 69  1  0  0  0
 18 20  1  0  0  0
M  END
> <minimizedAffinity>
-10.70219

> <CNNscore>
0.0594420061

> <CNNaffinity>
8.0797023773

> <CNN_VS>
0.4802737236

> <CNNaffinity_variance>
2.8006045818

$$$$
[H]OC(=O)[C@@]([H])(N([H])C(=O)[C@]([H])(N([H])C(=O)[C@]([H])(N([H])C(=O)[C@]([H])(N([H])C(=O)[C@]([H])(N([H])C(=O)[C@]1([H])N([H])C(=O)[C@]2([H])N([H])C(=O)[C@@]([H])(C([H])(C([H])([H])[H])C([H])([H])[H])C([H])([H])C([H])=C([H])C([H])=C([H])C([H])=C([H])C(=C([H])C1([H])[H])C2([H])[H])C([H])([H])c1c([H])c([H])c([H])c([H])c1[H])C([H])([H])c1c([H])c([H])c([H])c([H])c1[H])C([H])([H])c1c([H])c([H])c([H])c([H])c1[H])C([H])([H])c1c([H])c([H])c([H])c([H])c1[H])C([H])([H])C([H])(C([H])([H])[H])C([H])([H])[H]


 86 91  0  0  0  0  0  0  0  0999 V2000
    5.3988   18.8720    2.7049 C   0  0  0  0  0  0  0  0  0  0  0  0
    5.5055   19.0465    5.2639 N   0  0  0  0  0  0  0  0  0  0  0  0
    6.0572   19.2046    3.9786 C   0  0  0  0  0  0  0  0  0  0  0  0
    7.2313   19.6806    3.9292 O   0  0  0  0  0  0  0  0  0  0  0  0
    4.5541   18.6398    5.3587 H   0  0  0  0  0  0  0  0  0  0  0  0
    6.2156   19.4297    6.4739 C   0  0  0  0  0  0  0  0  0  0  0  0
    5.0013   21.6316    6.2559 N   0  0  0  0  0  0  0  0  0  0  0  0
    6.0688   20.8509    6.7683 C   0  0  0  0  0  0  0  0  0  0  0  0
    6.8980   21.4804    7.5141 O   0  0  0  0  0  0  0  0  0  0  0  0
    4.2966   21.1617    5.6566 H   0  0  0  0  0  0  0  0  0  0  0  0
    4.8936   23.0577    6.5732 C   0  0  0  0  0  0  0  0  0  0  0  0
    6.7922   23.4005    4.9196 N   0  0  0  0  0  0  0  0  0  0  0  0
    5.5866   23.8120    5.5403 C   0  0  0  0  0  0  0  0  0  0  0  0
    5.1142   24.9309    5.1239 O   0  0  0  0  0  0  0  0  0  0  0  0
    7.2105   22.4954    5.2163 H   0  0  0  0  0  0  0  0  0  0  0  0
    7.4569   24.2227    3.8670 C   0  0  0  0  0  0  0  0  0  0  0  0
    7.6377   23.2608    2.7428 C   0  0  0  0  0  0  0  0  0  0  0  0
    6.6230   22.3927    2.4303 O   0  0  0  0  0  0  0  0  0  0  0  0
    8.7028   23.2444    2.0983 O   0  0  0  0  0  0  0  0  0  0  0  0
    6.3138   21.7008    3.0956 H   0  0  0  0  0  0  0  0  0  0  0  0
    8.7086   24.7509    4.4508 C   0  0  0  0  0  0  0  0  0  0  0  0
    8.1464   27.1624    3.8898 C   0  0  0  0  0  0  0  0  0  0  0  0
    8.8000   26.1859    4.7962 C   0  0  0  0  0  0  0  0  0  0  0  0
    8.3809   26.3608    6.2499 C   0  0  0  0  0  0  0  0  0  0  0  0
    3.4177   23.4390    6.5925 C   0  0  0  0  0  0  0  0  0  0  0  0
    3.0528   24.0828    7.8696 C   0  0  0  0  0  0  0  0  0  0  0  0
    2.7932   23.3598    9.0201 C   0  0  0  0  0  0  0  0  0  0  0  0
    2.4171   24.0224   10.1691 C   0  0  0  0  0  0  0  0  0  0  0  0
    2.2938   25.3970   10.1944 C   0  0  0  0  0  0  0  0  0  0  0  0
    2.5549   26.1019    9.0448 C   0  0  0  0  0  0  0  0  0  0  0  0
    2.9321   25.4517    7.8910 C   0  0  0  0  0  0  0  0  0  0  0  0
    5.7045   18.5434    7.6033 C   0  0  0  0  0  0  0  0  0  0  0  0
    6.6544   17.5078    8.0210 C   0  0  0  0  0  0  0  0  0  0  0  0
    8.0066   17.6574    7.9077 C   0  0  0  0  0  0  0  0  0  0  0  0
    8.8355   16.6328    8.3227 C   0  0  0  0  0  0  0  0  0  0  0  0
    8.3287   15.4644    8.8477 C   0  0  0  0  0  0  0  0  0  0  0  0
    6.9693   15.2898    8.9722 C   0  0  0  0  0  0  0  0  0  0  0  0
    6.1597   16.3286    8.5506 C   0  0  0  0  0  0  0  0  0  0  0  0
    5.8426   19.8423    1.6963 N   0  0  0  0  0  0  0  0  0  0  0  0
    6.3536   19.3710    0.4311 C   0  0  0  0  0  0  0  0  0  0  0  0
    6.3977   18.1559    0.1752 O   0  0  0  0  0  0  0  0  0  0  0  0
    5.8164   20.8688    1.8266 H   0  0  0  0  0  0  0  0  0  0  0  0
    6.8343   20.3539   -0.5778 C   0  0  0  0  0  0  0  0  0  0  0  0
    8.0763   20.9113   -0.2011 N   0  0  0  0  0  0  0  0  0  0  0  0
    9.3555   20.3365   -0.2055 C   0  0  0  0  0  0  0  0  0  0  0  0
    9.4996   19.1513   -0.5890 O   0  0  0  0  0  0  0  0  0  0  0  0
    8.0577   21.9341    0.1419 H   0  0  0  0  0  0  0  0  0  0  0  0
   10.5742   21.1252    0.2472 C   0  0  0  0  0  0  0  0  0  0  0  0
   11.7142   20.4760   -0.4913 C   0  0  0  0  0  0  0  0  0  0  0  0
   13.0574   20.8483   -0.1009 C   0  0  0  0  0  0  0  0  0  0  0  0
   10.3475   22.4826   -0.1182 N   0  0  0  0  0  0  0  0  0  0  0  0
   11.0665   23.6673   -0.4285 C   0  0  0  0  0  0  0  0  0  0  0  0
   10.3676   24.7067   -0.4990 O   0  0  0  0  0  0  0  0  0  0  0  0
   12.5430   23.8622   -0.6856 C   0  0  0  0  0  0  0  0  0  0  0  0
   13.2772   23.2928    0.4811 C   0  0  0  0  0  0  0  0  0  0  0  0
   13.7888   21.9183    0.3001 C   0  0  0  0  0  0  0  0  0  0  0  0
   15.1273   21.4766    0.5328 C   0  0  0  0  0  0  0  0  0  0  0  0
   16.2258   22.0848    0.9264 C   0  0  0  0  0  0  0  0  0  0  0  0
   16.5562   23.4179    1.2804 C   0  0  0  0  0  0  0  0  0  0  0  0
   17.0821   24.4531    0.6163 C   0  0  0  0  0  0  0  0  0  0  0  0
   17.5074   24.5591   -0.7483 C   0  0  0  0  0  0  0  0  0  0  0  0
   12.8788   23.3588   -1.9804 N   0  0  0  0  0  0  0  0  0  0  0  0
   14.0558   23.4061   -2.7117 C   0  0  0  0  0  0  0  0  0  0  0  0
   14.5366   22.2589   -3.0739 O   0  0  0  0  0  0  0  0  0  0  0  0
   14.8620   24.5605   -3.1533 C   0  0  0  0  0  0  0  0  0  0  0  0
   15.4804   25.3409   -2.0231 C   0  0  0  0  0  0  0  0  0  0  0  0
   16.9058   24.9088   -1.8501 C   0  0  0  0  0  0  0  0  0  0  0  0
    9.3262   22.6921   -0.1861 H   0  0  0  0  0  0  0  0  0  0  0  0
   12.0757   22.8487   -2.4907 H   0  0  0  0  0  0  0  0  0  0  0  0
   14.1369   25.4522   -4.1359 C   0  0  0  0  0  0  0  0  0  0  0  0
   15.0506   26.1175   -5.1416 C   0  0  0  0  0  0  0  0  0  0  0  0
   13.2894   26.5001   -3.4125 C   0  0  0  0  0  0  0  0  0  0  0  0
    5.7295   21.3491   -0.8848 C   0  0  0  0  0  0  0  0  0  0  0  0
    4.6076   20.7903   -1.6569 C   0  0  0  0  0  0  0  0  0  0  0  0
    4.8359   20.2679   -2.9400 C   0  0  0  0  0  0  0  0  0  0  0  0
    3.8335   19.7049   -3.6971 C   0  0  0  0  0  0  0  0  0  0  0  0
    2.5378   19.6292   -3.2158 C   0  0  0  0  0  0  0  0  0  0  0  0
    2.2873   20.1352   -1.9573 C   0  0  0  0  0  0  0  0  0  0  0  0
    3.3132   20.7002   -1.2080 C   0  0  0  0  0  0  0  0  0  0  0  0
    3.9077   19.0678    2.9701 C   0  0  0  0  0  0  0  0  0  0  0  0
    3.0404   18.3409    2.0713 C   0  0  0  0  0  0  0  0  0  0  0  0
    3.4218   17.0814    1.6391 C   0  0  0  0  0  0  0  0  0  0  0  0
    2.6347   16.3423    0.7807 C   0  0  0  0  0  0  0  0  0  0  0  0
    1.4328   16.8382    0.3230 C   0  0  0  0  0  0  0  0  0  0  0  0
    1.0328   18.0894    0.7402 C   0  0  0  0  0  0  0  0  0  0  0  0
    1.8439   18.8254    1.6105 C   0  0  0  0  0  0  0  0  0  0  0  0
 22 23  1  0  0  0
 23 24  1  0  0  0
 23 21  1  0  0  0
 21 16  1  0  0  0
 16 12  1  0  0  0
 12 13  1  0  0  0
 13 14  2  0  0  0
 13 11  1  0  0  0
 11 25  1  0  0  0
 25 26  1  0  0  0
 26 27  2  0  0  0
 27 28  1  0  0  0
 28 29  2  0  0  0
 29 30  1  0  0  0
 30 31  2  0  0  0
 11  7  1  0  0  0
  7  8  1  0  0  0
  8  9  2  0  0  0
  8  6  1  0  0  0
  6 32  1  0  0  0
 32 33  1  0  0  0
 33 34  2  0  0  0
 34 35  1  0  0  0
 35 36  2  0  0  0
 36 37  1  0  0  0
 37 38  2  0  0  0
  6  2  1  0  0  0
  2  3  1  0  0  0
  3  4  2  0  0  0
  3  1  1  0  0  0
  1 80  1  0  0  0
 80 81  1  0  0  0
 81 82  2  0  0  0
 82 83  1  0  0  0
 83 84  2  0  0  0
 84 85  1  0  0  0
 85 86  2  0  0  0
  1 39  1  0  0  0
 39 40  1  0  0  0
 40 41  2  0  0  0
 40 43  1  0  0  0
 43 73  1  0  0  0
 73 74  1  0  0  0
 74 75  2  0  0  0
 75 76  1  0  0  0
 76 77  2  0  0  0
 77 78  1  0  0  0
 78 79  2  0  0  0
 43 44  1  0  0  0
 44 45  1  0  0  0
 45 46  2  0  0  0
 45 48  1  0  0  0
 48 49  1  0  0  0
 49 50  1  0  0  0
 48 51  1  0  0  0
 51 52  1  0  0  0
 52 53  2  0  0  0
 52 54  1  0  0  0
 54 55  1  0  0  0
 55 56  1  0  0  0
 56 57  1  0  0  0
 57 58  2  0  0  0
 58 59  1  0  0  0
 59 60  2  0  0  0
 60 61  1  0  0  0
 54 62  1  0  0  0
 62 63  1  0  0  0
 63 64  2  0  0  0
 63 65  1  0  0  0
 65 66  1  0  0  0
 66 67  1  0  0  0
 65 70  1  0  0  0
 70 71  1  0  0  0
 70 72  1  0  0  0
 16 17  1  0  0  0
 17 18  1  0  0  0
 17 19  2  0  0  0
 31 26  1  0  0  0
 38 33  1  0  0  0
 86 81  1  0  0  0
 79 74  1  0  0  0
 56 50  2  0  0  0
 67 61  2  0  0  0
 12 15  1  0  0  0
  7 10  1  0  0  0
  2  5  1  0  0  0
 39 42  1  0  0  0
 44 47  1  0  0  0
 51 68  1  0  0  0
 62 69  1  0  0  0
 18 20  1  0  0  0
M  END
> <minimizedAffinity>
-8.60822

> <CNNscore>
0.0492998138

> <CNNaffinity>
7.8460783958

> <CNN_VS>
0.3868102133

> <CNNaffinity_variance>
1.2373384237

$$$$
[H]OC(=O)[C@@]([H])(N([H])C(=O)[C@]([H])(N([H])C(=O)[C@]([H])(N([H])C(=O)[C@]([H])(N([H])C(=O)[C@]([H])(N([H])C(=O)[C@]1([H])N([H])C(=O)[C@]2([H])N([H])C(=O)[C@@]([H])(C([H])(C([H])([H])[H])C([H])([H])[H])C([H])([H])C([H])=C([H])C([H])=C([H])C([H])=C([H])C(=C([H])C1([H])[H])C2([H])[H])C([H])([H])c1c([H])c([H])c([H])c([H])c1[H])C([H])([H])c1c([H])c([H])c([H])c([H])c1[H])C([H])([H])c1c([H])c([H])c([H])c([H])c1[H])C([H])([H])c1c([H])c([H])c([H])c([H])c1[H])C([H])([H])C([H])(C([H])([H])[H])C([H])([H])[H]


 86 91  0  0  0  0  0  0  0  0999 V2000
    9.5610   20.9542    4.9212 C   0  0  0  0  0  0  0  0  0  0  0  0
    8.8676   23.0015    3.5362 N   0  0  0  0  0  0  0  0  0  0  0  0
    9.8147   22.0625    3.9865 C   0  0  0  0  0  0  0  0  0  0  0  0
   10.9919   22.1957    3.5348 O   0  0  0  0  0  0  0  0  0  0  0  0
    7.8937   22.9482    3.8943 H   0  0  0  0  0  0  0  0  0  0  0  0
    9.1964   24.0515    2.5850 C   0  0  0  0  0  0  0  0  0  0  0  0
   10.3805   22.7196    0.7978 N   0  0  0  0  0  0  0  0  0  0  0  0
    9.3057   23.5418    1.2226 C   0  0  0  0  0  0  0  0  0  0  0  0
    8.4308   23.8052    0.3254 O   0  0  0  0  0  0  0  0  0  0  0  0
   11.1078   22.4684    1.4939 H   0  0  0  0  0  0  0  0  0  0  0  0
   10.4541   22.2323   -0.5818 C   0  0  0  0  0  0  0  0  0  0  0  0
   12.4239   23.7878   -0.9780 N   0  0  0  0  0  0  0  0  0  0  0  0
   11.7774   22.5332   -1.1055 C   0  0  0  0  0  0  0  0  0  0  0  0
   12.4496   21.6354   -1.7304 O   0  0  0  0  0  0  0  0  0  0  0  0
   11.9235   24.5461   -0.4714 H   0  0  0  0  0  0  0  0  0  0  0  0
   13.7828   24.0346   -1.5419 C   0  0  0  0  0  0  0  0  0  0  0  0
   14.6160   24.2879   -0.3322 C   0  0  0  0  0  0  0  0  0  0  0  0
   15.8881   24.7781   -0.4822 O   0  0  0  0  0  0  0  0  0  0  0  0
   14.1607   24.0514    0.8022 O   0  0  0  0  0  0  0  0  0  0  0  0
   16.5917   24.2446   -0.9693 H   0  0  0  0  0  0  0  0  0  0  0  0
   13.6676   25.1746   -2.4766 C   0  0  0  0  0  0  0  0  0  0  0  0
   15.3499   26.3177   -3.9962 C   0  0  0  0  0  0  0  0  0  0  0  0
   14.4505   25.1674   -3.7311 C   0  0  0  0  0  0  0  0  0  0  0  0
   15.1611   23.8256   -3.8497 C   0  0  0  0  0  0  0  0  0  0  0  0
   10.2289   20.7246   -0.5751 C   0  0  0  0  0  0  0  0  0  0  0  0
    8.8241   20.3966   -0.8872 C   0  0  0  0  0  0  0  0  0  0  0  0
    8.4025   20.0670   -2.1629 C   0  0  0  0  0  0  0  0  0  0  0  0
    7.0672   19.8118   -2.3928 C   0  0  0  0  0  0  0  0  0  0  0  0
    6.1399   19.8791   -1.3726 C   0  0  0  0  0  0  0  0  0  0  0  0
    6.5730   20.2073   -0.1111 C   0  0  0  0  0  0  0  0  0  0  0  0
    7.9040   20.4637    0.1315 C   0  0  0  0  0  0  0  0  0  0  0  0
    8.1355   25.1374    2.7191 C   0  0  0  0  0  0  0  0  0  0  0  0
    7.7828   25.4542    4.1063 C   0  0  0  0  0  0  0  0  0  0  0  0
    6.5658   25.1520    4.6459 C   0  0  0  0  0  0  0  0  0  0  0  0
    6.3101   25.4861    5.9621 C   0  0  0  0  0  0  0  0  0  0  0  0
    7.2546   26.1169    6.7415 C   0  0  0  0  0  0  0  0  0  0  0  0
    8.4888   26.4320    6.2203 C   0  0  0  0  0  0  0  0  0  0  0  0
    8.7219   26.0879    4.9014 C   0  0  0  0  0  0  0  0  0  0  0  0
    8.1250   20.9360    5.2265 N   0  0  0  0  0  0  0  0  0  0  0  0
    7.4214   19.6762    5.2667 C   0  0  0  0  0  0  0  0  0  0  0  0
    8.0214   18.6055    5.0724 O   0  0  0  0  0  0  0  0  0  0  0  0
    7.5616   21.7824    5.4207 H   0  0  0  0  0  0  0  0  0  0  0  0
    5.9591   19.6611    5.5432 C   0  0  0  0  0  0  0  0  0  0  0  0
    5.2660   18.8694    4.6009 N   0  0  0  0  0  0  0  0  0  0  0  0
    4.4776   17.7262    4.7971 C   0  0  0  0  0  0  0  0  0  0  0  0
    4.3159   17.2781    5.9570 O   0  0  0  0  0  0  0  0  0  0  0  0
    5.3408   19.1773    3.5695 H   0  0  0  0  0  0  0  0  0  0  0  0
    3.8136   17.0180    3.6268 C   0  0  0  0  0  0  0  0  0  0  0  0
    2.5541   17.8104    3.3979 C   0  0  0  0  0  0  0  0  0  0  0  0
    1.5730   17.2529    2.4913 C   0  0  0  0  0  0  0  0  0  0  0  0
    4.7318   17.0657    2.5395 N   0  0  0  0  0  0  0  0  0  0  0  0
    4.7495   17.0369    1.1198 C   0  0  0  0  0  0  0  0  0  0  0  0
    5.8873   16.9061    0.6078 O   0  0  0  0  0  0  0  0  0  0  0  0
    3.6062   17.1399    0.1368 C   0  0  0  0  0  0  0  0  0  0  0  0
    2.6077   16.0944    0.5038 C   0  0  0  0  0  0  0  0  0  0  0  0
    1.4737   16.5610    1.3285 C   0  0  0  0  0  0  0  0  0  0  0  0
    0.0872   16.3497    1.0571 C   0  0  0  0  0  0  0  0  0  0  0  0
   -0.5634   15.7496    0.0833 C   0  0  0  0  0  0  0  0  0  0  0  0
   -0.1814   15.0682   -1.1005 C   0  0  0  0  0  0  0  0  0  0  0  0
   -0.0523   15.4308   -2.3816 C   0  0  0  0  0  0  0  0  0  0  0  0
   -0.2701   16.6994   -3.0121 C   0  0  0  0  0  0  0  0  0  0  0  0
    3.1458   18.4913    0.0706 N   0  0  0  0  0  0  0  0  0  0  0  0
    2.2136   19.1092   -0.7489 C   0  0  0  0  0  0  0  0  0  0  0  0
    1.2352   19.6996   -0.1385 O   0  0  0  0  0  0  0  0  0  0  0  0
    2.1500   19.2089   -2.2198 C   0  0  0  0  0  0  0  0  0  0  0  0
    1.9492   17.8868   -2.9128 C   0  0  0  0  0  0  0  0  0  0  0  0
    0.4974   17.7250   -3.2512 C   0  0  0  0  0  0  0  0  0  0  0  0
    5.7166   17.1510    2.8776 H   0  0  0  0  0  0  0  0  0  0  0  0
    3.6025   19.1612    0.7836 H   0  0  0  0  0  0  0  0  0  0  0  0
    3.2946   19.9989   -2.8132 C   0  0  0  0  0  0  0  0  0  0  0  0
    3.0764   21.4958   -2.7901 C   0  0  0  0  0  0  0  0  0  0  0  0
    3.6142   19.5299   -4.2336 C   0  0  0  0  0  0  0  0  0  0  0  0
    5.4577   21.0850    5.7058 C   0  0  0  0  0  0  0  0  0  0  0  0
    5.0188   21.4210    7.0703 C   0  0  0  0  0  0  0  0  0  0  0  0
    4.9554   20.4169    8.0495 C   0  0  0  0  0  0  0  0  0  0  0  0
    4.5821   20.6754    9.3490 C   0  0  0  0  0  0  0  0  0  0  0  0
    4.2491   21.9577    9.7502 C   0  0  0  0  0  0  0  0  0  0  0  0
    4.3038   22.9625    8.8068 C   0  0  0  0  0  0  0  0  0  0  0  0
    4.6830   22.6814    7.4990 C   0  0  0  0  0  0  0  0  0  0  0  0
   10.3394   21.3185    6.1835 C   0  0  0  0  0  0  0  0  0  0  0  0
    9.5124   21.6808    7.3119 C   0  0  0  0  0  0  0  0  0  0  0  0
    9.2098   20.7186    8.2614 C   0  0  0  0  0  0  0  0  0  0  0  0
    8.4246   21.0069    9.3583 C   0  0  0  0  0  0  0  0  0  0  0  0
    7.9130   22.2730    9.5458 C   0  0  0  0  0  0  0  0  0  0  0  0
    8.2013   23.2466    8.6137 C   0  0  0  0  0  0  0  0  0  0  0  0
    8.9987   22.9364    7.5070 C   0  0  0  0  0  0  0  0  0  0  0  0
 22 23  1  0  0  0
 23 24  1  0  0  0
 23 21  1  0  0  0
 21 16  1  0  0  0
 16 12  1  0  0  0
 12 13  1  0  0  0
 13 14  2  0  0  0
 13 11  1  0  0  0
 11 25  1  0  0  0
 25 26  1  0  0  0
 26 27  2  0  0  0
 27 28  1  0  0  0
 28 29  2  0  0  0
 29 30  1  0  0  0
 30 31  2  0  0  0
 11  7  1  0  0  0
  7  8  1  0  0  0
  8  9  2  0  0  0
  8  6  1  0  0  0
  6 32  1  0  0  0
 32 33  1  0  0  0
 33 34  2  0  0  0
 34 35  1  0  0  0
 35 36  2  0  0  0
 36 37  1  0  0  0
 37 38  2  0  0  0
  6  2  1  0  0  0
  2  3  1  0  0  0
  3  4  2  0  0  0
  3  1  1  0  0  0
  1 80  1  0  0  0
 80 81  1  0  0  0
 81 82  2  0  0  0
 82 83  1  0  0  0
 83 84  2  0  0  0
 84 85  1  0  0  0
 85 86  2  0  0  0
  1 39  1  0  0  0
 39 40  1  0  0  0
 40 41  2  0  0  0
 40 43  1  0  0  0
 43 73  1  0  0  0
 73 74  1  0  0  0
 74 75  2  0  0  0
 75 76  1  0  0  0
 76 77  2  0  0  0
 77 78  1  0  0  0
 78 79  2  0  0  0
 43 44  1  0  0  0
 44 45  1  0  0  0
 45 46  2  0  0  0
 45 48  1  0  0  0
 48 49  1  0  0  0
 49 50  1  0  0  0
 48 51  1  0  0  0
 51 52  1  0  0  0
 52 53  2  0  0  0
 52 54  1  0  0  0
 54 55  1  0  0  0
 55 56  1  0  0  0
 56 57  1  0  0  0
 57 58  2  0  0  0
 58 59  1  0  0  0
 59 60  2  0  0  0
 60 61  1  0  0  0
 54 62  1  0  0  0
 62 63  1  0  0  0
 63 64  2  0  0  0
 63 65  1  0  0  0
 65 66  1  0  0  0
 66 67  1  0  0  0
 65 70  1  0  0  0
 70 71  1  0  0  0
 70 72  1  0  0  0
 16 17  1  0  0  0
 17 18  1  0  0  0
 17 19  2  0  0  0
 31 26  1  0  0  0
 38 33  1  0  0  0
 86 81  1  0  0  0
 79 74  1  0  0  0
 56 50  2  0  0  0
 67 61  2  0  0  0
 12 15  1  0  0  0
  7 10  1  0  0  0
  2  5  1  0  0  0
 39 42  1  0  0  0
 44 47  1  0  0  0
 51 68  1  0  0  0
 62 69  1  0  0  0
 18 20  1  0  0  0
M  END
> <minimizedAffinity>
-9.15703

> <CNNscore>
0.0443329401

> <CNNaffinity>
7.6370782852

> <CNN_VS>
0.3385741413

> <CNNaffinity_variance>
2.1120831966

$$$$
[H]OC(=O)[C@@]([H])(N([H])C(=O)[C@]([H])(N([H])C(=O)[C@]([H])(N([H])C(=O)[C@]([H])(N([H])C(=O)[C@]([H])(N([H])C(=O)[C@]1([H])N([H])C(=O)[C@]2([H])N([H])C(=O)[C@@]([H])(C([H])(C([H])([H])[H])C([H])([H])[H])C([H])([H])C([H])=C([H])C([H])=C([H])C([H])=C([H])C(=C([H])C1([H])[H])C2([H])[H])C([H])([H])c1c([H])c([H])c([H])c([H])c1[H])C([H])([H])c1c([H])c([H])c([H])c([H])c1[H])C([H])([H])c1c([H])c([H])c([H])c([H])c1[H])C([H])([H])c1c([H])c([H])c([H])c([H])c1[H])C([H])([H])C([H])(C([H])([H])[H])C([H])([H])[H]


 86 91  0  0  0  0  0  0  0  0999 V2000
    5.2972   21.8134    7.8661 C   0  0  0  0  0  0  0  0  0  0  0  0
    6.3875   22.1942    5.5734 N   0  0  0  0  0  0  0  0  0  0  0  0
    6.3026   22.3974    6.9637 C   0  0  0  0  0  0  0  0  0  0  0  0
    7.1823   23.1558    7.4723 O   0  0  0  0  0  0  0  0  0  0  0  0
    5.6765   21.5982    5.1056 H   0  0  0  0  0  0  0  0  0  0  0  0
    7.4349   22.7879    4.7574 C   0  0  0  0  0  0  0  0  0  0  0  0
    9.6561   21.8661    3.9913 N   0  0  0  0  0  0  0  0  0  0  0  0
    8.2436   21.7776    4.0842 C   0  0  0  0  0  0  0  0  0  0  0  0
    7.7232   20.7432    3.5373 O   0  0  0  0  0  0  0  0  0  0  0  0
   10.1242   22.6810    4.4312 H   0  0  0  0  0  0  0  0  0  0  0  0
   10.4302   20.8309    3.3021 C   0  0  0  0  0  0  0  0  0  0  0  0
   10.9959   22.0930    1.1705 N   0  0  0  0  0  0  0  0  0  0  0  0
   11.3629   21.4816    2.3951 C   0  0  0  0  0  0  0  0  0  0  0  0
   12.6141   21.5371    2.6778 O   0  0  0  0  0  0  0  0  0  0  0  0
    9.9912   22.0824    0.9008 H   0  0  0  0  0  0  0  0  0  0  0  0
   12.0027   22.7418    0.2811 C   0  0  0  0  0  0  0  0  0  0  0  0
   11.4161   24.0875    0.0224 C   0  0  0  0  0  0  0  0  0  0  0  0
   11.1957   24.4879   -1.2706 O   0  0  0  0  0  0  0  0  0  0  0  0
   11.1343   24.8407    0.9729 O   0  0  0  0  0  0  0  0  0  0  0  0
   11.9643   24.5965   -1.9144 H   0  0  0  0  0  0  0  0  0  0  0  0
   12.1516   21.8804   -0.9116 C   0  0  0  0  0  0  0  0  0  0  0  0
   14.3086   22.7385   -1.9399 C   0  0  0  0  0  0  0  0  0  0  0  0
   13.5040   21.5968   -1.4383 C   0  0  0  0  0  0  0  0  0  0  0  0
   14.2538   20.7529   -0.4161 C   0  0  0  0  0  0  0  0  0  0  0  0
   11.1967   20.0251    4.3448 C   0  0  0  0  0  0  0  0  0  0  0  0
   10.3756   19.8009    5.5507 C   0  0  0  0  0  0  0  0  0  0  0  0
    9.5099   18.7288    5.6728 C   0  0  0  0  0  0  0  0  0  0  0  0
    8.7413   18.6019    6.8104 C   0  0  0  0  0  0  0  0  0  0  0  0
    8.8185   19.5260    7.8327 C   0  0  0  0  0  0  0  0  0  0  0  0
    9.6826   20.5852    7.6978 C   0  0  0  0  0  0  0  0  0  0  0  0
   10.4561   20.7227    6.5669 C   0  0  0  0  0  0  0  0  0  0  0  0
    6.7643   23.7458    3.7801 C   0  0  0  0  0  0  0  0  0  0  0  0
    7.2846   25.1150    3.8399 C   0  0  0  0  0  0  0  0  0  0  0  0
    8.6193   25.3955    3.8998 C   0  0  0  0  0  0  0  0  0  0  0  0
    9.0295   26.7137    3.9560 C   0  0  0  0  0  0  0  0  0  0  0  0
    8.1228   27.7508    3.9530 C   0  0  0  0  0  0  0  0  0  0  0  0
    6.7721   27.4937    3.8932 C   0  0  0  0  0  0  0  0  0  0  0  0
    6.3854   26.1671    3.8375 C   0  0  0  0  0  0  0  0  0  0  0  0
    5.1929   20.3802    7.5646 N   0  0  0  0  0  0  0  0  0  0  0  0
    5.4312   19.4135    8.6098 C   0  0  0  0  0  0  0  0  0  0  0  0
    5.6972   19.7796    9.7670 O   0  0  0  0  0  0  0  0  0  0  0  0
    4.9546   19.9985    6.6324 H   0  0  0  0  0  0  0  0  0  0  0  0
    5.3581   17.9605    8.2957 C   0  0  0  0  0  0  0  0  0  0  0  0
    4.7411   17.7355    7.0452 N   0  0  0  0  0  0  0  0  0  0  0  0
    5.1314   16.8975    5.9905 C   0  0  0  0  0  0  0  0  0  0  0  0
    6.1756   16.2118    6.0994 O   0  0  0  0  0  0  0  0  0  0  0  0
    3.8289   18.2800    6.8565 H   0  0  0  0  0  0  0  0  0  0  0  0
    4.3102   16.8047    4.7141 C   0  0  0  0  0  0  0  0  0  0  0  0
    3.8385   18.2166    4.4894 C   0  0  0  0  0  0  0  0  0  0  0  0
    2.8324   18.4275    3.4704 C   0  0  0  0  0  0  0  0  0  0  0  0
    5.1797   16.3172    3.6973 N   0  0  0  0  0  0  0  0  0  0  0  0
    5.3365   16.3432    2.2861 C   0  0  0  0  0  0  0  0  0  0  0  0
    6.2030   15.5556    1.8359 O   0  0  0  0  0  0  0  0  0  0  0  0
    4.6176   17.1750    1.2491 C   0  0  0  0  0  0  0  0  0  0  0  0
    3.1543   16.9615    1.4431 C   0  0  0  0  0  0  0  0  0  0  0  0
    2.4616   17.9964    2.2386 C   0  0  0  0  0  0  0  0  0  0  0  0
    1.2793   18.7035    1.8603 C   0  0  0  0  0  0  0  0  0  0  0  0
    0.5128   18.6787    0.7910 C   0  0  0  0  0  0  0  0  0  0  0  0
    0.5268   17.9577   -0.4303 C   0  0  0  0  0  0  0  0  0  0  0  0
    0.9951   18.2150   -1.6566 C   0  0  0  0  0  0  0  0  0  0  0  0
    1.6750   19.3695   -2.1655 C   0  0  0  0  0  0  0  0  0  0  0  0
    5.0951   18.5214    1.2937 N   0  0  0  0  0  0  0  0  0  0  0  0
    4.8388   19.6182    0.4852 C   0  0  0  0  0  0  0  0  0  0  0  0
    4.3678   20.6624    1.0905 O   0  0  0  0  0  0  0  0  0  0  0  0
    5.0166   19.7974   -0.9686 C   0  0  0  0  0  0  0  0  0  0  0  0
    4.1266   18.9163   -1.8054 C   0  0  0  0  0  0  0  0  0  0  0  0
    2.9312   19.7056   -2.2491 C   0  0  0  0  0  0  0  0  0  0  0  0
    5.9633   15.7582    4.1037 H   0  0  0  0  0  0  0  0  0  0  0  0
    5.7825   18.7322    2.0991 H   0  0  0  0  0  0  0  0  0  0  0  0
    6.4630   19.7297   -1.4045 C   0  0  0  0  0  0  0  0  0  0  0  0
    6.9700   18.3195   -1.6116 C   0  0  0  0  0  0  0  0  0  0  0  0
    7.3710   20.4839   -0.4315 C   0  0  0  0  0  0  0  0  0  0  0  0
    4.7555   17.2154    9.4733 C   0  0  0  0  0  0  0  0  0  0  0  0
    3.4599   16.5771    9.1880 C   0  0  0  0  0  0  0  0  0  0  0  0
    2.2703   17.2985    9.3778 C   0  0  0  0  0  0  0  0  0  0  0  0
    1.0317   16.7663    9.0996 C   0  0  0  0  0  0  0  0  0  0  0  0
    0.9065   15.4766    8.6125 C   0  0  0  0  0  0  0  0  0  0  0  0
    2.0605   14.7469    8.4168 C   0  0  0  0  0  0  0  0  0  0  0  0
    3.3024   15.3019    8.7040 C   0  0  0  0  0  0  0  0  0  0  0  0
    3.9865   22.5029    7.4934 C   0  0  0  0  0  0  0  0  0  0  0  0
    2.8045   21.7036    7.7225 C   0  0  0  0  0  0  0  0  0  0  0  0
    2.2602   20.9888    6.6681 C   0  0  0  0  0  0  0  0  0  0  0  0
    1.1330   20.2100    6.8279 C   0  0  0  0  0  0  0  0  0  0  0  0
    0.5081   20.1174    8.0530 C   0  0  0  0  0  0  0  0  0  0  0  0
    1.0323   20.8199    9.1166 C   0  0  0  0  0  0  0  0  0  0  0  0
    2.1758   21.6053    8.9364 C   0  0  0  0  0  0  0  0  0  0  0  0
 22 23  1  0  0  0
 23 24  1  0  0  0
 23 21  1  0  0  0
 21 16  1  0  0  0
 16 12  1  0  0  0
 12 13  1  0  0  0
 13 14  2  0  0  0
 13 11  1  0  0  0
 11 25  1  0  0  0
 25 26  1  0  0  0
 26 27  2  0  0  0
 27 28  1  0  0  0
 28 29  2  0  0  0
 29 30  1  0  0  0
 30 31  2  0  0  0
 11  7  1  0  0  0
  7  8  1  0  0  0
  8  9  2  0  0  0
  8  6  1  0  0  0
  6 32  1  0  0  0
 32 33  1  0  0  0
 33 34  2  0  0  0
 34 35  1  0  0  0
 35 36  2  0  0  0
 36 37  1  0  0  0
 37 38  2  0  0  0
  6  2  1  0  0  0
  2  3  1  0  0  0
  3  4  2  0  0  0
  3  1  1  0  0  0
  1 80  1  0  0  0
 80 81  1  0  0  0
 81 82  2  0  0  0
 82 83  1  0  0  0
 83 84  2  0  0  0
 84 85  1  0  0  0
 85 86  2  0  0  0
  1 39  1  0  0  0
 39 40  1  0  0  0
 40 41  2  0  0  0
 40 43  1  0  0  0
 43 73  1  0  0  0
 73 74  1  0  0  0
 74 75  2  0  0  0
 75 76  1  0  0  0
 76 77  2  0  0  0
 77 78  1  0  0  0
 78 79  2  0  0  0
 43 44  1  0  0  0
 44 45  1  0  0  0
 45 46  2  0  0  0
 45 48  1  0  0  0
 48 49  1  0  0  0
 49 50  1  0  0  0
 48 51  1  0  0  0
 51 52  1  0  0  0
 52 53  2  0  0  0
 52 54  1  0  0  0
 54 55  1  0  0  0
 55 56  1  0  0  0
 56 57  1  0  0  0
 57 58  2  0  0  0
 58 59  1  0  0  0
 59 60  2  0  0  0
 60 61  1  0  0  0
 54 62  1  0  0  0
 62 63  1  0  0  0
 63 64  2  0  0  0
 63 65  1  0  0  0
 65 66  1  0  0  0
 66 67  1  0  0  0
 65 70  1  0  0  0
 70 71  1  0  0  0
 70 72  1  0  0  0
 16 17  1  0  0  0
 17 18  1  0  0  0
 17 19  2  0  0  0
 31 26  1  0  0  0
 38 33  1  0  0  0
 86 81  1  0  0  0
 79 74  1  0  0  0
 56 50  2  0  0  0
 67 61  2  0  0  0
 12 15  1  0  0  0
  7 10  1  0  0  0
  2  5  1  0  0  0
 39 42  1  0  0  0
 44 47  1  0  0  0
 51 68  1  0  0  0
 62 69  1  0  0  0
 18 20  1  0  0  0
M  END
> <minimizedAffinity>
-7.89684

> <CNNscore>
0.0437788367

> <CNNaffinity>
7.3479309082

> <CNN_VS>
0.3216838539

> <CNNaffinity_variance>
1.9196946621

$$$$
[H]OC(=O)[C@@]([H])(N([H])C(=O)[C@]([H])(N([H])C(=O)[C@]([H])(N([H])C(=O)[C@]([H])(N([H])C(=O)[C@]([H])(N([H])C(=O)[C@]1([H])N([H])C(=O)[C@]2([H])N([H])C(=O)[C@@]([H])(C([H])(C([H])([H])[H])C([H])([H])[H])C([H])([H])C([H])=C([H])C([H])=C([H])C([H])=C([H])C(=C([H])C1([H])[H])C2([H])[H])C([H])([H])c1c([H])c([H])c([H])c([H])c1[H])C([H])([H])c1c([H])c([H])c([H])c([H])c1[H])C([H])([H])c1c([H])c([H])c([H])c([H])c1[H])C([H])([H])c1c([H])c([H])c([H])c([H])c1[H])C([H])([H])C([H])(C([H])([H])[H])C([H])([H])[H]


 86 91  0  0  0  0  0  0  0  0999 V2000
    6.2985   24.8311    4.5773 C   0  0  0  0  0  0  0  0  0  0  0  0
    5.6554   22.8365    6.0599 N   0  0  0  0  0  0  0  0  0  0  0  0
    5.5203   24.1730    5.6391 C   0  0  0  0  0  0  0  0  0  0  0  0
    4.6410   24.8615    6.2394 O   0  0  0  0  0  0  0  0  0  0  0  0
    6.3775   22.2370    5.6140 H   0  0  0  0  0  0  0  0  0  0  0  0
    4.8223   22.2547    7.1004 C   0  0  0  0  0  0  0  0  0  0  0  0
    4.6287   20.1223    5.7641 N   0  0  0  0  0  0  0  0  0  0  0  0
    4.0651   21.1053    6.6171 C   0  0  0  0  0  0  0  0  0  0  0  0
    2.8407   20.9129    6.9393 O   0  0  0  0  0  0  0  0  0  0  0  0
    5.6227   20.2289    5.4861 H   0  0  0  0  0  0  0  0  0  0  0  0
    3.8313   18.9851    5.2982 C   0  0  0  0  0  0  0  0  0  0  0  0
    3.5157   19.6841    2.8757 N   0  0  0  0  0  0  0  0  0  0  0  0
    4.0494   18.8257    3.8689 C   0  0  0  0  0  0  0  0  0  0  0  0
    4.7697   17.8603    3.4242 O   0  0  0  0  0  0  0  0  0  0  0  0
    2.9321   20.4873    3.1863 H   0  0  0  0  0  0  0  0  0  0  0  0
    3.7736   19.4640    1.4229 C   0  0  0  0  0  0  0  0  0  0  0  0
    4.9664   20.3161    1.1527 C   0  0  0  0  0  0  0  0  0  0  0  0
    6.2096   19.8697    1.5220 O   0  0  0  0  0  0  0  0  0  0  0  0
    4.8322   21.4242    0.6011 O   0  0  0  0  0  0  0  0  0  0  0  0
    6.4307   19.7055    2.4921 H   0  0  0  0  0  0  0  0  0  0  0  0
    2.5452   19.8528    0.6973 C   0  0  0  0  0  0  0  0  0  0  0  0
    0.8956   18.2463   -0.3724 C   0  0  0  0  0  0  0  0  0  0  0  0
    2.1230   19.0729   -0.4860 C   0  0  0  0  0  0  0  0  0  0  0  0
    2.0971   20.0014   -1.6929 C   0  0  0  0  0  0  0  0  0  0  0  0
    4.2944   17.7345    6.0367 C   0  0  0  0  0  0  0  0  0  0  0  0
    3.4296   17.4543    7.1996 C   0  0  0  0  0  0  0  0  0  0  0  0
    2.1384   16.9752    7.0687 C   0  0  0  0  0  0  0  0  0  0  0  0
    1.3704   16.7742    8.1958 C   0  0  0  0  0  0  0  0  0  0  0  0
    1.8654   17.0425    9.4560 C   0  0  0  0  0  0  0  0  0  0  0  0
    3.1491   17.5176    9.5709 C   0  0  0  0  0  0  0  0  0  0  0  0
    3.9264   17.7218    8.4528 C   0  0  0  0  0  0  0  0  0  0  0  0
    5.7326   21.9041    8.2713 C   0  0  0  0  0  0  0  0  0  0  0  0
    6.3278   23.0706    8.9300 C   0  0  0  0  0  0  0  0  0  0  0  0
    5.5781   24.0589    9.5001 C   0  0  0  0  0  0  0  0  0  0  0  0
    6.2156   25.1277   10.1004 C   0  0  0  0  0  0  0  0  0  0  0  0
    7.5896   25.2188   10.1365 C   0  0  0  0  0  0  0  0  0  0  0  0
    8.3672   24.2354    9.5689 C   0  0  0  0  0  0  0  0  0  0  0  0
    7.7071   23.1755    8.9742 C   0  0  0  0  0  0  0  0  0  0  0  0
    7.5885   24.1394    4.4631 N   0  0  0  0  0  0  0  0  0  0  0  0
    7.6726   22.9084    3.7137 C   0  0  0  0  0  0  0  0  0  0  0  0
    6.6729   22.4415    3.1423 O   0  0  0  0  0  0  0  0  0  0  0  0
    8.4684   24.4765    4.8915 H   0  0  0  0  0  0  0  0  0  0  0  0
    8.9733   22.1902    3.6263 C   0  0  0  0  0  0  0  0  0  0  0  0
    9.6589   22.5119    2.4341 N   0  0  0  0  0  0  0  0  0  0  0  0
    9.5689   21.9278    1.1623 C   0  0  0  0  0  0  0  0  0  0  0  0
    8.7820   20.9694    0.9763 O   0  0  0  0  0  0  0  0  0  0  0  0
   10.3601   23.3301    2.4909 H   0  0  0  0  0  0  0  0  0  0  0  0
   10.4098   22.4359    0.0017 C   0  0  0  0  0  0  0  0  0  0  0  0
   10.7704   23.8395    0.4095 C   0  0  0  0  0  0  0  0  0  0  0  0
   11.3822   24.6867   -0.5919 C   0  0  0  0  0  0  0  0  0  0  0  0
   11.5282   21.5620   -0.1125 N   0  0  0  0  0  0  0  0  0  0  0  0
   12.8676   21.5544   -0.5845 C   0  0  0  0  0  0  0  0  0  0  0  0
   13.4028   20.4211   -0.6379 O   0  0  0  0  0  0  0  0  0  0  0  0
   13.7415   22.7039   -1.0307 C   0  0  0  0  0  0  0  0  0  0  0  0
   12.9943   23.4482   -2.0853 C   0  0  0  0  0  0  0  0  0  0  0  0
   12.2655   24.6470   -1.6210 C   0  0  0  0  0  0  0  0  0  0  0  0
   12.3490   25.9579   -2.1827 C   0  0  0  0  0  0  0  0  0  0  0  0
   13.0376   26.4740   -3.1781 C   0  0  0  0  0  0  0  0  0  0  0  0
   13.9819   25.9669   -4.1069 C   0  0  0  0  0  0  0  0  0  0  0  0
   15.3185   25.9338   -4.1498 C   0  0  0  0  0  0  0  0  0  0  0  0
   16.2881   26.4280   -3.2171 C   0  0  0  0  0  0  0  0  0  0  0  0
   14.1820   23.4466    0.1082 N   0  0  0  0  0  0  0  0  0  0  0  0
   15.0753   24.4995    0.2337 C   0  0  0  0  0  0  0  0  0  0  0  0
   14.6000   25.5756    0.7764 O   0  0  0  0  0  0  0  0  0  0  0  0
   16.4961   24.5998   -0.1518 C   0  0  0  0  0  0  0  0  0  0  0  0
   16.7327   24.5173   -1.6370 C   0  0  0  0  0  0  0  0  0  0  0  0
   16.8897   25.9034   -2.1871 C   0  0  0  0  0  0  0  0  0  0  0  0
   11.3112   20.6153    0.2723 H   0  0  0  0  0  0  0  0  0  0  0  0
   13.7469   23.1377    1.0468 H   0  0  0  0  0  0  0  0  0  0  0  0
   17.3913   23.6600    0.6240 C   0  0  0  0  0  0  0  0  0  0  0  0
   16.6381   22.5827    1.3729 C   0  0  0  0  0  0  0  0  0  0  0  0
   18.3083   24.4284    1.5772 C   0  0  0  0  0  0  0  0  0  0  0  0
    8.7550   20.7099    3.8839 C   0  0  0  0  0  0  0  0  0  0  0  0
    8.7698   20.3337    5.3072 C   0  0  0  0  0  0  0  0  0  0  0  0
    9.6507   20.9788    6.1899 C   0  0  0  0  0  0  0  0  0  0  0  0
    9.6891   20.6919    7.5356 C   0  0  0  0  0  0  0  0  0  0  0  0
    8.8461   19.7400    8.0828 C   0  0  0  0  0  0  0  0  0  0  0  0
    7.9706   19.0920    7.2365 C   0  0  0  0  0  0  0  0  0  0  0  0
    7.9469   19.3956    5.8799 C   0  0  0  0  0  0  0  0  0  0  0  0
    6.5326   26.2523    5.0847 C   0  0  0  0  0  0  0  0  0  0  0  0
    6.1988   27.2887    4.1344 C   0  0  0  0  0  0  0  0  0  0  0  0
    4.8704   27.6417    3.9618 C   0  0  0  0  0  0  0  0  0  0  0  0
    4.4931   28.6228    3.0686 C   0  0  0  0  0  0  0  0  0  0  0  0
    5.4346   29.2890    2.3140 C   0  0  0  0  0  0  0  0  0  0  0  0
    6.7626   28.9545    2.4693 C   0  0  0  0  0  0  0  0  0  0  0  0
    7.1274   27.9566    3.3793 C   0  0  0  0  0  0  0  0  0  0  0  0
 22 23  1  0  0  0
 23 24  1  0  0  0
 23 21  1  0  0  0
 21 16  1  0  0  0
 16 12  1  0  0  0
 12 13  1  0  0  0
 13 14  2  0  0  0
 13 11  1  0  0  0
 11 25  1  0  0  0
 25 26  1  0  0  0
 26 27  2  0  0  0
 27 28  1  0  0  0
 28 29  2  0  0  0
 29 30  1  0  0  0
 30 31  2  0  0  0
 11  7  1  0  0  0
  7  8  1  0  0  0
  8  9  2  0  0  0
  8  6  1  0  0  0
  6 32  1  0  0  0
 32 33  1  0  0  0
 33 34  2  0  0  0
 34 35  1  0  0  0
 35 36  2  0  0  0
 36 37  1  0  0  0
 37 38  2  0  0  0
  6  2  1  0  0  0
  2  3  1  0  0  0
  3  4  2  0  0  0
  3  1  1  0  0  0
  1 80  1  0  0  0
 80 81  1  0  0  0
 81 82  2  0  0  0
 82 83  1  0  0  0
 83 84  2  0  0  0
 84 85  1  0  0  0
 85 86  2  0  0  0
  1 39  1  0  0  0
 39 40  1  0  0  0
 40 41  2  0  0  0
 40 43  1  0  0  0
 43 73  1  0  0  0
 73 74  1  0  0  0
 74 75  2  0  0  0
 75 76  1  0  0  0
 76 77  2  0  0  0
 77 78  1  0  0  0
 78 79  2  0  0  0
 43 44  1  0  0  0
 44 45  1  0  0  0
 45 46  2  0  0  0
 45 48  1  0  0  0
 48 49  1  0  0  0
 49 50  1  0  0  0
 48 51  1  0  0  0
 51 52  1  0  0  0
 52 53  2  0  0  0
 52 54  1  0  0  0
 54 55  1  0  0  0
 55 56  1  0  0  0
 56 57  1  0  0  0
 57 58  2  0  0  0
 58 59  1  0  0  0
 59 60  2  0  0  0
 60 61  1  0  0  0
 54 62  1  0  0  0
 62 63  1  0  0  0
 63 64  2  0  0  0
 63 65  1  0  0  0
 65 66  1  0  0  0
 66 67  1  0  0  0
 65 70  1  0  0  0
 70 71  1  0  0  0
 70 72  1  0  0  0
 16 17  1  0  0  0
 17 18  1  0  0  0
 17 19  2  0  0  0
 31 26  1  0  0  0
 38 33  1  0  0  0
 86 81  1  0  0  0
 79 74  1  0  0  0
 56 50  2  0  0  0
 67 61  2  0  0  0
 12 15  1  0  0  0
  7 10  1  0  0  0
  2  5  1  0  0  0
 39 42  1  0  0  0
 44 47  1  0  0  0
 51 68  1  0  0  0
 62 69  1  0  0  0
 18 20  1  0  0  0
M  END
> <minimizedAffinity>
-8.33874

> <CNNscore>
0.0435237400

> <CNNaffinity>
7.7945227623

> <CNN_VS>
0.3392467797

> <CNNaffinity_variance>
1.1160176992

$$$$
[H]OC(=O)[C@@]([H])(N([H])C(=O)[C@]([H])(N([H])C(=O)[C@]([H])(N([H])C(=O)[C@]([H])(N([H])C(=O)[C@]([H])(N([H])C(=O)[C@]1([H])N([H])C(=O)[C@]2([H])N([H])C(=O)[C@@]([H])(C([H])(C([H])([H])[H])C([H])([H])[H])C([H])([H])C([H])=C([H])C([H])=C([H])C([H])=C([H])C(=C([H])C1([H])[H])C2([H])[H])C([H])([H])c1c([H])c([H])c([H])c([H])c1[H])C([H])([H])c1c([H])c([H])c([H])c([H])c1[H])C([H])([H])c1c([H])c([H])c([H])c([H])c1[H])C([H])([H])c1c([H])c([H])c([H])c([H])c1[H])C([H])([H])C([H])(C([H])([H])[H])C([H])([H])[H]


 86 91  0  0  0  0  0  0  0  0999 V2000
    9.7459   21.4023    0.9138 C   0  0  0  0  0  0  0  0  0  0  0  0
    8.8950   21.3384    3.3350 N   0  0  0  0  0  0  0  0  0  0  0  0
    9.8444   21.0448    2.3381 C   0  0  0  0  0  0  0  0  0  0  0  0
   10.8766   20.4140    2.7181 O   0  0  0  0  0  0  0  0  0  0  0  0
    8.0214   21.8347    3.0701 H   0  0  0  0  0  0  0  0  0  0  0  0
    9.0851   20.9734    4.7300 C   0  0  0  0  0  0  0  0  0  0  0  0
    7.7703   22.6643    6.0650 N   0  0  0  0  0  0  0  0  0  0  0  0
    9.0047   22.1304    5.6147 C   0  0  0  0  0  0  0  0  0  0  0  0
   10.0502   22.7337    6.0426 O   0  0  0  0  0  0  0  0  0  0  0  0
    6.8955   22.2005    5.7547 H   0  0  0  0  0  0  0  0  0  0  0  0
    7.7344   23.8310    6.9502 C   0  0  0  0  0  0  0  0  0  0  0  0
    5.7693   25.3700    7.4261 N   0  0  0  0  0  0  0  0  0  0  0  0
    6.6359   24.6894    6.5351 C   0  0  0  0  0  0  0  0  0  0  0  0
    6.3943   24.8802    5.2886 O   0  0  0  0  0  0  0  0  0  0  0  0
    5.9297   25.2546    8.4475 H   0  0  0  0  0  0  0  0  0  0  0  0
    4.6564   26.2344    6.9364 C   0  0  0  0  0  0  0  0  0  0  0  0
    5.2234   27.6098    7.0289 C   0  0  0  0  0  0  0  0  0  0  0  0
    5.9309   27.9720    8.1466 O   0  0  0  0  0  0  0  0  0  0  0  0
    5.0508   28.4217    6.1009 O   0  0  0  0  0  0  0  0  0  0  0  0
    5.4879   27.9932    9.0522 H   0  0  0  0  0  0  0  0  0  0  0  0
    3.4877   25.9759    7.8047 C   0  0  0  0  0  0  0  0  0  0  0  0
    1.5996   24.4469    8.5419 C   0  0  0  0  0  0  0  0  0  0  0  0
    2.8979   24.6204    7.8442 C   0  0  0  0  0  0  0  0  0  0  0  0
    2.8849   24.0575    6.4291 C   0  0  0  0  0  0  0  0  0  0  0  0
    7.5050   23.3482    8.3779 C   0  0  0  0  0  0  0  0  0  0  0  0
    8.5910   23.7975    9.2708 C   0  0  0  0  0  0  0  0  0  0  0  0
    9.6275   22.9672    9.6582 C   0  0  0  0  0  0  0  0  0  0  0  0
   10.5877   23.4389   10.5279 C   0  0  0  0  0  0  0  0  0  0  0  0
   10.5351   24.7268   11.0215 C   0  0  0  0  0  0  0  0  0  0  0  0
    9.5003   25.5400   10.6281 C   0  0  0  0  0  0  0  0  0  0  0  0
    8.5356   25.0808    9.7594 C   0  0  0  0  0  0  0  0  0  0  0  0
    8.0505   19.9067    5.0678 C   0  0  0  0  0  0  0  0  0  0  0  0
    8.4125   19.0721    6.2173 C   0  0  0  0  0  0  0  0  0  0  0  0
    8.7218   19.5941    7.4402 C   0  0  0  0  0  0  0  0  0  0  0  0
    9.0549   18.7395    8.4735 C   0  0  0  0  0  0  0  0  0  0  0  0
    9.0821   17.3735    8.2979 C   0  0  0  0  0  0  0  0  0  0  0  0
    8.7742   16.8231    7.0746 C   0  0  0  0  0  0  0  0  0  0  0  0
    8.4438   17.6979    6.0558 C   0  0  0  0  0  0  0  0  0  0  0  0
    8.5075   20.8190    0.3828 N   0  0  0  0  0  0  0  0  0  0  0  0
    7.2869   21.5890    0.4145 C   0  0  0  0  0  0  0  0  0  0  0  0
    7.2772   22.7485    0.8611 O   0  0  0  0  0  0  0  0  0  0  0  0
    8.4405   19.8697   -0.0245 H   0  0  0  0  0  0  0  0  0  0  0  0
    6.0250   20.9849   -0.0931 C   0  0  0  0  0  0  0  0  0  0  0  0
    5.1095   20.7491    0.9563 N   0  0  0  0  0  0  0  0  0  0  0  0
    5.2621   19.9906    2.1260 C   0  0  0  0  0  0  0  0  0  0  0  0
    6.3479   19.4026    2.3445 O   0  0  0  0  0  0  0  0  0  0  0  0
    4.1422   21.2176    0.8621 H   0  0  0  0  0  0  0  0  0  0  0  0
    4.1329   19.8673    3.1368 C   0  0  0  0  0  0  0  0  0  0  0  0
    3.9092   18.3823    3.2431 C   0  0  0  0  0  0  0  0  0  0  0  0
    2.7334   17.9364    3.9599 C   0  0  0  0  0  0  0  0  0  0  0  0
    4.5897   20.4707    4.3430 N   0  0  0  0  0  0  0  0  0  0  0  0
    4.3719   20.4154    5.7452 C   0  0  0  0  0  0  0  0  0  0  0  0
    4.9151   21.3365    6.4012 O   0  0  0  0  0  0  0  0  0  0  0  0
    3.5861   19.4161    6.5625 C   0  0  0  0  0  0  0  0  0  0  0  0
    2.2131   19.3490    5.9839 C   0  0  0  0  0  0  0  0  0  0  0  0
    1.9739   18.2341    5.0439 C   0  0  0  0  0  0  0  0  0  0  0  0
    0.8988   17.2951    5.1016 C   0  0  0  0  0  0  0  0  0  0  0  0
   -0.1108   17.1246    5.9281 C   0  0  0  0  0  0  0  0  0  0  0  0
   -0.5620   17.7816    7.1013 C   0  0  0  0  0  0  0  0  0  0  0  0
   -0.3910   17.5682    8.4107 C   0  0  0  0  0  0  0  0  0  0  0  0
    0.3468   16.5473    9.0946 C   0  0  0  0  0  0  0  0  0  0  0  0
    4.3163   18.1914    6.6611 N   0  0  0  0  0  0  0  0  0  0  0  0
    4.0799   17.0322    7.3840 C   0  0  0  0  0  0  0  0  0  0  0  0
    4.0020   15.9432    6.6865 O   0  0  0  0  0  0  0  0  0  0  0  0
    3.9014   16.8291    8.8346 C   0  0  0  0  0  0  0  0  0  0  0  0
    2.6659   17.4836    9.3948 C   0  0  0  0  0  0  0  0  0  0  0  0
    1.5777   16.4587    9.5130 C   0  0  0  0  0  0  0  0  0  0  0  0
    5.3250   21.1882    4.1538 H   0  0  0  0  0  0  0  0  0  0  0  0
    5.2189   18.1530    6.0699 H   0  0  0  0  0  0  0  0  0  0  0  0
    5.1389   17.1581    9.6388 C   0  0  0  0  0  0  0  0  0  0  0  0
    5.6318   18.5750    9.4434 C   0  0  0  0  0  0  0  0  0  0  0  0
    6.2638   16.1602    9.3583 C   0  0  0  0  0  0  0  0  0  0  0  0
    6.3506   19.7869   -0.9674 C   0  0  0  0  0  0  0  0  0  0  0  0
    5.2227   19.3072   -1.7829 C   0  0  0  0  0  0  0  0  0  0  0  0
    4.8468   20.0130   -2.9370 C   0  0  0  0  0  0  0  0  0  0  0  0
    3.8212   19.5971   -3.7556 C   0  0  0  0  0  0  0  0  0  0  0  0
    3.1071   18.4462   -3.4697 C   0  0  0  0  0  0  0  0  0  0  0  0
    3.4571   17.7344   -2.3412 C   0  0  0  0  0  0  0  0  0  0  0  0
    4.4960   18.1708   -1.5268 C   0  0  0  0  0  0  0  0  0  0  0  0
   10.9448   20.7242    0.2544 C   0  0  0  0  0  0  0  0  0  0  0  0
   11.8284   21.6255   -0.4497 C   0  0  0  0  0  0  0  0  0  0  0  0
   11.3964   22.9120   -0.7274 C   0  0  0  0  0  0  0  0  0  0  0  0
   12.1961   23.8146   -1.3969 C   0  0  0  0  0  0  0  0  0  0  0  0
   13.4617   23.4616   -1.8134 C   0  0  0  0  0  0  0  0  0  0  0  0
   13.9128   22.1866   -1.5478 C   0  0  0  0  0  0  0  0  0  0  0  0
   13.0881   21.2839   -0.8682 C   0  0  0  0  0  0  0  0  0  0  0  0
 22 23  1  0  0  0
 23 24  1  0  0  0
 23 21  1  0  0  0
 21 16  1  0  0  0
 16 12  1  0  0  0
 12 13  1  0  0  0
 13 14  2  0  0  0
 13 11  1  0  0  0
 11 25  1  0  0  0
 25 26  1  0  0  0
 26 27  2  0  0  0
 27 28  1  0  0  0
 28 29  2  0  0  0
 29 30  1  0  0  0
 30 31  2  0  0  0
 11  7  1  0  0  0
  7  8  1  0  0  0
  8  9  2  0  0  0
  8  6  1  0  0  0
  6 32  1  0  0  0
 32 33  1  0  0  0
 33 34  2  0  0  0
 34 35  1  0  0  0
 35 36  2  0  0  0
 36 37  1  0  0  0
 37 38  2  0  0  0
  6  2  1  0  0  0
  2  3  1  0  0  0
  3  4  2  0  0  0
  3  1  1  0  0  0
  1 80  1  0  0  0
 80 81  1  0  0  0
 81 82  2  0  0  0
 82 83  1  0  0  0
 83 84  2  0  0  0
 84 85  1  0  0  0
 85 86  2  0  0  0
  1 39  1  0  0  0
 39 40  1  0  0  0
 40 41  2  0  0  0
 40 43  1  0  0  0
 43 73  1  0  0  0
 73 74  1  0  0  0
 74 75  2  0  0  0
 75 76  1  0  0  0
 76 77  2  0  0  0
 77 78  1  0  0  0
 78 79  2  0  0  0
 43 44  1  0  0  0
 44 45  1  0  0  0
 45 46  2  0  0  0
 45 48  1  0  0  0
 48 49  1  0  0  0
 49 50  1  0  0  0
 48 51  1  0  0  0
 51 52  1  0  0  0
 52 53  2  0  0  0
 52 54  1  0  0  0
 54 55  1  0  0  0
 55 56  1  0  0  0
 56 57  1  0  0  0
 57 58  2  0  0  0
 58 59  1  0  0  0
 59 60  2  0  0  0
 60 61  1  0  0  0
 54 62  1  0  0  0
 62 63  1  0  0  0
 63 64  2  0  0  0
 63 65  1  0  0  0
 65 66  1  0  0  0
 66 67  1  0  0  0
 65 70  1  0  0  0
 70 71  1  0  0  0
 70 72  1  0  0  0
 16 17  1  0  0  0
 17 18  1  0  0  0
 17 19  2  0  0  0
 31 26  1  0  0  0
 38 33  1  0  0  0
 86 81  1  0  0  0
 79 74  1  0  0  0
 56 50  2  0  0  0
 67 61  2  0  0  0
 12 15  1  0  0  0
  7 10  1  0  0  0
  2  5  1  0  0  0
 39 42  1  0  0  0
 44 47  1  0  0  0
 51 68  1  0  0  0
 62 69  1  0  0  0
 18 20  1  0  0  0
M  END
> <minimizedAffinity>
-7.75243

> <CNNscore>
0.0384682789

> <CNNaffinity>
7.1259865761

> <CNN_VS>
0.2741244435

> <CNNaffinity_variance>
1.7621729374

$$$$
[H]OC(=O)[C@@]([H])(N([H])C(=O)[C@]([H])(N([H])C(=O)[C@]([H])(N([H])C(=O)[C@]([H])(N([H])C(=O)[C@]([H])(N([H])C(=O)[C@]1([H])N([H])C(=O)[C@]2([H])N([H])C(=O)[C@@]([H])(C([H])(C([H])([H])[H])C([H])([H])[H])C([H])([H])C([H])=C([H])C([H])=C([H])C([H])=C([H])C(=C([H])C1([H])[H])C2([H])[H])C([H])([H])c1c([H])c([H])c([H])c([H])c1[H])C([H])([H])c1c([H])c([H])c([H])c([H])c1[H])C([H])([H])c1c([H])c([H])c([H])c([H])c1[H])C([H])([H])c1c([H])c([H])c([H])c([H])c1[H])C([H])([H])C([H])(C([H])([H])[H])C([H])([H])[H]


 86 91  0  0  0  0  0  0  0  0999 V2000
    5.5477   21.2483   -0.6994 C   0  0  0  0  0  0  0  0  0  0  0  0
    7.5328   22.5252    0.3102 N   0  0  0  0  0  0  0  0  0  0  0  0
    6.6094   21.4628    0.2971 C   0  0  0  0  0  0  0  0  0  0  0  0
    6.7155   20.6188    1.2374 O   0  0  0  0  0  0  0  0  0  0  0  0
    7.4734   23.2552   -0.4268 H   0  0  0  0  0  0  0  0  0  0  0  0
    8.5735   22.6464    1.3190 C   0  0  0  0  0  0  0  0  0  0  0  0
    8.9436   23.8049    3.5306 N   0  0  0  0  0  0  0  0  0  0  0  0
    8.0793   23.2650    2.5442 C   0  0  0  0  0  0  0  0  0  0  0  0
    6.8284   23.3609    2.8012 O   0  0  0  0  0  0  0  0  0  0  0  0
    9.9662   23.7617    3.3602 H   0  0  0  0  0  0  0  0  0  0  0  0
    8.4053   24.4139    4.7494 C   0  0  0  0  0  0  0  0  0  0  0  0
    6.4495   25.9653    4.2754 N   0  0  0  0  0  0  0  0  0  0  0  0
    7.8370   25.7077    4.4043 C   0  0  0  0  0  0  0  0  0  0  0  0
    8.6000   26.7191    4.1960 O   0  0  0  0  0  0  0  0  0  0  0  0
    5.7889   25.1794    4.4433 H   0  0  0  0  0  0  0  0  0  0  0  0
    5.9292   27.3161    3.9145 C   0  0  0  0  0  0  0  0  0  0  0  0
    4.4909   27.2443    4.2991 C   0  0  0  0  0  0  0  0  0  0  0  0
    3.5609   27.9249    3.5555 O   0  0  0  0  0  0  0  0  0  0  0  0
    4.1403   26.5760    5.2894 O   0  0  0  0  0  0  0  0  0  0  0  0
    3.5894   28.9308    3.4904 H   0  0  0  0  0  0  0  0  0  0  0  0
    6.1856   27.5119    2.4715 C   0  0  0  0  0  0  0  0  0  0  0  0
    5.8106   29.3892    0.8037 C   0  0  0  0  0  0  0  0  0  0  0  0
    6.5505   28.8560    1.9745 C   0  0  0  0  0  0  0  0  0  0  0  0
    6.5607   29.8208    3.1529 C   0  0  0  0  0  0  0  0  0  0  0  0
    7.3186   23.5016    5.3069 C   0  0  0  0  0  0  0  0  0  0  0  0
    7.2621   23.5823    6.7796 C   0  0  0  0  0  0  0  0  0  0  0  0
    6.4063   22.8013    7.5355 C   0  0  0  0  0  0  0  0  0  0  0  0
    6.3752   22.9569    8.9051 C   0  0  0  0  0  0  0  0  0  0  0  0
    7.1830   23.8794    9.5388 C   0  0  0  0  0  0  0  0  0  0  0  0
    8.0279   24.6478    8.7756 C   0  0  0  0  0  0  0  0  0  0  0  0
    8.0688   24.5013    7.4070 C   0  0  0  0  0  0  0  0  0  0  0  0
    9.1432   21.2531    1.5568 C   0  0  0  0  0  0  0  0  0  0  0  0
   10.5218   21.0876    1.0865 C   0  0  0  0  0  0  0  0  0  0  0  0
   10.8295   20.8059   -0.2134 C   0  0  0  0  0  0  0  0  0  0  0  0
   12.1549   20.6629   -0.5768 C   0  0  0  0  0  0  0  0  0  0  0  0
   13.1721   20.7977    0.3422 C   0  0  0  0  0  0  0  0  0  0  0  0
   12.8875   21.0814    1.6584 C   0  0  0  0  0  0  0  0  0  0  0  0
   11.5543   21.2204    1.9985 C   0  0  0  0  0  0  0  0  0  0  0  0
    4.4987   20.4306   -0.0778 N   0  0  0  0  0  0  0  0  0  0  0  0
    3.1226   20.8606   -0.1523 C   0  0  0  0  0  0  0  0  0  0  0  0
    2.8125   21.8999   -0.7587 O   0  0  0  0  0  0  0  0  0  0  0  0
    4.6752   19.5431    0.4249 H   0  0  0  0  0  0  0  0  0  0  0  0
    2.0636   20.0486    0.5067 C   0  0  0  0  0  0  0  0  0  0  0  0
    2.4510   19.6569    1.8073 N   0  0  0  0  0  0  0  0  0  0  0  0
    3.1539   18.5191    2.2291 C   0  0  0  0  0  0  0  0  0  0  0  0
    3.5299   17.6749    1.3815 O   0  0  0  0  0  0  0  0  0  0  0  0
    2.1752   20.3231    2.6100 H   0  0  0  0  0  0  0  0  0  0  0  0
    3.4696   18.2891    3.6987 C   0  0  0  0  0  0  0  0  0  0  0  0
    4.6473   17.3518    3.6686 C   0  0  0  0  0  0  0  0  0  0  0  0
    5.0507   16.7500    4.9217 C   0  0  0  0  0  0  0  0  0  0  0  0
    3.7597   19.5635    4.2639 N   0  0  0  0  0  0  0  0  0  0  0  0
    4.4880   20.1457    5.3350 C   0  0  0  0  0  0  0  0  0  0  0  0
    4.2564   21.3628    5.5318 O   0  0  0  0  0  0  0  0  0  0  0  0
    5.4970   19.5199    6.2702 C   0  0  0  0  0  0  0  0  0  0  0  0
    4.8530   18.3228    6.8839 C   0  0  0  0  0  0  0  0  0  0  0  0
    5.1744   17.0304    6.2434 C   0  0  0  0  0  0  0  0  0  0  0  0
    5.6490   15.8549    6.9020 C   0  0  0  0  0  0  0  0  0  0  0  0
    5.9382   15.5733    8.1544 C   0  0  0  0  0  0  0  0  0  0  0  0
    5.9102   16.2992    9.3726 C   0  0  0  0  0  0  0  0  0  0  0  0
    6.8257   16.9812   10.0698 C   0  0  0  0  0  0  0  0  0  0  0  0
    8.2134   17.2145    9.7974 C   0  0  0  0  0  0  0  0  0  0  0  0
    6.7336   19.3186    5.5825 N   0  0  0  0  0  0  0  0  0  0  0  0
    7.9759   18.8904    6.0247 C   0  0  0  0  0  0  0  0  0  0  0  0
    8.4514   17.8422    5.4300 O   0  0  0  0  0  0  0  0  0  0  0  0
    8.8591   19.4374    7.0727 C   0  0  0  0  0  0  0  0  0  0  0  0
    8.2844   19.3493    8.4622 C   0  0  0  0  0  0  0  0  0  0  0  0
    8.8560   18.1485    9.1549 C   0  0  0  0  0  0  0  0  0  0  0  0
    3.2953   20.3309    3.7283 H   0  0  0  0  0  0  0  0  0  0  0  0
    6.7059   19.5393    4.5260 H   0  0  0  0  0  0  0  0  0  0  0  0
    9.3757   20.8221    6.7531 C   0  0  0  0  0  0  0  0  0  0  0  0
   10.3851   20.8492    5.6265 C   0  0  0  0  0  0  0  0  0  0  0  0
    9.9497   21.5006    7.9980 C   0  0  0  0  0  0  0  0  0  0  0  0
    1.6328   18.9261   -0.4204 C   0  0  0  0  0  0  0  0  0  0  0  0
    2.0530   19.1012   -1.8205 C   0  0  0  0  0  0  0  0  0  0  0  0
    2.4530   17.9855   -2.5732 C   0  0  0  0  0  0  0  0  0  0  0  0
    2.8271   18.0818   -3.8944 C   0  0  0  0  0  0  0  0  0  0  0  0
    2.8234   19.3032   -4.5459 C   0  0  0  0  0  0  0  0  0  0  0  0
    2.4340   20.4150   -3.8284 C   0  0  0  0  0  0  0  0  0  0  0  0
    2.0598   20.2973   -2.4945 C   0  0  0  0  0  0  0  0  0  0  0  0
    6.2134   20.4485   -1.8171 C   0  0  0  0  0  0  0  0  0  0  0  0
    6.4983   19.0725   -1.4794 C   0  0  0  0  0  0  0  0  0  0  0  0
    5.4473   18.1795   -1.3494 C   0  0  0  0  0  0  0  0  0  0  0  0
    5.6593   16.8550   -1.0279 C   0  0  0  0  0  0  0  0  0  0  0  0
    6.9351   16.3744   -0.8250 C   0  0  0  0  0  0  0  0  0  0  0  0
    7.9964   17.2449   -0.9494 C   0  0  0  0  0  0  0  0  0  0  0  0
    7.7629   18.5852   -1.2754 C   0  0  0  0  0  0  0  0  0  0  0  0
 22 23  1  0  0  0
 23 24  1  0  0  0
 23 21  1  0  0  0
 21 16  1  0  0  0
 16 12  1  0  0  0
 12 13  1  0  0  0
 13 14  2  0  0  0
 13 11  1  0  0  0
 11 25  1  0  0  0
 25 26  1  0  0  0
 26 27  2  0  0  0
 27 28  1  0  0  0
 28 29  2  0  0  0
 29 30  1  0  0  0
 30 31  2  0  0  0
 11  7  1  0  0  0
  7  8  1  0  0  0
  8  9  2  0  0  0
  8  6  1  0  0  0
  6 32  1  0  0  0
 32 33  1  0  0  0
 33 34  2  0  0  0
 34 35  1  0  0  0
 35 36  2  0  0  0
 36 37  1  0  0  0
 37 38  2  0  0  0
  6  2  1  0  0  0
  2  3  1  0  0  0
  3  4  2  0  0  0
  3  1  1  0  0  0
  1 80  1  0  0  0
 80 81  1  0  0  0
 81 82  2  0  0  0
 82 83  1  0  0  0
 83 84  2  0  0  0
 84 85  1  0  0  0
 85 86  2  0  0  0
  1 39  1  0  0  0
 39 40  1  0  0  0
 40 41  2  0  0  0
 40 43  1  0  0  0
 43 73  1  0  0  0
 73 74  1  0  0  0
 74 75  2  0  0  0
 75 76  1  0  0  0
 76 77  2  0  0  0
 77 78  1  0  0  0
 78 79  2  0  0  0
 43 44  1  0  0  0
 44 45  1  0  0  0
 45 46  2  0  0  0
 45 48  1  0  0  0
 48 49  1  0  0  0
 49 50  1  0  0  0
 48 51  1  0  0  0
 51 52  1  0  0  0
 52 53  2  0  0  0
 52 54  1  0  0  0
 54 55  1  0  0  0
 55 56  1  0  0  0
 56 57  1  0  0  0
 57 58  2  0  0  0
 58 59  1  0  0  0
 59 60  2  0  0  0
 60 61  1  0  0  0
 54 62  1  0  0  0
 62 63  1  0  0  0
 63 64  2  0  0  0
 63 65  1  0  0  0
 65 66  1  0  0  0
 66 67  1  0  0  0
 65 70  1  0  0  0
 70 71  1  0  0  0
 70 72  1  0  0  0
 16 17  1  0  0  0
 17 18  1  0  0  0
 17 19  2  0  0  0
 31 26  1  0  0  0
 38 33  1  0  0  0
 86 81  1  0  0  0
 79 74  1  0  0  0
 56 50  2  0  0  0
 67 61  2  0  0  0
 12 15  1  0  0  0
  7 10  1  0  0  0
  2  5  1  0  0  0
 39 42  1  0  0  0
 44 47  1  0  0  0
 51 68  1  0  0  0
 62 69  1  0  0  0
 18 20  1  0  0  0
M  END
> <minimizedAffinity>
-9.50557

> <CNNscore>
0.0371257402

> <CNNaffinity>
7.2538518906

> <CNN_VS>
0.2693046331

> <CNNaffinity_variance>
4.4316043854

$$$$
[H]OC(=O)[C@@]([H])(N([H])C(=O)[C@]([H])(N([H])C(=O)[C@]([H])(N([H])C(=O)[C@]([H])(N([H])C(=O)[C@]([H])(N([H])C(=O)[C@]1([H])N([H])C(=O)[C@]2([H])N([H])C(=O)[C@@]([H])(C([H])(C([H])([H])[H])C([H])([H])[H])C([H])([H])C([H])=C([H])C([H])=C([H])C([H])=C([H])C(=C([H])C1([H])[H])C2([H])[H])C([H])([H])c1c([H])c([H])c([H])c([H])c1[H])C([H])([H])c1c([H])c([H])c([H])c([H])c1[H])C([H])([H])c1c([H])c([H])c([H])c([H])c1[H])C([H])([H])c1c([H])c([H])c([H])c([H])c1[H])C([H])([H])C([H])(C([H])([H])[H])C([H])([H])[H]


 86 91  0  0  0  0  0  0  0  0999 V2000
    5.9705   21.1472   -0.5215 C   0  0  0  0  0  0  0  0  0  0  0  0
    7.8502   22.7053    0.2718 N   0  0  0  0  0  0  0  0  0  0  0  0
    7.0861   21.5264    0.3605 C   0  0  0  0  0  0  0  0  0  0  0  0
    7.4011   20.7252    1.2914 O   0  0  0  0  0  0  0  0  0  0  0  0
    7.6172   23.4044   -0.4607 H   0  0  0  0  0  0  0  0  0  0  0  0
    8.9592   22.9895    1.1688 C   0  0  0  0  0  0  0  0  0  0  0  0
    9.3972   23.9664    3.4545 N   0  0  0  0  0  0  0  0  0  0  0  0
    8.5039   23.4899    2.4613 C   0  0  0  0  0  0  0  0  0  0  0  0
    7.2632   23.5321    2.7757 O   0  0  0  0  0  0  0  0  0  0  0  0
   10.4123   23.9637    3.2400 H   0  0  0  0  0  0  0  0  0  0  0  0
    8.8978   24.4566    4.7415 C   0  0  0  0  0  0  0  0  0  0  0  0
    6.8705   25.9624    4.4598 N   0  0  0  0  0  0  0  0  0  0  0  0
    8.2701   25.7514    4.5279 C   0  0  0  0  0  0  0  0  0  0  0  0
    8.9872   26.8074    4.3895 O   0  0  0  0  0  0  0  0  0  0  0  0
    6.2459   25.1385    4.5752 H   0  0  0  0  0  0  0  0  0  0  0  0
    6.2881   27.3172    4.2343 C   0  0  0  0  0  0  0  0  0  0  0  0
    5.0112   27.2745    5.0020 C   0  0  0  0  0  0  0  0  0  0  0  0
    4.7243   28.2821    5.8871 O   0  0  0  0  0  0  0  0  0  0  0  0
    4.2164   26.3294    4.8428 O   0  0  0  0  0  0  0  0  0  0  0  0
    5.3108   28.4436    6.6915 H   0  0  0  0  0  0  0  0  0  0  0  0
    6.1385   27.4909    2.7734 C   0  0  0  0  0  0  0  0  0  0  0  0
    4.2973   29.1335    2.1753 C   0  0  0  0  0  0  0  0  0  0  0  0
    5.7446   28.8108    2.2355 C   0  0  0  0  0  0  0  0  0  0  0  0
    6.5575   29.8847    2.9463 C   0  0  0  0  0  0  0  0  0  0  0  0
    7.8706   23.4630    5.2722 C   0  0  0  0  0  0  0  0  0  0  0  0
    8.1253   23.1432    6.6904 C   0  0  0  0  0  0  0  0  0  0  0  0
    7.3895   23.6978    7.7222 C   0  0  0  0  0  0  0  0  0  0  0  0
    7.7075   23.3873    9.0274 C   0  0  0  0  0  0  0  0  0  0  0  0
    8.7487   22.5318    9.3259 C   0  0  0  0  0  0  0  0  0  0  0  0
    9.4705   21.9884    8.2912 C   0  0  0  0  0  0  0  0  0  0  0  0
    9.1622   22.2901    6.9835 C   0  0  0  0  0  0  0  0  0  0  0  0
    9.7836   21.7139    1.2938 C   0  0  0  0  0  0  0  0  0  0  0  0
   11.1108   21.8025    0.6774 C   0  0  0  0  0  0  0  0  0  0  0  0
   11.9799   22.8220    0.9397 C   0  0  0  0  0  0  0  0  0  0  0  0
   13.2128   22.8344    0.3159 C   0  0  0  0  0  0  0  0  0  0  0  0
   13.5844   21.8420   -0.5643 C   0  0  0  0  0  0  0  0  0  0  0  0
   12.7258   20.8038   -0.8450 C   0  0  0  0  0  0  0  0  0  0  0  0
   11.4979   20.8125   -0.2089 C   0  0  0  0  0  0  0  0  0  0  0  0
    4.9312   20.5191    0.3038 N   0  0  0  0  0  0  0  0  0  0  0  0
    3.5819   21.0306    0.2607 C   0  0  0  0  0  0  0  0  0  0  0  0
    3.2839   21.9782   -0.4857 O   0  0  0  0  0  0  0  0  0  0  0  0
    5.0966   19.7139    0.9329 H   0  0  0  0  0  0  0  0  0  0  0  0
    2.5363   20.4150    1.1225 C   0  0  0  0  0  0  0  0  0  0  0  0
    3.1104   19.6172    2.1369 N   0  0  0  0  0  0  0  0  0  0  0  0
    2.6459   18.4249    2.7108 C   0  0  0  0  0  0  0  0  0  0  0  0
    1.5640   17.9290    2.3159 O   0  0  0  0  0  0  0  0  0  0  0  0
    4.0501   19.9601    2.5414 H   0  0  0  0  0  0  0  0  0  0  0  0
    3.4313   17.7203    3.8057 C   0  0  0  0  0  0  0  0  0  0  0  0
    4.7160   18.5015    3.8827 C   0  0  0  0  0  0  0  0  0  0  0  0
    5.7880   17.9419    4.6782 C   0  0  0  0  0  0  0  0  0  0  0  0
    2.6425   17.7874    4.9892 N   0  0  0  0  0  0  0  0  0  0  0  0
    2.7851   17.7716    6.4021 C   0  0  0  0  0  0  0  0  0  0  0  0
    1.7114   17.6574    7.0406 O   0  0  0  0  0  0  0  0  0  0  0  0
    4.0333   17.8715    7.2485 C   0  0  0  0  0  0  0  0  0  0  0  0
    4.9739   16.8123    6.7816 C   0  0  0  0  0  0  0  0  0  0  0  0
    6.0117   17.2596    5.8294 C   0  0  0  0  0  0  0  0  0  0  0  0
    7.4180   17.0361    5.9445 C   0  0  0  0  0  0  0  0  0  0  0  0
    8.1689   16.4381    6.8446 C   0  0  0  0  0  0  0  0  0  0  0  0
    7.9168   15.7714    8.0708 C   0  0  0  0  0  0  0  0  0  0  0  0
    7.9369   16.1469    9.3545 C   0  0  0  0  0  0  0  0  0  0  0  0
    8.2365   17.4188    9.9434 C   0  0  0  0  0  0  0  0  0  0  0  0
    4.5109   19.2185    7.2484 N   0  0  0  0  0  0  0  0  0  0  0  0
    5.5355   19.8340    7.9511 C   0  0  0  0  0  0  0  0  0  0  0  0
    6.4441   20.4086    7.2280 O   0  0  0  0  0  0  0  0  0  0  0  0
    5.7660   19.9463    9.4042 C   0  0  0  0  0  0  0  0  0  0  0  0
    6.0314   18.6284   10.0836 C   0  0  0  0  0  0  0  0  0  0  0  0
    7.5106   18.4545   10.2573 C   0  0  0  0  0  0  0  0  0  0  0  0
    1.6266   17.8800    4.7637 H   0  0  0  0  0  0  0  0  0  0  0  0
    3.9827   19.8867    6.5849 H   0  0  0  0  0  0  0  0  0  0  0  0
    4.7033   20.7536   10.1151 C   0  0  0  0  0  0  0  0  0  0  0  0
    5.2617   21.8040   11.0498 C   0  0  0  0  0  0  0  0  0  0  0  0
    3.7232   19.8457   10.8600 C   0  0  0  0  0  0  0  0  0  0  0  0
    1.4981   19.7301    0.2517 C   0  0  0  0  0  0  0  0  0  0  0  0
    2.0413   19.1201   -0.9731 C   0  0  0  0  0  0  0  0  0  0  0  0
    2.0525   19.8524   -2.1711 C   0  0  0  0  0  0  0  0  0  0  0  0
    2.5746   19.3473   -3.3403 C   0  0  0  0  0  0  0  0  0  0  0  0
    3.1197   18.0756   -3.3832 C   0  0  0  0  0  0  0  0  0  0  0  0
    3.1211   17.3356   -2.2192 C   0  0  0  0  0  0  0  0  0  0  0  0
    2.5889   17.8632   -1.0481 C   0  0  0  0  0  0  0  0  0  0  0  0
    6.5570   20.1052   -1.4714 C   0  0  0  0  0  0  0  0  0  0  0  0
    6.5256   18.7514   -0.9666 C   0  0  0  0  0  0  0  0  0  0  0  0
    7.2918   17.7815   -1.5919 C   0  0  0  0  0  0  0  0  0  0  0  0
    7.3004   16.4734   -1.1545 C   0  0  0  0  0  0  0  0  0  0  0  0
    6.5407   16.0874   -0.0711 C   0  0  0  0  0  0  0  0  0  0  0  0
    5.7705   17.0358    0.5670 C   0  0  0  0  0  0  0  0  0  0  0  0
    5.7734   18.3578    0.1094 C   0  0  0  0  0  0  0  0  0  0  0  0
 22 23  1  0  0  0
 23 24  1  0  0  0
 23 21  1  0  0  0
 21 16  1  0  0  0
 16 12  1  0  0  0
 12 13  1  0  0  0
 13 14  2  0  0  0
 13 11  1  0  0  0
 11 25  1  0  0  0
 25 26  1  0  0  0
 26 27  2  0  0  0
 27 28  1  0  0  0
 28 29  2  0  0  0
 29 30  1  0  0  0
 30 31  2  0  0  0
 11  7  1  0  0  0
  7  8  1  0  0  0
  8  9  2  0  0  0
  8  6  1  0  0  0
  6 32  1  0  0  0
 32 33  1  0  0  0
 33 34  2  0  0  0
 34 35  1  0  0  0
 35 36  2  0  0  0
 36 37  1  0  0  0
 37 38  2  0  0  0
  6  2  1  0  0  0
  2  3  1  0  0  0
  3  4  2  0  0  0
  3  1  1  0  0  0
  1 80  1  0  0  0
 80 81  1  0  0  0
 81 82  2  0  0  0
 82 83  1  0  0  0
 83 84  2  0  0  0
 84 85  1  0  0  0
 85 86  2  0  0  0
  1 39  1  0  0  0
 39 40  1  0  0  0
 40 41  2  0  0  0
 40 43  1  0  0  0
 43 73  1  0  0  0
 73 74  1  0  0  0
 74 75  2  0  0  0
 75 76  1  0  0  0
 76 77  2  0  0  0
 77 78  1  0  0  0
 78 79  2  0  0  0
 43 44  1  0  0  0
 44 45  1  0  0  0
 45 46  2  0  0  0
 45 48  1  0  0  0
 48 49  1  0  0  0
 49 50  1  0  0  0
 48 51  1  0  0  0
 51 52  1  0  0  0
 52 53  2  0  0  0
 52 54  1  0  0  0
 54 55  1  0  0  0
 55 56  1  0  0  0
 56 57  1  0  0  0
 57 58  2  0  0  0
 58 59  1  0  0  0
 59 60  2  0  0  0
 60 61  1  0  0  0
 54 62  1  0  0  0
 62 63  1  0  0  0
 63 64  2  0  0  0
 63 65  1  0  0  0
 65 66  1  0  0  0
 66 67  1  0  0  0
 65 70  1  0  0  0
 70 71  1  0  0  0
 70 72  1  0  0  0
 16 17  1  0  0  0
 17 18  1  0  0  0
 17 19  2  0  0  0
 31 26  1  0  0  0
 38 33  1  0  0  0
 86 81  1  0  0  0
 79 74  1  0  0  0
 56 50  2  0  0  0
 67 61  2  0  0  0
 12 15  1  0  0  0
  7 10  1  0  0  0
  2  5  1  0  0  0
 39 42  1  0  0  0
 44 47  1  0  0  0
 51 68  1  0  0  0
 62 69  1  0  0  0
 18 20  1  0  0  0
M  END
> <minimizedAffinity>
-9.54473

> <CNNscore>
0.0363343097

> <CNNaffinity>
7.0737190247

> <CNN_VS>
0.2570186853

> <CNNaffinity_variance>
4.5800485611

$$$$
[H]OC(=O)[C@@]([H])(N([H])C(=O)[C@]([H])(N([H])C(=O)[C@]([H])(N([H])C(=O)[C@]([H])(N([H])C(=O)[C@]([H])(N([H])C(=O)[C@]1([H])N([H])C(=O)[C@]2([H])N([H])C(=O)[C@@]([H])(C([H])(C([H])([H])[H])C([H])([H])[H])C([H])([H])C([H])=C([H])C([H])=C([H])C([H])=C([H])C(=C([H])C1([H])[H])C2([H])[H])C([H])([H])c1c([H])c([H])c([H])c([H])c1[H])C([H])([H])c1c([H])c([H])c([H])c([H])c1[H])C([H])([H])c1c([H])c([H])c([H])c([H])c1[H])C([H])([H])c1c([H])c([H])c([H])c([H])c1[H])C([H])([H])C([H])(C([H])([H])[H])C([H])([H])[H]


 86 91  0  0  0  0  0  0  0  0999 V2000
    8.6049   20.9745    5.8217 C   0  0  0  0  0  0  0  0  0  0  0  0
    7.1167   22.1309    7.5648 N   0  0  0  0  0  0  0  0  0  0  0  0
    8.3629   21.8701    6.9643 C   0  0  0  0  0  0  0  0  0  0  0  0
    9.3609   22.4712    7.4646 O   0  0  0  0  0  0  0  0  0  0  0  0
    6.2713   21.6457    7.2051 H   0  0  0  0  0  0  0  0  0  0  0  0
    6.9608   23.0564    8.6758 C   0  0  0  0  0  0  0  0  0  0  0  0
    5.4786   24.3446    7.0902 N   0  0  0  0  0  0  0  0  0  0  0  0
    6.2330   24.2598    8.2883 C   0  0  0  0  0  0  0  0  0  0  0  0
    6.2292   25.3156    9.0130 O   0  0  0  0  0  0  0  0  0  0  0  0
    5.4415   23.5088    6.4764 H   0  0  0  0  0  0  0  0  0  0  0  0
    4.7656   25.5745    6.7367 C   0  0  0  0  0  0  0  0  0  0  0  0
    6.4931   25.9425    4.9100 N   0  0  0  0  0  0  0  0  0  0  0  0
    5.1607   25.9646    5.3922 C   0  0  0  0  0  0  0  0  0  0  0  0
    4.2814   26.3598    4.5443 O   0  0  0  0  0  0  0  0  0  0  0  0
    7.2416   25.6209    5.5568 H   0  0  0  0  0  0  0  0  0  0  0  0
    6.8343   26.3595    3.5189 C   0  0  0  0  0  0  0  0  0  0  0  0
    7.9380   25.4309    3.1427 C   0  0  0  0  0  0  0  0  0  0  0  0
    7.7439   24.5330    2.1243 O   0  0  0  0  0  0  0  0  0  0  0  0
    9.0230   25.4689    3.7521 O   0  0  0  0  0  0  0  0  0  0  0  0
    7.0396   23.8151    2.1977 H   0  0  0  0  0  0  0  0  0  0  0  0
    7.2056   27.7900    3.5702 C   0  0  0  0  0  0  0  0  0  0  0  0
    5.3956   28.3633    1.8846 C   0  0  0  0  0  0  0  0  0  0  0  0
    6.6779   28.7146    2.5439 C   0  0  0  0  0  0  0  0  0  0  0  0
    6.6767   30.1250    3.1186 C   0  0  0  0  0  0  0  0  0  0  0  0
    3.2677   25.2938    6.7766 C   0  0  0  0  0  0  0  0  0  0  0  0
    2.6359   25.9496    7.9383 C   0  0  0  0  0  0  0  0  0  0  0  0
    3.2959   26.8851    8.7148 C   0  0  0  0  0  0  0  0  0  0  0  0
    2.6606   27.4286    9.8111 C   0  0  0  0  0  0  0  0  0  0  0  0
    1.3754   27.0566   10.1504 C   0  0  0  0  0  0  0  0  0  0  0  0
    0.7323   26.1269    9.3702 C   0  0  0  0  0  0  0  0  0  0  0  0
    1.3558   25.5773    8.2723 C   0  0  0  0  0  0  0  0  0  0  0  0
    6.2771   22.2994    9.8080 C   0  0  0  0  0  0  0  0  0  0  0  0
    4.8138   22.2932    9.7189 C   0  0  0  0  0  0  0  0  0  0  0  0
    4.1323   21.5256    8.8190 C   0  0  0  0  0  0  0  0  0  0  0  0
    2.7518   21.5779    8.7970 C   0  0  0  0  0  0  0  0  0  0  0  0
    2.0479   22.3866    9.6618 C   0  0  0  0  0  0  0  0  0  0  0  0
    2.7121   23.1698   10.5781 C   0  0  0  0  0  0  0  0  0  0  0  0
    4.0933   23.1007   10.5817 C   0  0  0  0  0  0  0  0  0  0  0  0
    7.7074   19.8197    5.9505 N   0  0  0  0  0  0  0  0  0  0  0  0
    8.0081   18.7880    6.9144 C   0  0  0  0  0  0  0  0  0  0  0  0
    9.0022   18.8786    7.6545 O   0  0  0  0  0  0  0  0  0  0  0  0
    6.8502   19.6844    5.3863 H   0  0  0  0  0  0  0  0  0  0  0  0
    7.1163   17.6014    7.0213 C   0  0  0  0  0  0  0  0  0  0  0  0
    6.2723   17.4896    5.8941 N   0  0  0  0  0  0  0  0  0  0  0  0
    5.6687   16.3540    5.3349 C   0  0  0  0  0  0  0  0  0  0  0  0
    5.8595   15.2309    5.8590 O   0  0  0  0  0  0  0  0  0  0  0  0
    6.0446   18.4070    5.3737 H   0  0  0  0  0  0  0  0  0  0  0  0
    4.7851   16.4591    4.1019 C   0  0  0  0  0  0  0  0  0  0  0  0
    4.4022   17.9145    4.0599 C   0  0  0  0  0  0  0  0  0  0  0  0
    3.3671   18.3033    3.1258 C   0  0  0  0  0  0  0  0  0  0  0  0
    5.5711   16.0362    2.9924 N   0  0  0  0  0  0  0  0  0  0  0  0
    5.6641   16.2124    1.5863 C   0  0  0  0  0  0  0  0  0  0  0  0
    6.4524   15.4278    1.0062 O   0  0  0  0  0  0  0  0  0  0  0  0
    4.9573   17.2007    0.6875 C   0  0  0  0  0  0  0  0  0  0  0  0
    3.4932   17.0598    0.9348 C   0  0  0  0  0  0  0  0  0  0  0  0
    2.9110   18.0394    1.8756 C   0  0  0  0  0  0  0  0  0  0  0  0
    1.7642   18.8585    1.6415 C   0  0  0  0  0  0  0  0  0  0  0  0
    0.9493   19.0041    0.6186 C   0  0  0  0  0  0  0  0  0  0  0  0
    0.8572   18.4272   -0.6738 C   0  0  0  0  0  0  0  0  0  0  0  0
    1.2851   18.7920   -1.8875 C   0  0  0  0  0  0  0  0  0  0  0  0
    2.0190   19.9514   -2.3016 C   0  0  0  0  0  0  0  0  0  0  0  0
    5.5281   18.5003    0.8547 N   0  0  0  0  0  0  0  0  0  0  0  0
    5.3112   19.6959    0.1871 C   0  0  0  0  0  0  0  0  0  0  0  0
    4.9419   20.6923    0.9283 O   0  0  0  0  0  0  0  0  0  0  0  0
    5.4338   20.0276   -1.2455 C   0  0  0  0  0  0  0  0  0  0  0  0
    4.4474   19.3056   -2.1255 C   0  0  0  0  0  0  0  0  0  0  0  0
    3.2902   20.2144   -2.4148 C   0  0  0  0  0  0  0  0  0  0  0  0
    6.3320   15.3861    3.2920 H   0  0  0  0  0  0  0  0  0  0  0  0
    6.2649   18.5741    1.6405 H   0  0  0  0  0  0  0  0  0  0  0  0
    6.8503   19.9182   -1.7630 C   0  0  0  0  0  0  0  0  0  0  0  0
    7.2407   18.5156   -2.1740 C   0  0  0  0  0  0  0  0  0  0  0  0
    7.8543   20.4751   -0.7522 C   0  0  0  0  0  0  0  0  0  0  0  0
    6.4193   17.6089    8.3701 C   0  0  0  0  0  0  0  0  0  0  0  0
    6.6859   16.4203    9.1969 C   0  0  0  0  0  0  0  0  0  0  0  0
    5.7644   16.0368   10.1844 C   0  0  0  0  0  0  0  0  0  0  0  0
    5.9437   14.9188   10.9672 C   0  0  0  0  0  0  0  0  0  0  0  0
    7.0584   14.1132   10.8096 C   0  0  0  0  0  0  0  0  0  0  0  0
    7.9788   14.4683    9.8456 C   0  0  0  0  0  0  0  0  0  0  0  0
    7.7800   15.6014    9.0649 C   0  0  0  0  0  0  0  0  0  0  0  0
   10.0502   20.5096    5.9858 C   0  0  0  0  0  0  0  0  0  0  0  0
   10.8054   20.4597    4.7545 C   0  0  0  0  0  0  0  0  0  0  0  0
   10.8610   21.5877    3.9524 C   0  0  0  0  0  0  0  0  0  0  0  0
   11.5653   21.5977    2.7665 C   0  0  0  0  0  0  0  0  0  0  0  0
   12.2427   20.4759    2.3394 C   0  0  0  0  0  0  0  0  0  0  0  0
   12.2016   19.3418    3.1217 C   0  0  0  0  0  0  0  0  0  0  0  0
   11.4818   19.3491    4.3211 C   0  0  0  0  0  0  0  0  0  0  0  0
 22 23  1  0  0  0
 23 24  1  0  0  0
 23 21  1  0  0  0
 21 16  1  0  0  0
 16 12  1  0  0  0
 12 13  1  0  0  0
 13 14  2  0  0  0
 13 11  1  0  0  0
 11 25  1  0  0  0
 25 26  1  0  0  0
 26 27  2  0  0  0
 27 28  1  0  0  0
 28 29  2  0  0  0
 29 30  1  0  0  0
 30 31  2  0  0  0
 11  7  1  0  0  0
  7  8  1  0  0  0
  8  9  2  0  0  0
  8  6  1  0  0  0
  6 32  1  0  0  0
 32 33  1  0  0  0
 33 34  2  0  0  0
 34 35  1  0  0  0
 35 36  2  0  0  0
 36 37  1  0  0  0
 37 38  2  0  0  0
  6  2  1  0  0  0
  2  3  1  0  0  0
  3  4  2  0  0  0
  3  1  1  0  0  0
  1 80  1  0  0  0
 80 81  1  0  0  0
 81 82  2  0  0  0
 82 83  1  0  0  0
 83 84  2  0  0  0
 84 85  1  0  0  0
 85 86  2  0  0  0
  1 39  1  0  0  0
 39 40  1  0  0  0
 40 41  2  0  0  0
 40 43  1  0  0  0
 43 73  1  0  0  0
 73 74  1  0  0  0
 74 75  2  0  0  0
 75 76  1  0  0  0
 76 77  2  0  0  0
 77 78  1  0  0  0
 78 79  2  0  0  0
 43 44  1  0  0  0
 44 45  1  0  0  0
 45 46  2  0  0  0
 45 48  1  0  0  0
 48 49  1  0  0  0
 49 50  1  0  0  0
 48 51  1  0  0  0
 51 52  1  0  0  0
 52 53  2  0  0  0
 52 54  1  0  0  0
 54 55  1  0  0  0
 55 56  1  0  0  0
 56 57  1  0  0  0
 57 58  2  0  0  0
 58 59  1  0  0  0
 59 60  2  0  0  0
 60 61  1  0  0  0
 54 62  1  0  0  0
 62 63  1  0  0  0
 63 64  2  0  0  0
 63 65  1  0  0  0
 65 66  1  0  0  0
 66 67  1  0  0  0
 65 70  1  0  0  0
 70 71  1  0  0  0
 70 72  1  0  0  0
 16 17  1  0  0  0
 17 18  1  0  0  0
 17 19  2  0  0  0
 31 26  1  0  0  0
 38 33  1  0  0  0
 86 81  1  0  0  0
 79 74  1  0  0  0
 56 50  2  0  0  0
 67 61  2  0  0  0
 12 15  1  0  0  0
  7 10  1  0  0  0
  2  5  1  0  0  0
 39 42  1  0  0  0
 44 47  1  0  0  0
 51 68  1  0  0  0
 62 69  1  0  0  0
 18 20  1  0  0  0
M  END
> <minimizedAffinity>
-8.50529

> <CNNscore>
0.0342825204

> <CNNaffinity>
6.9582471848

> <CNN_VS>
0.2385462523

> <CNNaffinity_variance>
2.5227718353

$$$$
[H]O[C@@]1([H])C([H])([H])N(S(=O)(=O)c2c([H])c([H])c(OC([H])([H])[H])c([H])c2[H])[C@]([H])(O[H])[C@@]([H])(O[H])[C@]1([H])O[H]


 25 26  0  0  0  0  0  0  0  0999 V2000
   11.9671   23.2604   -0.0375 N   0  0  0  0  0  0  0  0  0  0  0  0
   11.0587   23.1544   -1.1109 C   0  0  0  0  0  0  0  0  0  0  0  0
   10.6836   21.6698   -1.2361 C   0  0  0  0  0  0  0  0  0  0  0  0
   10.0315   21.4341   -2.4177 O   0  0  0  0  0  0  0  0  0  0  0  0
    9.7723   21.4536   -0.0212 C   0  0  0  0  0  0  0  0  0  0  0  0
    9.1832   20.2071   -0.1285 O   0  0  0  0  0  0  0  0  0  0  0  0
   10.6480   21.5562    1.1886 C   0  0  0  0  0  0  0  0  0  0  0  0
    9.7838   21.8217    2.2793 O   0  0  0  0  0  0  0  0  0  0  0  0
   11.7448   22.5253    1.1335 C   0  0  0  0  0  0  0  0  0  0  0  0
   12.9492   21.8513    1.4573 O   0  0  0  0  0  0  0  0  0  0  0  0
   10.2370   20.5311   -2.7274 H   0  0  0  0  0  0  0  0  0  0  0  0
    9.0363   20.0552   -1.1138 H   0  0  0  0  0  0  0  0  0  0  0  0
   10.0589   22.6853    2.6712 H   0  0  0  0  0  0  0  0  0  0  0  0
   13.0494   21.7719    2.4495 H   0  0  0  0  0  0  0  0  0  0  0  0
   13.5696   23.3776   -0.5818 S   0  0  0  0  0  0  0  0  0  0  0  0
   14.0476   21.9929   -0.9992 O   0  0  0  0  0  0  0  0  0  0  0  0
   14.5212   23.8193    0.4943 O   0  0  0  0  0  0  0  0  0  0  0  0
   13.9287   26.0518   -4.1241 C   0  0  0  0  0  0  0  0  0  0  0  0
   12.9966   26.3339   -3.1728 C   0  0  0  0  0  0  0  0  0  0  0  0
   12.8808   25.5045   -2.0721 C   0  0  0  0  0  0  0  0  0  0  0  0
   13.7258   24.4099   -1.9804 C   0  0  0  0  0  0  0  0  0  0  0  0
   14.6713   24.1144   -2.9346 C   0  0  0  0  0  0  0  0  0  0  0  0
   14.7779   24.9609   -4.0424 C   0  0  0  0  0  0  0  0  0  0  0  0
   15.1166   26.6190   -6.2072 C   0  0  0  0  0  0  0  0  0  0  0  0
   14.0839   26.8610   -5.2555 O   0  0  0  0  0  0  0  0  0  0  0  0
 24 25  1  0  0  0
 25 18  1  0  0  0
 18 19  2  0  0  0
 19 20  1  0  0  0
 20 21  2  0  0  0
 21 22  1  0  0  0
 22 23  2  0  0  0
 21 15  1  0  0  0
 15 16  2  0  0  0
 15 17  2  0  0  0
 15  1  1  0  0  0
  1  2  1  0  0  0
  2  3  1  0  0  0
  3  4  1  0  0  0
  3  5  1  0  0  0
  5  6  1  0  0  0
  5  7  1  0  0  0
  7  8  1  0  0  0
  7  9  1  0  0  0
  9 10  1  0  0  0
 23 18  1  0  0  0
  9  1  1  0  0  0
  4 11  1  0  0  0
  6 12  1  0  0  0
  8 13  1  0  0  0
 10 14  1  0  0  0
M  END
> <minimizedAffinity>
-8.95117

> <CNNscore>
0.5367550254

> <CNNaffinity>
5.6349344254

> <CNN_VS>
3.0245792866

> <CNNaffinity_variance>
0.1651591361

$$$$
[H]O[C@@]1([H])C([H])([H])N(S(=O)(=O)c2c([H])c([H])c(OC([H])([H])[H])c([H])c2[H])[C@]([H])(O[H])[C@@]([H])(O[H])[C@]1([H])O[H]


 25 26  0  0  0  0  0  0  0  0999 V2000
   12.7131   22.8021   -0.9866 N   0  0  0  0  0  0  0  0  0  0  0  0
   13.2732   21.8466   -0.1138 C   0  0  0  0  0  0  0  0  0  0  0  0
   12.3297   21.7347    1.0936 C   0  0  0  0  0  0  0  0  0  0  0  0
   12.9303   21.0453    2.1140 O   0  0  0  0  0  0  0  0  0  0  0  0
   11.1321   20.9740    0.5101 C   0  0  0  0  0  0  0  0  0  0  0  0
   10.2929   20.6109    1.5475 O   0  0  0  0  0  0  0  0  0  0  0  0
   10.4635   21.9087   -0.4492 C   0  0  0  0  0  0  0  0  0  0  0  0
    9.6801   21.0985   -1.3076 O   0  0  0  0  0  0  0  0  0  0  0  0
   11.3314   22.8067   -1.2143 C   0  0  0  0  0  0  0  0  0  0  0  0
   10.8667   24.1337   -1.0333 O   0  0  0  0  0  0  0  0  0  0  0  0
   12.6054   21.3842    2.9701 H   0  0  0  0  0  0  0  0  0  0  0  0
   10.8933   20.4174    2.3333 H   0  0  0  0  0  0  0  0  0  0  0  0
   10.0041   21.2443   -2.2290 H   0  0  0  0  0  0  0  0  0  0  0  0
   10.1020   24.3234   -1.6497 H   0  0  0  0  0  0  0  0  0  0  0  0
   13.4749   24.3106   -0.8369 S   0  0  0  0  0  0  0  0  0  0  0  0
   14.8258   24.1122   -0.1619 O   0  0  0  0  0  0  0  0  0  0  0  0
   12.7216   25.2598    0.0521 O   0  0  0  0  0  0  0  0  0  0  0  0
   14.2295   26.2611   -4.7680 C   0  0  0  0  0  0  0  0  0  0  0  0
   13.2220   26.7269   -3.9799 C   0  0  0  0  0  0  0  0  0  0  0  0
   12.9833   26.1225   -2.7590 C   0  0  0  0  0  0  0  0  0  0  0  0
   13.7865   25.0574   -2.3832 C   0  0  0  0  0  0  0  0  0  0  0  0
   14.8072   24.5777   -3.1705 C   0  0  0  0  0  0  0  0  0  0  0  0
   15.0379   25.1978   -4.4024 C   0  0  0  0  0  0  0  0  0  0  0  0
   15.4712   26.2715   -6.8965 C   0  0  0  0  0  0  0  0  0  0  0  0
   14.5096   26.8396   -6.0114 O   0  0  0  0  0  0  0  0  0  0  0  0
 24 25  1  0  0  0
 25 18  1  0  0  0
 18 19  2  0  0  0
 19 20  1  0  0  0
 20 21  2  0  0  0
 21 22  1  0  0  0
 22 23  2  0  0  0
 21 15  1  0  0  0
 15 16  2  0  0  0
 15 17  2  0  0  0
 15  1  1  0  0  0
  1  2  1  0  0  0
  2  3  1  0  0  0
  3  4  1  0  0  0
  3  5  1  0  0  0
  5  6  1  0  0  0
  5  7  1  0  0  0
  7  8  1  0  0  0
  7  9  1  0  0  0
  9 10  1  0  0  0
 23 18  1  0  0  0
  9  1  1  0  0  0
  4 11  1  0  0  0
  6 12  1  0  0  0
  8 13  1  0  0  0
 10 14  1  0  0  0
M  END
> <minimizedAffinity>
-9.12327

> <CNNscore>
0.5265447497

> <CNNaffinity>
5.4630680084

> <CNN_VS>
2.8765497208

> <CNNaffinity_variance>
0.2236548364

$$$$
[H]O[C@@]1([H])C([H])([H])N(S(=O)(=O)c2c([H])c([H])c(OC([H])([H])[H])c([H])c2[H])[C@]([H])(O[H])[C@@]([H])(O[H])[C@]1([H])O[H]


 25 26  0  0  0  0  0  0  0  0999 V2000
   11.9735   23.1868   -0.0297 N   0  0  0  0  0  0  0  0  0  0  0  0
   11.0604   23.1017   -1.1010 C   0  0  0  0  0  0  0  0  0  0  0  0
   10.6809   21.6205   -1.2503 C   0  0  0  0  0  0  0  0  0  0  0  0
   10.0234   21.4068   -2.4331 O   0  0  0  0  0  0  0  0  0  0  0  0
    9.7740   21.3857   -0.0354 C   0  0  0  0  0  0  0  0  0  0  0  0
    9.1812   20.1427   -0.1618 O   0  0  0  0  0  0  0  0  0  0  0  0
   10.6549   21.4651    1.1723 C   0  0  0  0  0  0  0  0  0  0  0  0
    9.7959   21.7139    2.2710 O   0  0  0  0  0  0  0  0  0  0  0  0
   11.7540   22.4321    1.1293 C   0  0  0  0  0  0  0  0  0  0  0  0
   12.9579   21.7496    1.4365 O   0  0  0  0  0  0  0  0  0  0  0  0
   10.2251   20.5088   -2.7591 H   0  0  0  0  0  0  0  0  0  0  0  0
    9.0299   20.0083   -1.1490 H   0  0  0  0  0  0  0  0  0  0  0  0
   10.0749   22.5700    2.6766 H   0  0  0  0  0  0  0  0  0  0  0  0
   13.0620   21.6529    2.4267 H   0  0  0  0  0  0  0  0  0  0  0  0
   13.5741   23.3093   -0.5785 S   0  0  0  0  0  0  0  0  0  0  0  0
   14.0467   21.9308   -1.0215 O   0  0  0  0  0  0  0  0  0  0  0  0
   14.5312   23.7300    0.5011 O   0  0  0  0  0  0  0  0  0  0  0  0
   14.0040   25.9621   -4.1289 C   0  0  0  0  0  0  0  0  0  0  0  0
   14.8137   24.8741   -4.0131 C   0  0  0  0  0  0  0  0  0  0  0  0
   14.6845   24.0487   -2.9107 C   0  0  0  0  0  0  0  0  0  0  0  0
   13.7272   24.3650   -1.9598 C   0  0  0  0  0  0  0  0  0  0  0  0
   12.9033   25.4612   -2.0656 C   0  0  0  0  0  0  0  0  0  0  0  0
   13.0444   26.2874   -3.1849 C   0  0  0  0  0  0  0  0  0  0  0  0
   15.1060   26.6631   -6.2186 C   0  0  0  0  0  0  0  0  0  0  0  0
   14.0969   26.8268   -5.2257 O   0  0  0  0  0  0  0  0  0  0  0  0
 24 25  1  0  0  0
 25 18  1  0  0  0
 18 19  2  0  0  0
 19 20  1  0  0  0
 20 21  2  0  0  0
 21 22  1  0  0  0
 22 23  2  0  0  0
 21 15  1  0  0  0
 15 16  2  0  0  0
 15 17  2  0  0  0
 15  1  1  0  0  0
  1  2  1  0  0  0
  2  3  1  0  0  0
  3  4  1  0  0  0
  3  5  1  0  0  0
  5  6  1  0  0  0
  5  7  1  0  0  0
  7  8  1  0  0  0
  7  9  1  0  0  0
  9 10  1  0  0  0
 23 18  1  0  0  0
  9  1  1  0  0  0
  4 11  1  0  0  0
  6 12  1  0  0  0
  8 13  1  0  0  0
 10 14  1  0  0  0
M  END
> <minimizedAffinity>
-8.95457

> <CNNscore>
0.5107456446

> <CNNaffinity>
5.5987653732

> <CNN_VS>
2.8595449924

> <CNNaffinity_variance>
0.1642557979

$$$$
[H]O[C@@]1([H])C([H])([H])N(S(=O)(=O)c2c([H])c([H])c(OC([H])([H])[H])c([H])c2[H])[C@]([H])(O[H])[C@@]([H])(O[H])[C@]1([H])O[H]


 25 26  0  0  0  0  0  0  0  0999 V2000
   11.3708   22.9711   -1.0937 N   0  0  0  0  0  0  0  0  0  0  0  0
   11.1796   21.5744   -1.1273 C   0  0  0  0  0  0  0  0  0  0  0  0
   10.7956   21.1398    0.2954 C   0  0  0  0  0  0  0  0  0  0  0  0
   10.8653   19.7772    0.4199 O   0  0  0  0  0  0  0  0  0  0  0  0
    9.3575   21.6581    0.4244 C   0  0  0  0  0  0  0  0  0  0  0  0
    8.8068   21.1453    1.5846 O   0  0  0  0  0  0  0  0  0  0  0  0
    9.4474   23.1519    0.4606 C   0  0  0  0  0  0  0  0  0  0  0  0
    8.1604   23.6326    0.1148 O   0  0  0  0  0  0  0  0  0  0  0  0
   10.4849   23.7743   -0.3648 C   0  0  0  0  0  0  0  0  0  0  0  0
   11.2557   24.6299    0.4619 O   0  0  0  0  0  0  0  0  0  0  0  0
   11.1206   19.5474    1.3339 H   0  0  0  0  0  0  0  0  0  0  0  0
    9.2012   20.2244    1.6937 H   0  0  0  0  0  0  0  0  0  0  0  0
    8.2593   24.1843   -0.6982 H   0  0  0  0  0  0  0  0  0  0  0  0
   10.7971   25.5115    0.5765 H   0  0  0  0  0  0  0  0  0  0  0  0
   13.0165   23.3771   -1.0223 S   0  0  0  0  0  0  0  0  0  0  0  0
   13.8419   22.1115   -1.2142 O   0  0  0  0  0  0  0  0  0  0  0  0
   13.4266   23.9201    0.3177 O   0  0  0  0  0  0  0  0  0  0  0  0
   14.2552   26.1599   -4.2703 C   0  0  0  0  0  0  0  0  0  0  0  0
   14.9514   25.0047   -4.0863 C   0  0  0  0  0  0  0  0  0  0  0  0
   14.5708   24.1387   -3.0773 C   0  0  0  0  0  0  0  0  0  0  0  0
   13.4863   24.4844   -2.2869 C   0  0  0  0  0  0  0  0  0  0  0  0
   12.7750   25.6484   -2.4628 C   0  0  0  0  0  0  0  0  0  0  0  0
   13.1702   26.5151   -3.4864 C   0  0  0  0  0  0  0  0  0  0  0  0
   15.3075   26.6514   -6.4436 C   0  0  0  0  0  0  0  0  0  0  0  0
   14.6019   27.0677   -5.2776 O   0  0  0  0  0  0  0  0  0  0  0  0
 24 25  1  0  0  0
 25 18  1  0  0  0
 18 19  2  0  0  0
 19 20  1  0  0  0
 20 21  2  0  0  0
 21 22  1  0  0  0
 22 23  2  0  0  0
 21 15  1  0  0  0
 15 16  2  0  0  0
 15 17  2  0  0  0
 15  1  1  0  0  0
  1  2  1  0  0  0
  2  3  1  0  0  0
  3  4  1  0  0  0
  3  5  1  0  0  0
  5  6  1  0  0  0
  5  7  1  0  0  0
  7  8  1  0  0  0
  7  9  1  0  0  0
  9 10  1  0  0  0
 23 18  1  0  0  0
  9  1  1  0  0  0
  4 11  1  0  0  0
  6 12  1  0  0  0
  8 13  1  0  0  0
 10 14  1  0  0  0
M  END
> <minimizedAffinity>
-8.80226

> <CNNscore>
0.4891183674

> <CNNaffinity>
5.3781256676

> <CNN_VS>
2.6305401325

> <CNNaffinity_variance>
0.0635384098

$$$$
[H]O[C@@]1([H])C([H])([H])N(S(=O)(=O)c2c([H])c([H])c(OC([H])([H])[H])c([H])c2[H])[C@]([H])(O[H])[C@@]([H])(O[H])[C@]1([H])O[H]


 25 26  0  0  0  0  0  0  0  0999 V2000
   12.4889   22.7252   -0.9894 N   0  0  0  0  0  0  0  0  0  0  0  0
   13.7812   22.1924   -0.8034 C   0  0  0  0  0  0  0  0  0  0  0  0
   13.9777   22.0101    0.7094 C   0  0  0  0  0  0  0  0  0  0  0  0
   15.2940   21.7649    0.9997 O   0  0  0  0  0  0  0  0  0  0  0  0
   13.0843   20.8015    1.0173 C   0  0  0  0  0  0  0  0  0  0  0  0
   13.3330   20.3886    2.3134 O   0  0  0  0  0  0  0  0  0  0  0  0
   11.6715   21.2629    0.8386 C   0  0  0  0  0  0  0  0  0  0  0  0
   10.8939   20.0920    0.6619 O   0  0  0  0  0  0  0  0  0  0  0  0
   11.4203   22.2322   -0.2303 C   0  0  0  0  0  0  0  0  0  0  0  0
   10.7371   23.3416    0.3282 O   0  0  0  0  0  0  0  0  0  0  0  0
   15.5073   22.1355    1.8775 H   0  0  0  0  0  0  0  0  0  0  0  0
   14.3135   20.5571    2.4734 H   0  0  0  0  0  0  0  0  0  0  0  0
   10.4581   20.1569   -0.2219 H   0  0  0  0  0  0  0  0  0  0  0  0
    9.7585   23.1480    0.4028 H   0  0  0  0  0  0  0  0  0  0  0  0
   12.5342   24.3993   -1.2607 S   0  0  0  0  0  0  0  0  0  0  0  0
   13.1250   25.0787   -0.0322 O   0  0  0  0  0  0  0  0  0  0  0  0
   11.1673   25.0009   -1.4293 O   0  0  0  0  0  0  0  0  0  0  0  0
   15.0943   25.5505   -4.7173 C   0  0  0  0  0  0  0  0  0  0  0  0
   14.0428   26.3456   -4.3779 C   0  0  0  0  0  0  0  0  0  0  0  0
   13.2441   25.9903   -3.3061 C   0  0  0  0  0  0  0  0  0  0  0  0
   13.5490   24.8290   -2.6141 C   0  0  0  0  0  0  0  0  0  0  0  0
   14.6084   24.0175   -2.9471 C   0  0  0  0  0  0  0  0  0  0  0  0
   15.4078   24.3881   -4.0328 C   0  0  0  0  0  0  0  0  0  0  0  0
   15.4142   26.4301   -6.9969 C   0  0  0  0  0  0  0  0  0  0  0  0
   15.9309   25.8678   -5.7937 O   0  0  0  0  0  0  0  0  0  0  0  0
 24 25  1  0  0  0
 25 18  1  0  0  0
 18 19  2  0  0  0
 19 20  1  0  0  0
 20 21  2  0  0  0
 21 22  1  0  0  0
 22 23  2  0  0  0
 21 15  1  0  0  0
 15 16  2  0  0  0
 15 17  2  0  0  0
 15  1  1  0  0  0
  1  2  1  0  0  0
  2  3  1  0  0  0
  3  4  1  0  0  0
  3  5  1  0  0  0
  5  6  1  0  0  0
  5  7  1  0  0  0
  7  8  1  0  0  0
  7  9  1  0  0  0
  9 10  1  0  0  0
 23 18  1  0  0  0
  9  1  1  0  0  0
  4 11  1  0  0  0
  6 12  1  0  0  0
  8 13  1  0  0  0
 10 14  1  0  0  0
M  END
> <minimizedAffinity>
-8.11608

> <CNNscore>
0.4400064349

> <CNNaffinity>
5.4734544754

> <CNN_VS>
2.4083552361

> <CNNaffinity_variance>
0.2570187449

$$$$
[H]O[C@@]1([H])C([H])([H])N(S(=O)(=O)c2c([H])c([H])c(OC([H])([H])[H])c([H])c2[H])[C@]([H])(O[H])[C@@]([H])(O[H])[C@]1([H])O[H]


 25 26  0  0  0  0  0  0  0  0999 V2000
   14.3488   26.5355   -1.5322 N   0  0  0  0  0  0  0  0  0  0  0  0
   15.7280   26.2567   -1.6255 C   0  0  0  0  0  0  0  0  0  0  0  0
   15.9375   25.4577   -2.9209 C   0  0  0  0  0  0  0  0  0  0  0  0
   17.1912   24.9060   -2.9511 O   0  0  0  0  0  0  0  0  0  0  0  0
   15.7517   26.5273   -4.0049 C   0  0  0  0  0  0  0  0  0  0  0  0
   16.1282   25.9908   -5.2225 O   0  0  0  0  0  0  0  0  0  0  0  0
   14.3032   26.9045   -3.9837 C   0  0  0  0  0  0  0  0  0  0  0  0
   14.2157   28.1683   -4.6178 O   0  0  0  0  0  0  0  0  0  0  0  0
   13.6406   26.9200   -2.6776 C   0  0  0  0  0  0  0  0  0  0  0  0
   12.4784   26.1125   -2.7600 O   0  0  0  0  0  0  0  0  0  0  0  0
   17.1624   24.0613   -3.4400 H   0  0  0  0  0  0  0  0  0  0  0  0
   16.8898   25.3617   -5.0232 H   0  0  0  0  0  0  0  0  0  0  0  0
   13.8355   28.8021   -3.9629 H   0  0  0  0  0  0  0  0  0  0  0  0
   11.7230   26.6277   -3.1659 H   0  0  0  0  0  0  0  0  0  0  0  0
   13.5665   25.4780   -0.4609 S   0  0  0  0  0  0  0  0  0  0  0  0
   12.1071   25.8961   -0.3383 O   0  0  0  0  0  0  0  0  0  0  0  0
   14.1186   25.5468    0.9352 O   0  0  0  0  0  0  0  0  0  0  0  0
   13.5324   21.2565   -1.8773 C   0  0  0  0  0  0  0  0  0  0  0  0
   12.6057   21.6563   -0.9638 C   0  0  0  0  0  0  0  0  0  0  0  0
   12.6143   22.9662   -0.5200 C   0  0  0  0  0  0  0  0  0  0  0  0
   13.5743   23.8272   -1.0276 C   0  0  0  0  0  0  0  0  0  0  0  0
   14.5157   23.4354   -1.9506 C   0  0  0  0  0  0  0  0  0  0  0  0
   14.4959   22.1084   -2.3909 C   0  0  0  0  0  0  0  0  0  0  0  0
   13.4822   19.6557   -3.7500 C   0  0  0  0  0  0  0  0  0  0  0  0
   13.5641   19.9418   -2.3564 O   0  0  0  0  0  0  0  0  0  0  0  0
 24 25  1  0  0  0
 25 18  1  0  0  0
 18 19  2  0  0  0
 19 20  1  0  0  0
 20 21  2  0  0  0
 21 22  1  0  0  0
 22 23  2  0  0  0
 21 15  1  0  0  0
 15 16  2  0  0  0
 15 17  2  0  0  0
 15  1  1  0  0  0
  1  2  1  0  0  0
  2  3  1  0  0  0
  3  4  1  0  0  0
  3  5  1  0  0  0
  5  6  1  0  0  0
  5  7  1  0  0  0
  7  8  1  0  0  0
  7  9  1  0  0  0
  9 10  1  0  0  0
 23 18  1  0  0  0
  9  1  1  0  0  0
  4 11  1  0  0  0
  6 12  1  0  0  0
  8 13  1  0  0  0
 10 14  1  0  0  0
M  END
> <minimizedAffinity>
5.97855

> <CNNscore>
0.4361861348

> <CNNaffinity>
5.1967740059

> <CNN_VS>
2.2667608261

> <CNNaffinity_variance>
0.6363289952

$$$$
[H]O[C@@]1([H])C([H])([H])N(S(=O)(=O)c2c([H])c([H])c(OC([H])([H])[H])c([H])c2[H])[C@]([H])(O[H])[C@@]([H])(O[H])[C@]1([H])O[H]


 25 26  0  0  0  0  0  0  0  0999 V2000
   14.5184   26.1489   -1.5676 N   0  0  0  0  0  0  0  0  0  0  0  0
   15.8234   25.7652   -1.9398 C   0  0  0  0  0  0  0  0  0  0  0  0
   15.6851   24.5569   -2.8785 C   0  0  0  0  0  0  0  0  0  0  0  0
   16.8981   23.9476   -3.0639 O   0  0  0  0  0  0  0  0  0  0  0  0
   15.1580   25.1974   -4.1691 C   0  0  0  0  0  0  0  0  0  0  0  0
   15.1919   24.2507   -5.1765 O   0  0  0  0  0  0  0  0  0  0  0  0
   13.7624   25.6529   -3.8763 C   0  0  0  0  0  0  0  0  0  0  0  0
   13.4503   26.6237   -4.8597 O   0  0  0  0  0  0  0  0  0  0  0  0
   13.4993   26.1608   -2.5280 C   0  0  0  0  0  0  0  0  0  0  0  0
   12.3931   25.4525   -1.9950 O   0  0  0  0  0  0  0  0  0  0  0  0
   16.7631   22.9900   -3.1987 H   0  0  0  0  0  0  0  0  0  0  0  0
   16.0019   23.6803   -4.9920 H   0  0  0  0  0  0  0  0  0  0  0  0
   13.2488   27.4678   -4.3885 H   0  0  0  0  0  0  0  0  0  0  0  0
   11.5345   25.8447   -2.3263 H   0  0  0  0  0  0  0  0  0  0  0  0
   14.1143   25.5789   -0.0216 S   0  0  0  0  0  0  0  0  0  0  0  0
   12.9906   26.4405    0.5397 O   0  0  0  0  0  0  0  0  0  0  0  0
   15.2433   25.7074    0.9619 O   0  0  0  0  0  0  0  0  0  0  0  0
   12.5789   21.3992   -0.0418 C   0  0  0  0  0  0  0  0  0  0  0  0
   12.2376   22.2254    0.9849 C   0  0  0  0  0  0  0  0  0  0  0  0
   12.7141   23.5238    0.9956 C   0  0  0  0  0  0  0  0  0  0  0  0
   13.5270   23.9356   -0.0485 C   0  0  0  0  0  0  0  0  0  0  0  0
   13.8788   23.1106   -1.0912 C   0  0  0  0  0  0  0  0  0  0  0  0
   13.3903   21.8004   -1.0899 C   0  0  0  0  0  0  0  0  0  0  0  0
   11.6651   19.4985   -1.3164 C   0  0  0  0  0  0  0  0  0  0  0  0
   12.1218   20.0774   -0.0969 O   0  0  0  0  0  0  0  0  0  0  0  0
 24 25  1  0  0  0
 25 18  1  0  0  0
 18 19  2  0  0  0
 19 20  1  0  0  0
 20 21  2  0  0  0
 21 22  1  0  0  0
 22 23  2  0  0  0
 21 15  1  0  0  0
 15 16  2  0  0  0
 15 17  2  0  0  0
 15  1  1  0  0  0
  1  2  1  0  0  0
  2  3  1  0  0  0
  3  4  1  0  0  0
  3  5  1  0  0  0
  5  6  1  0  0  0
  5  7  1  0  0  0
  7  8  1  0  0  0
  7  9  1  0  0  0
  9 10  1  0  0  0
 23 18  1  0  0  0
  9  1  1  0  0  0
  4 11  1  0  0  0
  6 12  1  0  0  0
  8 13  1  0  0  0
 10 14  1  0  0  0
M  END
> <minimizedAffinity>
0.43888

> <CNNscore>
0.4180456698

> <CNNaffinity>
5.3230037689

> <CNN_VS>
2.2252585888

> <CNNaffinity_variance>
0.7482227087

$$$$
[H]O[C@@]1([H])C([H])([H])N(S(=O)(=O)c2c([H])c([H])c(OC([H])([H])[H])c([H])c2[H])[C@]([H])(O[H])[C@@]([H])(O[H])[C@]1([H])O[H]


 25 26  0  0  0  0  0  0  0  0999 V2000
   16.7119   25.9614   -3.9744 N   0  0  0  0  0  0  0  0  0  0  0  0
   16.5854   24.6663   -4.5178 C   0  0  0  0  0  0  0  0  0  0  0  0
   15.2476   24.6250   -5.2720 C   0  0  0  0  0  0  0  0  0  0  0  0
   14.9120   23.3355   -5.5907 O   0  0  0  0  0  0  0  0  0  0  0  0
   15.5425   25.4692   -6.5185 C   0  0  0  0  0  0  0  0  0  0  0  0
   14.4850   25.3381   -7.3998 O   0  0  0  0  0  0  0  0  0  0  0  0
   15.7049   26.8802   -6.0456 C   0  0  0  0  0  0  0  0  0  0  0  0
   16.4142   27.5590   -7.0669 O   0  0  0  0  0  0  0  0  0  0  0  0
   16.3409   27.0735   -4.7404 C   0  0  0  0  0  0  0  0  0  0  0  0
   15.4885   27.8816   -3.9467 O   0  0  0  0  0  0  0  0  0  0  0  0
   13.9400   23.2429   -5.5881 H   0  0  0  0  0  0  0  0  0  0  0  0
   14.1514   24.3934   -7.2920 H   0  0  0  0  0  0  0  0  0  0  0  0
   17.2518   27.8990   -6.6695 H   0  0  0  0  0  0  0  0  0  0  0  0
   15.6170   28.8485   -4.1691 H   0  0  0  0  0  0  0  0  0  0  0  0
   16.3102   25.9917   -2.3264 S   0  0  0  0  0  0  0  0  0  0  0  0
   16.3070   27.4383   -1.8496 O   0  0  0  0  0  0  0  0  0  0  0  0
   17.3234   25.2913   -1.4652 O   0  0  0  0  0  0  0  0  0  0  0  0
   12.2671   24.3222   -1.4933 C   0  0  0  0  0  0  0  0  0  0  0  0
   13.3601   23.7055   -0.9657 C   0  0  0  0  0  0  0  0  0  0  0  0
   14.6177   24.2200   -1.2239 C   0  0  0  0  0  0  0  0  0  0  0  0
   14.7160   25.3529   -2.0160 C   0  0  0  0  0  0  0  0  0  0  0  0
   13.6195   25.9848   -2.5547 C   0  0  0  0  0  0  0  0  0  0  0  0
   12.3539   25.4544   -2.2860 C   0  0  0  0  0  0  0  0  0  0  0  0
   10.7099   22.4432   -1.1514 C   0  0  0  0  0  0  0  0  0  0  0  0
   10.9742   23.8393   -1.2606 O   0  0  0  0  0  0  0  0  0  0  0  0
 24 25  1  0  0  0
 25 18  1  0  0  0
 18 19  2  0  0  0
 19 20  1  0  0  0
 20 21  2  0  0  0
 21 22  1  0  0  0
 22 23  2  0  0  0
 21 15  1  0  0  0
 15 16  2  0  0  0
 15 17  2  0  0  0
 15  1  1  0  0  0
  1  2  1  0  0  0
  2  3  1  0  0  0
  3  4  1  0  0  0
  3  5  1  0  0  0
  5  6  1  0  0  0
  5  7  1  0  0  0
  7  8  1  0  0  0
  7  9  1  0  0  0
  9 10  1  0  0  0
 23 18  1  0  0  0
  9  1  1  0  0  0
  4 11  1  0  0  0
  6 12  1  0  0  0
  8 13  1  0  0  0
 10 14  1  0  0  0
M  END
> <minimizedAffinity>
0.05712

> <CNNscore>
0.3670694530

> <CNNaffinity>
4.9745368958

> <CNN_VS>
1.8260005713

> <CNNaffinity_variance>
0.0531796813

$$$$
[H]O[C@@]1([H])C([H])([H])N(S(=O)(=O)c2c([H])c([H])c(OC([H])([H])[H])c([H])c2[H])[C@]([H])(O[H])[C@@]([H])(O[H])[C@]1([H])O[H]


 25 26  0  0  0  0  0  0  0  0999 V2000
   12.0981   22.6840   -0.7060 N   0  0  0  0  0  0  0  0  0  0  0  0
   11.2407   21.5911   -0.9490 C   0  0  0  0  0  0  0  0  0  0  0  0
   11.2016   20.7563    0.3401 C   0  0  0  0  0  0  0  0  0  0  0  0
   10.6233   19.5361    0.1084 O   0  0  0  0  0  0  0  0  0  0  0  0
   10.3537   21.6283    1.2751 C   0  0  0  0  0  0  0  0  0  0  0  0
   10.0534   20.8958    2.4089 O   0  0  0  0  0  0  0  0  0  0  0  0
   11.1792   22.8362    1.5919 C   0  0  0  0  0  0  0  0  0  0  0  0
   10.2722   23.8257    2.0449 O   0  0  0  0  0  0  0  0  0  0  0  0
   12.0366   23.3529    0.5229 C   0  0  0  0  0  0  0  0  0  0  0  0
   13.3579   23.4582    1.0255 O   0  0  0  0  0  0  0  0  0  0  0  0
   11.0236   18.8697    0.6991 H   0  0  0  0  0  0  0  0  0  0  0  0
    9.9485   19.9419    2.1013 H   0  0  0  0  0  0  0  0  0  0  0  0
   10.3488   24.5986    1.4350 H   0  0  0  0  0  0  0  0  0  0  0  0
   13.4680   24.3066    1.5441 H   0  0  0  0  0  0  0  0  0  0  0  0
   13.6386   22.4321   -1.3705 S   0  0  0  0  0  0  0  0  0  0  0  0
   13.6199   21.1380   -2.1735 O   0  0  0  0  0  0  0  0  0  0  0  0
   14.7008   22.2366   -0.3255 O   0  0  0  0  0  0  0  0  0  0  0  0
   14.7949   25.7151   -4.1477 C   0  0  0  0  0  0  0  0  0  0  0  0
   13.7595   25.9104   -3.2858 C   0  0  0  0  0  0  0  0  0  0  0  0
   13.3962   24.8924   -2.4230 C   0  0  0  0  0  0  0  0  0  0  0  0
   14.1070   23.7037   -2.4705 C   0  0  0  0  0  0  0  0  0  0  0  0
   15.1547   23.4942   -3.3366 C   0  0  0  0  0  0  0  0  0  0  0  0
   15.5118   24.5316   -4.2036 C   0  0  0  0  0  0  0  0  0  0  0  0
   15.1920   26.5023   -6.4488 C   0  0  0  0  0  0  0  0  0  0  0  0
   15.1997   26.7150   -5.0397 O   0  0  0  0  0  0  0  0  0  0  0  0
 24 25  1  0  0  0
 25 18  1  0  0  0
 18 19  2  0  0  0
 19 20  1  0  0  0
 20 21  2  0  0  0
 21 22  1  0  0  0
 22 23  2  0  0  0
 21 15  1  0  0  0
 15 16  2  0  0  0
 15 17  2  0  0  0
 15  1  1  0  0  0
  1  2  1  0  0  0
  2  3  1  0  0  0
  3  4  1  0  0  0
  3  5  1  0  0  0
  5  6  1  0  0  0
  5  7  1  0  0  0
  7  8  1  0  0  0
  7  9  1  0  0  0
  9 10  1  0  0  0
 23 18  1  0  0  0
  9  1  1  0  0  0
  4 11  1  0  0  0
  6 12  1  0  0  0
  8 13  1  0  0  0
 10 14  1  0  0  0
M  END
> <minimizedAffinity>
-8.70418

> <CNNscore>
0.3243875504

> <CNNaffinity>
5.2161912918

> <CNN_VS>
1.6920675039

> <CNNaffinity_variance>
0.1920680106

$$$$
[H]c1nc([H])c(-c2c(OC([H])([H])C3([H])C([H])([H])OC([H])([H])C3([H])[H])nc3sc(N([H])C(=O)N([H])C([H])([H])C([H])([H])[H])nc3c2[H])c([H])c1[H]


 30 33  0  0  0  0  0  0  0  0999 V2000
   14.2974   21.9712   -0.3086 C   0  0  0  0  0  0  0  0  0  0  0  0
   14.8942   23.1487   -0.3598 N   0  0  0  0  0  0  0  0  0  0  0  0
   15.2453   23.6484   -1.5053 C   0  0  0  0  0  0  0  0  0  0  0  0
   15.8857   24.8846   -1.7166 C   0  0  0  0  0  0  0  0  0  0  0  0
   16.1881   25.2653   -2.9904 C   0  0  0  0  0  0  0  0  0  0  0  0
   15.9153   24.5281   -4.1179 C   0  0  0  0  0  0  0  0  0  0  0  0
   15.2981   23.3399   -3.8948 N   0  0  0  0  0  0  0  0  0  0  0  0
   14.9776   22.9212   -2.6330 C   0  0  0  0  0  0  0  0  0  0  0  0
   14.2200   21.5326   -1.9551 S   0  0  0  0  0  0  0  0  0  0  0  0
   12.3398   21.1186    2.8071 N   0  0  0  0  0  0  0  0  0  0  0  0
   12.8120   21.7970    1.6558 C   0  0  0  0  0  0  0  0  0  0  0  0
   12.2596   22.9116    1.3893 O   0  0  0  0  0  0  0  0  0  0  0  0
   13.8449   21.2702    0.8375 N   0  0  0  0  0  0  0  0  0  0  0  0
   12.7681   20.2083    3.0528 H   0  0  0  0  0  0  0  0  0  0  0  0
   14.2751   20.3680    1.0740 H   0  0  0  0  0  0  0  0  0  0  0  0
    9.9741   21.6494    2.8706 C   0  0  0  0  0  0  0  0  0  0  0  0
   11.2925   21.6443    3.6438 C   0  0  0  0  0  0  0  0  0  0  0  0
   16.8621   26.5633   -3.2034 C   0  0  0  0  0  0  0  0  0  0  0  0
   18.0231   26.6895   -3.9350 C   0  0  0  0  0  0  0  0  0  0  0  0
   18.5897   27.9416   -4.0884 C   0  0  0  0  0  0  0  0  0  0  0  0
   18.0017   29.0474   -3.5178 C   0  0  0  0  0  0  0  0  0  0  0  0
   16.8802   28.8874   -2.8176 N   0  0  0  0  0  0  0  0  0  0  0  0
   16.3040   27.6983   -2.6471 C   0  0  0  0  0  0  0  0  0  0  0  0
   16.2252   24.9220   -5.4071 O   0  0  0  0  0  0  0  0  0  0  0  0
   15.2828   24.8760   -6.4420 C   0  0  0  0  0  0  0  0  0  0  0  0
   14.8948   26.2810   -6.8252 C   0  0  0  0  0  0  0  0  0  0  0  0
   13.9834   26.9270   -5.8211 C   0  0  0  0  0  0  0  0  0  0  0  0
   14.8393   28.0648   -5.2571 C   0  0  0  0  0  0  0  0  0  0  0  0
   15.6184   28.4000   -6.3447 O   0  0  0  0  0  0  0  0  0  0  0  0
   16.1306   27.1569   -6.7432 C   0  0  0  0  0  0  0  0  0  0  0  0
 16 17  1  0  0  0
 17 10  1  0  0  0
 10 11  1  0  0  0
 11 12  2  0  0  0
 11 13  1  0  0  0
 13  1  1  0  0  0
  1  2  2  0  0  0
  2  3  1  0  0  0
  3  4  2  0  0  0
  4  5  1  0  0  0
  5 18  1  0  0  0
 18 19  2  0  0  0
 19 20  1  0  0  0
 20 21  2  0  0  0
 21 22  1  0  0  0
 22 23  2  0  0  0
  5  6  2  0  0  0
  6 24  1  0  0  0
 24 25  1  0  0  0
 25 26  1  0  0  0
 26 27  1  0  0  0
 27 28  1  0  0  0
 28 29  1  0  0  0
 29 30  1  0  0  0
  6  7  1  0  0  0
  7  8  2  0  0  0
  8  9  1  0  0  0
  9  1  1  0  0  0
  8  3  1  0  0  0
 23 18  1  0  0  0
 30 26  1  0  0  0
 10 14  1  0  0  0
 13 15  1  0  0  0
M  END
> <minimizedAffinity>
1.07673

> <CNNscore>
0.6335375905

> <CNNaffinity>
7.3687944412

> <CNN_VS>
4.6684083939

> <CNNaffinity_variance>
0.6269073486

$$$$
[H]c1nc([H])c(-c2c(OC([H])([H])C3([H])C([H])([H])OC([H])([H])C3([H])[H])nc3sc(N([H])C(=O)N([H])C([H])([H])C([H])([H])[H])nc3c2[H])c([H])c1[H]


 30 33  0  0  0  0  0  0  0  0999 V2000
   13.2184   21.5235    0.9779 C   0  0  0  0  0  0  0  0  0  0  0  0
   13.7619   22.7060    0.7502 N   0  0  0  0  0  0  0  0  0  0  0  0
   14.1674   23.0142   -0.4439 C   0  0  0  0  0  0  0  0  0  0  0  0
   14.7625   24.2284   -0.8366 C   0  0  0  0  0  0  0  0  0  0  0  0
   15.1338   24.3942   -2.1380 C   0  0  0  0  0  0  0  0  0  0  0  0
   14.9740   23.4541   -3.1279 C   0  0  0  0  0  0  0  0  0  0  0  0
   14.3989   22.2905   -2.7308 N   0  0  0  0  0  0  0  0  0  0  0  0
   14.0121   22.0842   -1.4354 C   0  0  0  0  0  0  0  0  0  0  0  0
   13.2752   20.7961   -0.5640 S   0  0  0  0  0  0  0  0  0  0  0  0
   10.8912   20.8370    3.8725 N   0  0  0  0  0  0  0  0  0  0  0  0
   11.4144   21.3338    2.6526 C   0  0  0  0  0  0  0  0  0  0  0  0
   10.6482   22.0896    1.9743 O   0  0  0  0  0  0  0  0  0  0  0  0
   12.7213   21.0117    2.2028 N   0  0  0  0  0  0  0  0  0  0  0  0
   11.4890   20.2187    4.4495 H   0  0  0  0  0  0  0  0  0  0  0  0
   13.3207   20.3992    2.7689 H   0  0  0  0  0  0  0  0  0  0  0  0
    9.6506   22.2420    5.4117 C   0  0  0  0  0  0  0  0  0  0  0  0
    9.5668   21.1577    4.3378 C   0  0  0  0  0  0  0  0  0  0  0  0
   15.7598   25.6707   -2.5416 C   0  0  0  0  0  0  0  0  0  0  0  0
   17.0983   25.9379   -2.3516 C   0  0  0  0  0  0  0  0  0  0  0  0
   17.6062   27.1576   -2.7598 C   0  0  0  0  0  0  0  0  0  0  0  0
   16.7855   28.0926   -3.3483 C   0  0  0  0  0  0  0  0  0  0  0  0
   15.4972   27.7997   -3.5159 N   0  0  0  0  0  0  0  0  0  0  0  0
   14.9703   26.6364   -3.1362 C   0  0  0  0  0  0  0  0  0  0  0  0
   15.3533   23.6305   -4.4464 O   0  0  0  0  0  0  0  0  0  0  0  0
   14.8107   24.6463   -5.2432 C   0  0  0  0  0  0  0  0  0  0  0  0
   15.8969   25.2378   -6.1043 C   0  0  0  0  0  0  0  0  0  0  0  0
   15.9140   24.6662   -7.4933 C   0  0  0  0  0  0  0  0  0  0  0  0
   15.5352   25.8657   -8.3669 C   0  0  0  0  0  0  0  0  0  0  0  0
   16.0684   26.9175   -7.6516 O   0  0  0  0  0  0  0  0  0  0  0  0
   15.5608   26.6942   -6.3636 C   0  0  0  0  0  0  0  0  0  0  0  0
 16 17  1  0  0  0
 17 10  1  0  0  0
 10 11  1  0  0  0
 11 12  2  0  0  0
 11 13  1  0  0  0
 13  1  1  0  0  0
  1  2  2  0  0  0
  2  3  1  0  0  0
  3  4  2  0  0  0
  4  5  1  0  0  0
  5 18  1  0  0  0
 18 19  2  0  0  0
 19 20  1  0  0  0
 20 21  2  0  0  0
 21 22  1  0  0  0
 22 23  2  0  0  0
  5  6  2  0  0  0
  6 24  1  0  0  0
 24 25  1  0  0  0
 25 26  1  0  0  0
 26 27  1  0  0  0
 27 28  1  0  0  0
 28 29  1  0  0  0
 29 30  1  0  0  0
  6  7  1  0  0  0
  7  8  2  0  0  0
  8  9  1  0  0  0
  9  1  1  0  0  0
  8  3  1  0  0  0
 23 18  1  0  0  0
 30 26  1  0  0  0
 10 14  1  0  0  0
 13 15  1  0  0  0
M  END
> <minimizedAffinity>
-4.66114

> <CNNscore>
0.5932230353

> <CNNaffinity>
7.3799486160

> <CNN_VS>
4.3779554367

> <CNNaffinity_variance>
0.6076607704

$$$$
[H]c1nc([H])c(-c2c(OC([H])([H])C3([H])C([H])([H])OC([H])([H])C3([H])[H])nc3sc(N([H])C(=O)N([H])C([H])([H])C([H])([H])[H])nc3c2[H])c([H])c1[H]


 30 33  0  0  0  0  0  0  0  0999 V2000
   11.4741   27.5664   -4.7116 C   0  0  0  0  0  0  0  0  0  0  0  0
   12.7035   28.0389   -4.8154 N   0  0  0  0  0  0  0  0  0  0  0  0
   13.6828   27.4363   -4.2129 C   0  0  0  0  0  0  0  0  0  0  0  0
   15.0375   27.8199   -4.2312 C   0  0  0  0  0  0  0  0  0  0  0  0
   15.9470   27.0741   -3.5414 C   0  0  0  0  0  0  0  0  0  0  0  0
   15.6494   25.9495   -2.8094 C   0  0  0  0  0  0  0  0  0  0  0  0
   14.3391   25.5952   -2.8033 N   0  0  0  0  0  0  0  0  0  0  0  0
   13.3956   26.3159   -3.4819 C   0  0  0  0  0  0  0  0  0  0  0  0
   11.6944   26.2000   -3.7147 S   0  0  0  0  0  0  0  0  0  0  0  0
    8.3835   29.6751   -5.2295 N   0  0  0  0  0  0  0  0  0  0  0  0
    9.5717   29.1397   -4.6726 C   0  0  0  0  0  0  0  0  0  0  0  0
    9.9686   29.6579   -3.5807 O   0  0  0  0  0  0  0  0  0  0  0  0
   10.2879   28.0824   -5.2917 N   0  0  0  0  0  0  0  0  0  0  0  0
    8.0325   29.2759   -6.1183 H   0  0  0  0  0  0  0  0  0  0  0  0
    9.9468   27.6807   -6.1733 H   0  0  0  0  0  0  0  0  0  0  0  0
    6.8921   30.2134   -3.3943 C   0  0  0  0  0  0  0  0  0  0  0  0
    7.6496   30.7476   -4.6095 C   0  0  0  0  0  0  0  0  0  0  0  0
   17.3665   27.4847   -3.5639 C   0  0  0  0  0  0  0  0  0  0  0  0
   18.3291   26.8841   -2.7817 C   0  0  0  0  0  0  0  0  0  0  0  0
   19.6365   27.3272   -2.8639 C   0  0  0  0  0  0  0  0  0  0  0  0
   19.9720   28.3546   -3.7159 C   0  0  0  0  0  0  0  0  0  0  0  0
   19.0154   28.9112   -4.4566 N   0  0  0  0  0  0  0  0  0  0  0  0
   17.7451   28.5128   -4.4060 C   0  0  0  0  0  0  0  0  0  0  0  0
   16.5785   25.1981   -2.1125 O   0  0  0  0  0  0  0  0  0  0  0  0
   16.3791   23.8384   -1.8434 C   0  0  0  0  0  0  0  0  0  0  0  0
   15.0344   23.6521   -1.1887 C   0  0  0  0  0  0  0  0  0  0  0  0
   14.5130   22.2495   -1.3198 C   0  0  0  0  0  0  0  0  0  0  0  0
   14.5058   21.7454    0.1262 C   0  0  0  0  0  0  0  0  0  0  0  0
   14.2524   22.9043    0.8297 O   0  0  0  0  0  0  0  0  0  0  0  0
   15.2111   23.7870    0.3119 C   0  0  0  0  0  0  0  0  0  0  0  0
 16 17  1  0  0  0
 17 10  1  0  0  0
 10 11  1  0  0  0
 11 12  2  0  0  0
 11 13  1  0  0  0
 13  1  1  0  0  0
  1  2  2  0  0  0
  2  3  1  0  0  0
  3  4  2  0  0  0
  4  5  1  0  0  0
  5 18  1  0  0  0
 18 19  2  0  0  0
 19 20  1  0  0  0
 20 21  2  0  0  0
 21 22  1  0  0  0
 22 23  2  0  0  0
  5  6  2  0  0  0
  6 24  1  0  0  0
 24 25  1  0  0  0
 25 26  1  0  0  0
 26 27  1  0  0  0
 27 28  1  0  0  0
 28 29  1  0  0  0
 29 30  1  0  0  0
  6  7  1  0  0  0
  7  8  2  0  0  0
  8  9  1  0  0  0
  9  1  1  0  0  0
  8  3  1  0  0  0
 23 18  1  0  0  0
 30 26  1  0  0  0
 10 14  1  0  0  0
 13 15  1  0  0  0
M  END
> <minimizedAffinity>
18.27948

> <CNNscore>
0.4779893160

> <CNNaffinity>
6.3465738297

> <CNN_VS>
3.0335943699

> <CNNaffinity_variance>
0.6594435573

$$$$
[H]c1nc([H])c(-c2c(OC([H])([H])C3([H])C([H])([H])OC([H])([H])C3([H])[H])nc3sc(N([H])C(=O)N([H])C([H])([H])C([H])([H])[H])nc3c2[H])c([H])c1[H]


 30 33  0  0  0  0  0  0  0  0999 V2000
   14.5260   26.4201   -5.2830 C   0  0  0  0  0  0  0  0  0  0  0  0
   14.9134   25.3038   -4.6920 N   0  0  0  0  0  0  0  0  0  0  0  0
   14.3048   24.8916   -3.6220 C   0  0  0  0  0  0  0  0  0  0  0  0
   14.6032   23.7284   -2.8867 C   0  0  0  0  0  0  0  0  0  0  0  0
   13.8635   23.4363   -1.7792 C   0  0  0  0  0  0  0  0  0  0  0  0
   12.8234   24.1987   -1.3039 C   0  0  0  0  0  0  0  0  0  0  0  0
   12.5504   25.3157   -2.0252 N   0  0  0  0  0  0  0  0  0  0  0  0
   13.2681   25.6445   -3.1419 C   0  0  0  0  0  0  0  0  0  0  0  0
   13.2360   26.9271   -4.2889 S   0  0  0  0  0  0  0  0  0  0  0  0
   16.2174   28.9311   -7.5413 N   0  0  0  0  0  0  0  0  0  0  0  0
   15.6727   28.3038   -6.3932 C   0  0  0  0  0  0  0  0  0  0  0  0
   15.7579   28.9503   -5.3009 O   0  0  0  0  0  0  0  0  0  0  0  0
   15.0628   27.0235   -6.4481 N   0  0  0  0  0  0  0  0  0  0  0  0
   16.1647   28.4320   -8.4472 H   0  0  0  0  0  0  0  0  0  0  0  0
   15.0063   26.5216   -7.3424 H   0  0  0  0  0  0  0  0  0  0  0  0
   15.7611   31.3131   -7.5368 C   0  0  0  0  0  0  0  0  0  0  0  0
   16.8383   30.2295   -7.4964 C   0  0  0  0  0  0  0  0  0  0  0  0
   14.1846   22.2147   -1.0118 C   0  0  0  0  0  0  0  0  0  0  0  0
   14.9516   22.2331    0.1330 C   0  0  0  0  0  0  0  0  0  0  0  0
   15.2042   21.0448    0.7936 C   0  0  0  0  0  0  0  0  0  0  0  0
   14.6963   19.8591    0.3139 C   0  0  0  0  0  0  0  0  0  0  0  0
   13.9593   19.8796   -0.7951 N   0  0  0  0  0  0  0  0  0  0  0  0
   13.6937   21.0033   -1.4598 C   0  0  0  0  0  0  0  0  0  0  0  0
   12.0776   23.8950   -0.1792 O   0  0  0  0  0  0  0  0  0  0  0  0
   12.0308   24.7480    0.9305 C   0  0  0  0  0  0  0  0  0  0  0  0
   12.9670   25.9077    0.7072 C   0  0  0  0  0  0  0  0  0  0  0  0
   12.6856   27.0666    1.6204 C   0  0  0  0  0  0  0  0  0  0  0  0
   13.9390   27.1293    2.4981 C   0  0  0  0  0  0  0  0  0  0  0  0
   14.9143   26.6800    1.6327 O   0  0  0  0  0  0  0  0  0  0  0  0
   14.3582   25.4891    1.1438 C   0  0  0  0  0  0  0  0  0  0  0  0
 16 17  1  0  0  0
 17 10  1  0  0  0
 10 11  1  0  0  0
 11 12  2  0  0  0
 11 13  1  0  0  0
 13  1  1  0  0  0
  1  2  2  0  0  0
  2  3  1  0  0  0
  3  4  2  0  0  0
  4  5  1  0  0  0
  5 18  1  0  0  0
 18 19  2  0  0  0
 19 20  1  0  0  0
 20 21  2  0  0  0
 21 22  1  0  0  0
 22 23  2  0  0  0
  5  6  2  0  0  0
  6 24  1  0  0  0
 24 25  1  0  0  0
 25 26  1  0  0  0
 26 27  1  0  0  0
 27 28  1  0  0  0
 28 29  1  0  0  0
 29 30  1  0  0  0
  6  7  1  0  0  0
  7  8  2  0  0  0
  8  9  1  0  0  0
  9  1  1  0  0  0
  8  3  1  0  0  0
 23 18  1  0  0  0
 30 26  1  0  0  0
 10 14  1  0  0  0
 13 15  1  0  0  0
M  END
> <minimizedAffinity>
9.11434

> <CNNscore>
0.4651098251

> <CNNaffinity>
6.8724722862

> <CNN_VS>
3.1964542866

> <CNNaffinity_variance>
0.3646580577

$$$$
[H]c1nc([H])c(-c2c(OC([H])([H])C3([H])C([H])([H])OC([H])([H])C3([H])[H])nc3sc(N([H])C(=O)N([H])C([H])([H])C([H])([H])[H])nc3c2[H])c([H])c1[H]


 30 33  0  0  0  0  0  0  0  0999 V2000
   10.8484   21.2587    0.9589 C   0  0  0  0  0  0  0  0  0  0  0  0
   11.5614   20.9021   -0.0947 N   0  0  0  0  0  0  0  0  0  0  0  0
   12.3404   21.7648   -0.6727 C   0  0  0  0  0  0  0  0  0  0  0  0
   13.1555   21.5325   -1.7971 C   0  0  0  0  0  0  0  0  0  0  0  0
   13.9192   22.5517   -2.2841 C   0  0  0  0  0  0  0  0  0  0  0  0
   13.9647   23.8212   -1.7594 C   0  0  0  0  0  0  0  0  0  0  0  0
   13.1727   24.0263   -0.6763 N   0  0  0  0  0  0  0  0  0  0  0  0
   12.3918   23.0310   -0.1569 C   0  0  0  0  0  0  0  0  0  0  0  0
   11.2893   22.8945    1.1575 S   0  0  0  0  0  0  0  0  0  0  0  0
    8.0544   20.2938    3.3102 N   0  0  0  0  0  0  0  0  0  0  0  0
    8.9645   21.0626    2.5425 C   0  0  0  0  0  0  0  0  0  0  0  0
    8.8529   22.3267    2.6313 O   0  0  0  0  0  0  0  0  0  0  0  0
    9.9510   20.4644    1.7160 N   0  0  0  0  0  0  0  0  0  0  0  0
    8.1179   19.2612    3.2610 H   0  0  0  0  0  0  0  0  0  0  0  0
   10.0209   19.4411    1.6614 H   0  0  0  0  0  0  0  0  0  0  0  0
    7.6425   22.0983    4.8774 C   0  0  0  0  0  0  0  0  0  0  0  0
    7.0500   20.8907    4.1517 C   0  0  0  0  0  0  0  0  0  0  0  0
   14.7703   22.3003   -3.4660 C   0  0  0  0  0  0  0  0  0  0  0  0
   14.5696   21.2346   -4.3164 C   0  0  0  0  0  0  0  0  0  0  0  0
   15.4106   21.0716   -5.4020 C   0  0  0  0  0  0  0  0  0  0  0  0
   16.4348   21.9622   -5.6301 C   0  0  0  0  0  0  0  0  0  0  0  0
   16.5986   22.9801   -4.7872 N   0  0  0  0  0  0  0  0  0  0  0  0
   15.8098   23.1712   -3.7306 C   0  0  0  0  0  0  0  0  0  0  0  0
   14.7428   24.8497   -2.2595 O   0  0  0  0  0  0  0  0  0  0  0  0
   15.5648   25.6254   -1.4327 C   0  0  0  0  0  0  0  0  0  0  0  0
   15.9030   26.9152   -2.1352 C   0  0  0  0  0  0  0  0  0  0  0  0
   17.3411   26.9845   -2.5635 C   0  0  0  0  0  0  0  0  0  0  0  0
   17.2480   26.9907   -4.0921 C   0  0  0  0  0  0  0  0  0  0  0  0
   16.0517   27.6444   -4.3010 O   0  0  0  0  0  0  0  0  0  0  0  0
   15.1733   26.9402   -3.4649 C   0  0  0  0  0  0  0  0  0  0  0  0
 16 17  1  0  0  0
 17 10  1  0  0  0
 10 11  1  0  0  0
 11 12  2  0  0  0
 11 13  1  0  0  0
 13  1  1  0  0  0
  1  2  2  0  0  0
  2  3  1  0  0  0
  3  4  2  0  0  0
  4  5  1  0  0  0
  5 18  1  0  0  0
 18 19  2  0  0  0
 19 20  1  0  0  0
 20 21  2  0  0  0
 21 22  1  0  0  0
 22 23  2  0  0  0
  5  6  2  0  0  0
  6 24  1  0  0  0
 24 25  1  0  0  0
 25 26  1  0  0  0
 26 27  1  0  0  0
 27 28  1  0  0  0
 28 29  1  0  0  0
 29 30  1  0  0  0
  6  7  1  0  0  0
  7  8  2  0  0  0
  8  9  1  0  0  0
  9  1  1  0  0  0
  8  3  1  0  0  0
 23 18  1  0  0  0
 30 26  1  0  0  0
 10 14  1  0  0  0
 13 15  1  0  0  0
M  END
> <minimizedAffinity>
7.16132

> <CNNscore>
0.3836741745

> <CNNaffinity>
6.6584749222

> <CNN_VS>
2.5546848774

> <CNNaffinity_variance>
1.8104927540

$$$$
[H]c1nc([H])c(-c2c(OC([H])([H])C3([H])C([H])([H])OC([H])([H])C3([H])[H])nc3sc(N([H])C(=O)N([H])C([H])([H])C([H])([H])[H])nc3c2[H])c([H])c1[H]


 30 33  0  0  0  0  0  0  0  0999 V2000
   11.3619   23.0391    1.8421 C   0  0  0  0  0  0  0  0  0  0  0  0
   11.8751   22.3724    0.8234 N   0  0  0  0  0  0  0  0  0  0  0  0
   12.5485   23.0021   -0.0904 C   0  0  0  0  0  0  0  0  0  0  0  0
   13.1510   22.4300   -1.2273 C   0  0  0  0  0  0  0  0  0  0  0  0
   13.8268   23.2355   -2.0955 C   0  0  0  0  0  0  0  0  0  0  0  0
   13.9758   24.5945   -1.9545 C   0  0  0  0  0  0  0  0  0  0  0  0
   13.3885   25.1280   -0.8532 N   0  0  0  0  0  0  0  0  0  0  0  0
   12.7018   24.3552    0.0419 C   0  0  0  0  0  0  0  0  0  0  0  0
   11.8463   24.6400    1.5078 S   0  0  0  0  0  0  0  0  0  0  0  0
    8.4086   22.1656    4.0287 N   0  0  0  0  0  0  0  0  0  0  0  0
    9.1916   22.6645    2.9579 C   0  0  0  0  0  0  0  0  0  0  0  0
    8.5607   23.2440    2.0175 O   0  0  0  0  0  0  0  0  0  0  0  0
   10.6041   22.5300    2.9266 N   0  0  0  0  0  0  0  0  0  0  0  0
    8.8909   21.6881    4.8110 H   0  0  0  0  0  0  0  0  0  0  0  0
   11.0903   22.0579    3.6983 H   0  0  0  0  0  0  0  0  0  0  0  0
    6.5981   23.7774    4.1071 C   0  0  0  0  0  0  0  0  0  0  0  0
    6.9753   22.2967    4.0701 C   0  0  0  0  0  0  0  0  0  0  0  0
   14.4543   22.6275   -3.2875 C   0  0  0  0  0  0  0  0  0  0  0  0
   14.3246   21.2914   -3.5991 C   0  0  0  0  0  0  0  0  0  0  0  0
   14.9427   20.8017   -4.7350 C   0  0  0  0  0  0  0  0  0  0  0  0
   15.6779   21.6379   -5.5439 C   0  0  0  0  0  0  0  0  0  0  0  0
   15.7814   22.9233   -5.2115 N   0  0  0  0  0  0  0  0  0  0  0  0
   15.2011   23.4329   -4.1259 C   0  0  0  0  0  0  0  0  0  0  0  0
   14.6635   25.4046   -2.8401 O   0  0  0  0  0  0  0  0  0  0  0  0
   14.8506   26.7716   -2.6005 C   0  0  0  0  0  0  0  0  0  0  0  0
   14.8073   27.5173   -3.9095 C   0  0  0  0  0  0  0  0  0  0  0  0
   16.0296   27.2860   -4.7514 C   0  0  0  0  0  0  0  0  0  0  0  0
   15.4776   26.5323   -5.9648 C   0  0  0  0  0  0  0  0  0  0  0  0
   14.2066   27.0570   -6.0710 O   0  0  0  0  0  0  0  0  0  0  0  0
   13.7113   26.9134   -4.7670 C   0  0  0  0  0  0  0  0  0  0  0  0
 16 17  1  0  0  0
 17 10  1  0  0  0
 10 11  1  0  0  0
 11 12  2  0  0  0
 11 13  1  0  0  0
 13  1  1  0  0  0
  1  2  2  0  0  0
  2  3  1  0  0  0
  3  4  2  0  0  0
  4  5  1  0  0  0
  5 18  1  0  0  0
 18 19  2  0  0  0
 19 20  1  0  0  0
 20 21  2  0  0  0
 21 22  1  0  0  0
 22 23  2  0  0  0
  5  6  2  0  0  0
  6 24  1  0  0  0
 24 25  1  0  0  0
 25 26  1  0  0  0
 26 27  1  0  0  0
 27 28  1  0  0  0
 28 29  1  0  0  0
 29 30  1  0  0  0
  6  7  1  0  0  0
  7  8  2  0  0  0
  8  9  1  0  0  0
  9  1  1  0  0  0
  8  3  1  0  0  0
 23 18  1  0  0  0
 30 26  1  0  0  0
 10 14  1  0  0  0
 13 15  1  0  0  0
M  END
> <minimizedAffinity>
3.16187

> <CNNscore>
0.3193871677

> <CNNaffinity>
6.3881864548

> <CNN_VS>
2.0403046608

> <CNNaffinity_variance>
0.4428815246

$$$$
[H]c1nc([H])c(-c2c(OC([H])([H])C3([H])C([H])([H])OC([H])([H])C3([H])[H])nc3sc(N([H])C(=O)N([H])C([H])([H])C([H])([H])[H])nc3c2[H])c([H])c1[H]


 30 33  0  0  0  0  0  0  0  0999 V2000
   13.1985   27.6185    2.6811 C   0  0  0  0  0  0  0  0  0  0  0  0
   12.2746   26.7213    2.3859 N   0  0  0  0  0  0  0  0  0  0  0  0
   12.5121   25.8188    1.4836 C   0  0  0  0  0  0  0  0  0  0  0  0
   11.6305   24.8038    1.0648 C   0  0  0  0  0  0  0  0  0  0  0  0
   12.0361   23.9299    0.1000 C   0  0  0  0  0  0  0  0  0  0  0  0
   13.2641   23.9531   -0.5170 C   0  0  0  0  0  0  0  0  0  0  0  0
   14.1002   24.9380   -0.1006 N   0  0  0  0  0  0  0  0  0  0  0  0
   13.7321   25.8345    0.8643 C   0  0  0  0  0  0  0  0  0  0  0  0
   14.4756   27.1792    1.6393 S   0  0  0  0  0  0  0  0  0  0  0  0
   12.9860   31.0978    4.1356 N   0  0  0  0  0  0  0  0  0  0  0  0
   13.0615   30.0259    3.2116 C   0  0  0  0  0  0  0  0  0  0  0  0
   13.0709   30.3407    1.9790 O   0  0  0  0  0  0  0  0  0  0  0  0
   13.1235   28.6706    3.6282 N   0  0  0  0  0  0  0  0  0  0  0  0
   12.9764   30.8764    5.1473 H   0  0  0  0  0  0  0  0  0  0  0  0
   13.1145   28.4422    4.6295 H   0  0  0  0  0  0  0  0  0  0  0  0
   11.5124   32.7977    3.2296 C   0  0  0  0  0  0  0  0  0  0  0  0
   12.9226   32.4760    3.7234 C   0  0  0  0  0  0  0  0  0  0  0  0
   11.1039   22.8690   -0.3355 C   0  0  0  0  0  0  0  0  0  0  0  0
   10.3678   22.1129    0.5509 C   0  0  0  0  0  0  0  0  0  0  0  0
    9.5159   21.1401    0.0608 C   0  0  0  0  0  0  0  0  0  0  0  0
    9.4046   20.9297   -1.2947 C   0  0  0  0  0  0  0  0  0  0  0  0
   10.1313   21.6793   -2.1214 N   0  0  0  0  0  0  0  0  0  0  0  0
   10.9628   22.6259   -1.6884 C   0  0  0  0  0  0  0  0  0  0  0  0
   13.6679   23.0622   -1.4950 O   0  0  0  0  0  0  0  0  0  0  0  0
   14.8164   23.2801   -2.2662 C   0  0  0  0  0  0  0  0  0  0  0  0
   14.5308   22.9134   -3.6998 C   0  0  0  0  0  0  0  0  0  0  0  0
   15.6604   23.2635   -4.6258 C   0  0  0  0  0  0  0  0  0  0  0  0
   16.1521   21.8950   -5.1063 C   0  0  0  0  0  0  0  0  0  0  0  0
   14.9885   21.1547   -5.0935 O   0  0  0  0  0  0  0  0  0  0  0  0
   14.4889   21.4007   -3.8065 C   0  0  0  0  0  0  0  0  0  0  0  0
 16 17  1  0  0  0
 17 10  1  0  0  0
 10 11  1  0  0  0
 11 12  2  0  0  0
 11 13  1  0  0  0
 13  1  1  0  0  0
  1  2  2  0  0  0
  2  3  1  0  0  0
  3  4  2  0  0  0
  4  5  1  0  0  0
  5 18  1  0  0  0
 18 19  2  0  0  0
 19 20  1  0  0  0
 20 21  2  0  0  0
 21 22  1  0  0  0
 22 23  2  0  0  0
  5  6  2  0  0  0
  6 24  1  0  0  0
 24 25  1  0  0  0
 25 26  1  0  0  0
 26 27  1  0  0  0
 27 28  1  0  0  0
 28 29  1  0  0  0
 29 30  1  0  0  0
  6  7  1  0  0  0
  7  8  2  0  0  0
  8  9  1  0  0  0
  9  1  1  0  0  0
  8  3  1  0  0  0
 23 18  1  0  0  0
 30 26  1  0  0  0
 10 14  1  0  0  0
 13 15  1  0  0  0
M  END
> <minimizedAffinity>
43.04452

> <CNNscore>
0.3061336875

> <CNNaffinity>
5.9121141434

> <CNN_VS>
1.8098973036

> <CNNaffinity_variance>
0.5580486059

$$$$
[H]c1nc([H])c(-c2c(OC([H])([H])C3([H])C([H])([H])OC([H])([H])C3([H])[H])nc3sc(N([H])C(=O)N([H])C([H])([H])C([H])([H])[H])nc3c2[H])c([H])c1[H]


 30 33  0  0  0  0  0  0  0  0999 V2000
   15.1650   25.7800   -2.4486 C   0  0  0  0  0  0  0  0  0  0  0  0
   13.8947   25.8355   -2.0893 N   0  0  0  0  0  0  0  0  0  0  0  0
   13.4639   25.0956   -1.1135 C   0  0  0  0  0  0  0  0  0  0  0  0
   12.1456   25.0469   -0.6211 C   0  0  0  0  0  0  0  0  0  0  0  0
   11.8560   24.2108    0.4163 C   0  0  0  0  0  0  0  0  0  0  0  0
   12.7629   23.3883    1.0410 C   0  0  0  0  0  0  0  0  0  0  0  0
   14.0281   23.4488    0.5529 N   0  0  0  0  0  0  0  0  0  0  0  0
   14.3600   24.2739   -0.4860 C   0  0  0  0  0  0  0  0  0  0  0  0
   15.7984   24.6278   -1.3620 S   0  0  0  0  0  0  0  0  0  0  0  0
   16.0128   27.1133   -5.8793 N   0  0  0  0  0  0  0  0  0  0  0  0
   15.3834   26.4007   -4.8282 C   0  0  0  0  0  0  0  0  0  0  0  0
   14.4050   25.6565   -5.1554 O   0  0  0  0  0  0  0  0  0  0  0  0
   15.8137   26.5048   -3.4798 N   0  0  0  0  0  0  0  0  0  0  0  0
   16.8130   27.7285   -5.6474 H   0  0  0  0  0  0  0  0  0  0  0  0
   16.6064   27.1126   -3.2411 H   0  0  0  0  0  0  0  0  0  0  0  0
   15.8993   25.6183   -7.7857 C   0  0  0  0  0  0  0  0  0  0  0  0
   15.5841   27.0148   -7.2504 C   0  0  0  0  0  0  0  0  0  0  0  0
   10.4695   24.1639    0.9257 C   0  0  0  0  0  0  0  0  0  0  0  0
    9.4608   23.4808    0.2814 C   0  0  0  0  0  0  0  0  0  0  0  0
    8.1898   23.4852    0.8261 C   0  0  0  0  0  0  0  0  0  0  0  0
    7.9354   24.1629    1.9965 C   0  0  0  0  0  0  0  0  0  0  0  0
    8.9346   24.8119    2.5915 N   0  0  0  0  0  0  0  0  0  0  0  0
   10.1721   24.8314    2.0984 C   0  0  0  0  0  0  0  0  0  0  0  0
   12.4608   22.5430    2.0934 O   0  0  0  0  0  0  0  0  0  0  0  0
   11.5312   21.5036    1.9645 C   0  0  0  0  0  0  0  0  0  0  0  0
   12.1449   20.3826    1.1658 C   0  0  0  0  0  0  0  0  0  0  0  0
   11.7162   20.3916   -0.2738 C   0  0  0  0  0  0  0  0  0  0  0  0
   13.0169   20.6994   -1.0214 C   0  0  0  0  0  0  0  0  0  0  0  0
   13.9598   20.1114   -0.2045 O   0  0  0  0  0  0  0  0  0  0  0  0
   13.6365   20.6359    1.0552 C   0  0  0  0  0  0  0  0  0  0  0  0
 16 17  1  0  0  0
 17 10  1  0  0  0
 10 11  1  0  0  0
 11 12  2  0  0  0
 11 13  1  0  0  0
 13  1  1  0  0  0
  1  2  2  0  0  0
  2  3  1  0  0  0
  3  4  2  0  0  0
  4  5  1  0  0  0
  5 18  1  0  0  0
 18 19  2  0  0  0
 19 20  1  0  0  0
 20 21  2  0  0  0
 21 22  1  0  0  0
 22 23  2  0  0  0
  5  6  2  0  0  0
  6 24  1  0  0  0
 24 25  1  0  0  0
 25 26  1  0  0  0
 26 27  1  0  0  0
 27 28  1  0  0  0
 28 29  1  0  0  0
 29 30  1  0  0  0
  6  7  1  0  0  0
  7  8  2  0  0  0
  8  9  1  0  0  0
  9  1  1  0  0  0
  8  3  1  0  0  0
 23 18  1  0  0  0
 30 26  1  0  0  0
 10 14  1  0  0  0
 13 15  1  0  0  0
M  END
> <minimizedAffinity>
-6.44533

> <CNNscore>
0.3015040159

> <CNNaffinity>
7.0086565018

> <CNN_VS>
2.1131381989

> <CNNaffinity_variance>
0.0968361720

$$$$
[H]c1nc([H])c(-c2c(OC([H])([H])C3([H])C([H])([H])OC([H])([H])C3([H])[H])nc3sc(N([H])C(=O)N([H])C([H])([H])C([H])([H])[H])nc3c2[H])c([H])c1[H]


 30 33  0  0  0  0  0  0  0  0999 V2000
   10.6300   22.6356    2.5821 C   0  0  0  0  0  0  0  0  0  0  0  0
   11.8007   22.5430    1.9768 N   0  0  0  0  0  0  0  0  0  0  0  0
   12.1061   23.3717    1.0254 C   0  0  0  0  0  0  0  0  0  0  0  0
   13.3083   23.3960    0.2926 C   0  0  0  0  0  0  0  0  0  0  0  0
   13.4727   24.3372   -0.6802 C   0  0  0  0  0  0  0  0  0  0  0  0
   12.5423   25.2908   -1.0179 C   0  0  0  0  0  0  0  0  0  0  0  0
   11.3902   25.2519   -0.3011 N   0  0  0  0  0  0  0  0  0  0  0  0
   11.1857   24.3243    0.6827 C   0  0  0  0  0  0  0  0  0  0  0  0
    9.9103   23.9566    1.7781 S   0  0  0  0  0  0  0  0  0  0  0  0
    8.3188   20.3977    4.5611 N   0  0  0  0  0  0  0  0  0  0  0  0
    8.8508   21.2089    3.5279 C   0  0  0  0  0  0  0  0  0  0  0  0
    8.1255   21.3552    2.4931 O   0  0  0  0  0  0  0  0  0  0  0  0
   10.1230   21.8291    3.6319 N   0  0  0  0  0  0  0  0  0  0  0  0
    8.8836   20.2578    5.4178 H   0  0  0  0  0  0  0  0  0  0  0  0
   10.6897   21.6955    4.4781 H   0  0  0  0  0  0  0  0  0  0  0  0
    6.9731   18.5724    5.4210 C   0  0  0  0  0  0  0  0  0  0  0  0
    7.0294   19.7640    4.4655 C   0  0  0  0  0  0  0  0  0  0  0  0
   14.7365   24.3545   -1.4462 C   0  0  0  0  0  0  0  0  0  0  0  0
   14.9198   23.6226   -2.5994 C   0  0  0  0  0  0  0  0  0  0  0  0
   16.1335   23.6960   -3.2580 C   0  0  0  0  0  0  0  0  0  0  0  0
   17.1454   24.4898   -2.7680 C   0  0  0  0  0  0  0  0  0  0  0  0
   16.9324   25.1831   -1.6511 N   0  0  0  0  0  0  0  0  0  0  0  0
   15.7777   25.1389   -0.9880 C   0  0  0  0  0  0  0  0  0  0  0  0
   12.7172   26.2426   -2.0062 O   0  0  0  0  0  0  0  0  0  0  0  0
   12.7571   25.9013   -3.3638 C   0  0  0  0  0  0  0  0  0  0  0  0
   13.4166   27.0135   -4.1379 C   0  0  0  0  0  0  0  0  0  0  0  0
   14.7207   27.4493   -3.5332 C   0  0  0  0  0  0  0  0  0  0  0  0
   15.7477   27.0456   -4.5951 C   0  0  0  0  0  0  0  0  0  0  0  0
   15.0237   27.1905   -5.7599 O   0  0  0  0  0  0  0  0  0  0  0  0
   13.8567   26.4643   -5.4818 C   0  0  0  0  0  0  0  0  0  0  0  0
 16 17  1  0  0  0
 17 10  1  0  0  0
 10 11  1  0  0  0
 11 12  2  0  0  0
 11 13  1  0  0  0
 13  1  1  0  0  0
  1  2  2  0  0  0
  2  3  1  0  0  0
  3  4  2  0  0  0
  4  5  1  0  0  0
  5 18  1  0  0  0
 18 19  2  0  0  0
 19 20  1  0  0  0
 20 21  2  0  0  0
 21 22  1  0  0  0
 22 23  2  0  0  0
  5  6  2  0  0  0
  6 24  1  0  0  0
 24 25  1  0  0  0
 25 26  1  0  0  0
 26 27  1  0  0  0
 27 28  1  0  0  0
 28 29  1  0  0  0
 29 30  1  0  0  0
  6  7  1  0  0  0
  7  8  2  0  0  0
  8  9  1  0  0  0
  9  1  1  0  0  0
  8  3  1  0  0  0
 23 18  1  0  0  0
 30 26  1  0  0  0
 10 14  1  0  0  0
 13 15  1  0  0  0
M  END
> <minimizedAffinity>
-4.09386

> <CNNscore>
0.2975555956

> <CNNaffinity>
6.6583008766

> <CNN_VS>
1.9812146425

> <CNNaffinity_variance>
0.3096969724

$$$$
[H]/C(C(=O)N1C([H])([H])c2c(nc(C([H])([H])[H])c([H])c2[H])C([H])([H])C1([H])[H])=C(/[H])c1c([H])nc2c(c1[H])C([H])([H])C([H])([H])C(=O)N2[H]


 27 30  0  0  0  0  0  0  0  0999 V2000
   12.8625   23.5191   -0.4063 C   0  0  0  0  0  0  0  0  0  0  0  0
   14.1407   23.8052   -0.4661 C   0  0  0  0  0  0  0  0  0  0  0  0
   11.3453   21.6577    0.3401 N   0  0  0  0  0  0  0  0  0  0  0  0
   12.3086   22.6530    0.6238 C   0  0  0  0  0  0  0  0  0  0  0  0
   12.7034   22.8001    1.7984 O   0  0  0  0  0  0  0  0  0  0  0  0
   10.9068   21.5138   -1.0302 C   0  0  0  0  0  0  0  0  0  0  0  0
    9.7062   20.6682   -1.1859 C   0  0  0  0  0  0  0  0  0  0  0  0
    9.5245   19.6151   -0.3188 C   0  0  0  0  0  0  0  0  0  0  0  0
    8.4439   18.8408   -0.4514 N   0  0  0  0  0  0  0  0  0  0  0  0
    7.5502   19.1039   -1.4313 C   0  0  0  0  0  0  0  0  0  0  0  0
    6.3334   18.2502   -1.5980 C   0  0  0  0  0  0  0  0  0  0  0  0
    7.7089   20.1515   -2.3116 C   0  0  0  0  0  0  0  0  0  0  0  0
    8.8205   20.9718   -2.1984 C   0  0  0  0  0  0  0  0  0  0  0  0
   10.5662   19.4177    0.7224 C   0  0  0  0  0  0  0  0  0  0  0  0
   10.7944   20.7912    1.3606 C   0  0  0  0  0  0  0  0  0  0  0  0
   14.7821   24.6579   -1.4556 C   0  0  0  0  0  0  0  0  0  0  0  0
   14.0564   25.1480   -2.5196 C   0  0  0  0  0  0  0  0  0  0  0  0
   14.6295   25.9716   -3.4966 C   0  0  0  0  0  0  0  0  0  0  0  0
   15.9554   26.3008   -3.3916 C   0  0  0  0  0  0  0  0  0  0  0  0
   16.6696   25.8195   -2.3459 N   0  0  0  0  0  0  0  0  0  0  0  0
   16.1073   25.0308   -1.4160 C   0  0  0  0  0  0  0  0  0  0  0  0
   16.5826   27.1294   -4.3673 N   0  0  0  0  0  0  0  0  0  0  0  0
   15.7989   27.6003   -5.4448 C   0  0  0  0  0  0  0  0  0  0  0  0
   16.1909   28.5730   -6.1250 O   0  0  0  0  0  0  0  0  0  0  0  0
   14.5026   26.9606   -5.7961 C   0  0  0  0  0  0  0  0  0  0  0  0
   13.7708   26.4584   -4.6032 C   0  0  0  0  0  0  0  0  0  0  0  0
   17.6032   27.3617   -4.2533 H   0  0  0  0  0  0  0  0  0  0  0  0
  3  4  1  0  0  0
  4  1  1  0  0  0
  1  2  2  0  0  0
  2 16  1  0  0  0
 16 17  2  0  0  0
 17 18  1  0  0  0
 18 19  2  0  0  0
 19 20  1  0  0  0
 20 21  2  0  0  0
 19 22  1  0  0  0
 22 23  1  0  0  0
 23 24  2  0  0  0
 23 25  1  0  0  0
 25 26  1  0  0  0
  4  5  2  0  0  0
  3  6  1  0  0  0
  6  7  1  0  0  0
  7  8  2  0  0  0
  8  9  1  0  0  0
  9 10  2  0  0  0
 10 11  1  0  0  0
 10 12  1  0  0  0
 12 13  2  0  0  0
  8 14  1  0  0  0
 14 15  1  0  0  0
 15  3  1  0  0  0
 21 16  1  0  0  0
 13  7  1  0  0  0
 26 18  1  0  0  0
 22 27  1  0  0  0
M  END
> <minimizedAffinity>
-7.22741

> <CNNscore>
0.5613487959

> <CNNaffinity>
6.9337501526

> <CNN_VS>
3.8922522068

> <CNNaffinity_variance>
0.2322944105

$$$$
[H]/C(C(=O)N1C([H])([H])c2c(nc(C([H])([H])[H])c([H])c2[H])C([H])([H])C1([H])[H])=C(/[H])c1c([H])nc2c(c1[H])C([H])([H])C([H])([H])C(=O)N2[H]


 27 30  0  0  0  0  0  0  0  0999 V2000
   13.7652   22.8480   -0.2507 C   0  0  0  0  0  0  0  0  0  0  0  0
   14.8109   23.6336   -0.1585 C   0  0  0  0  0  0  0  0  0  0  0  0
   12.1789   22.1561    1.5740 N   0  0  0  0  0  0  0  0  0  0  0  0
   13.3649   21.9590    0.8299 C   0  0  0  0  0  0  0  0  0  0  0  0
   14.1007   20.9890    1.1038 O   0  0  0  0  0  0  0  0  0  0  0  0
   11.3492   23.2901    1.2335 C   0  0  0  0  0  0  0  0  0  0  0  0
   10.3038   23.5853    2.2340 C   0  0  0  0  0  0  0  0  0  0  0  0
    9.7417   22.5386    2.9285 C   0  0  0  0  0  0  0  0  0  0  0  0
    8.7927   22.7924    3.8340 N   0  0  0  0  0  0  0  0  0  0  0  0
    8.4022   24.0683    4.0522 C   0  0  0  0  0  0  0  0  0  0  0  0
    7.3416   24.3754    5.0613 C   0  0  0  0  0  0  0  0  0  0  0  0
    8.9490   25.1331    3.3706 C   0  0  0  0  0  0  0  0  0  0  0  0
    9.9355   24.9004    2.4250 C   0  0  0  0  0  0  0  0  0  0  0  0
   10.2464   21.1773    2.6122 C   0  0  0  0  0  0  0  0  0  0  0  0
   11.7747   21.2723    2.6469 C   0  0  0  0  0  0  0  0  0  0  0  0
   15.2851   24.5520   -1.1829 C   0  0  0  0  0  0  0  0  0  0  0  0
   14.4505   24.9288   -2.2127 C   0  0  0  0  0  0  0  0  0  0  0  0
   14.8617   25.8094   -3.2211 C   0  0  0  0  0  0  0  0  0  0  0  0
   16.1354   26.3127   -3.1830 C   0  0  0  0  0  0  0  0  0  0  0  0
   16.9564   25.9430   -2.1710 N   0  0  0  0  0  0  0  0  0  0  0  0
   16.5492   25.0978   -1.2103 C   0  0  0  0  0  0  0  0  0  0  0  0
   16.5994   27.2055   -4.1929 N   0  0  0  0  0  0  0  0  0  0  0  0
   15.7094   27.5553   -5.2332 C   0  0  0  0  0  0  0  0  0  0  0  0
   15.9355   28.5632   -5.9371 O   0  0  0  0  0  0  0  0  0  0  0  0
   14.4944   26.7452   -5.5171 C   0  0  0  0  0  0  0  0  0  0  0  0
   13.8938   26.1646   -4.2870 C   0  0  0  0  0  0  0  0  0  0  0  0
   17.5842   27.5725   -4.1303 H   0  0  0  0  0  0  0  0  0  0  0  0
  3  4  1  0  0  0
  4  1  1  0  0  0
  1  2  2  0  0  0
  2 16  1  0  0  0
 16 17  2  0  0  0
 17 18  1  0  0  0
 18 19  2  0  0  0
 19 20  1  0  0  0
 20 21  2  0  0  0
 19 22  1  0  0  0
 22 23  1  0  0  0
 23 24  2  0  0  0
 23 25  1  0  0  0
 25 26  1  0  0  0
  4  5  2  0  0  0
  3  6  1  0  0  0
  6  7  1  0  0  0
  7  8  2  0  0  0
  8  9  1  0  0  0
  9 10  2  0  0  0
 10 11  1  0  0  0
 10 12  1  0  0  0
 12 13  2  0  0  0
  8 14  1  0  0  0
 14 15  1  0  0  0
 15  3  1  0  0  0
 21 16  1  0  0  0
 13  7  1  0  0  0
 26 18  1  0  0  0
 22 27  1  0  0  0
M  END
> <minimizedAffinity>
-10.26704

> <CNNscore>
0.5605874658

> <CNNaffinity>
6.9640226364

> <CNN_VS>
3.9039437771

> <CNNaffinity_variance>
0.3248044550

$$$$
[H]/C(C(=O)N1C([H])([H])c2c(nc(C([H])([H])[H])c([H])c2[H])C([H])([H])C1([H])[H])=C(/[H])c1c([H])nc2c(c1[H])C([H])([H])C([H])([H])C(=O)N2[H]


 27 30  0  0  0  0  0  0  0  0999 V2000
   14.4520   22.7150   -0.6092 C   0  0  0  0  0  0  0  0  0  0  0  0
   15.1972   23.7760   -0.4134 C   0  0  0  0  0  0  0  0  0  0  0  0
   12.7929   21.6682    0.9642 N   0  0  0  0  0  0  0  0  0  0  0  0
   14.1104   21.7974    0.4675 C   0  0  0  0  0  0  0  0  0  0  0  0
   15.0191   21.1021    0.9655 O   0  0  0  0  0  0  0  0  0  0  0  0
   11.7631   22.4892    0.3676 C   0  0  0  0  0  0  0  0  0  0  0  0
   10.4988   22.5069    1.1303 C   0  0  0  0  0  0  0  0  0  0  0  0
   10.1268   21.3734    1.8164 C   0  0  0  0  0  0  0  0  0  0  0  0
    8.9836   21.3757    2.5077 N   0  0  0  0  0  0  0  0  0  0  0  0
    8.2142   22.4874    2.5217 C   0  0  0  0  0  0  0  0  0  0  0  0
    6.9304   22.5123    3.2889 C   0  0  0  0  0  0  0  0  0  0  0  0
    8.5640   23.6343    1.8437 C   0  0  0  0  0  0  0  0  0  0  0  0
    9.7446   23.6613    1.1178 C   0  0  0  0  0  0  0  0  0  0  0  0
   11.0471   20.2095    1.7355 C   0  0  0  0  0  0  0  0  0  0  0  0
   12.4476   20.7540    2.0322 C   0  0  0  0  0  0  0  0  0  0  0  0
   15.5890   24.7459   -1.4250 C   0  0  0  0  0  0  0  0  0  0  0  0
   14.7520   25.0134   -2.4865 C   0  0  0  0  0  0  0  0  0  0  0  0
   15.0855   25.9379   -3.4842 C   0  0  0  0  0  0  0  0  0  0  0  0
   16.2833   26.5980   -3.4028 C   0  0  0  0  0  0  0  0  0  0  0  0
   17.1067   26.3358   -2.3596 N   0  0  0  0  0  0  0  0  0  0  0  0
   16.7744   25.4469   -1.4096 C   0  0  0  0  0  0  0  0  0  0  0  0
   16.6677   27.5413   -4.4001 N   0  0  0  0  0  0  0  0  0  0  0  0
   15.7795   27.7750   -5.4740 C   0  0  0  0  0  0  0  0  0  0  0  0
   15.9023   28.8027   -6.1748 O   0  0  0  0  0  0  0  0  0  0  0  0
   14.6876   26.8177   -5.7972 C   0  0  0  0  0  0  0  0  0  0  0  0
   14.1203   26.1671   -4.5865 C   0  0  0  0  0  0  0  0  0  0  0  0
   17.5955   28.0297   -4.3039 H   0  0  0  0  0  0  0  0  0  0  0  0
  3  4  1  0  0  0
  4  1  1  0  0  0
  1  2  2  0  0  0
  2 16  1  0  0  0
 16 17  2  0  0  0
 17 18  1  0  0  0
 18 19  2  0  0  0
 19 20  1  0  0  0
 20 21  2  0  0  0
 19 22  1  0  0  0
 22 23  1  0  0  0
 23 24  2  0  0  0
 23 25  1  0  0  0
 25 26  1  0  0  0
  4  5  2  0  0  0
  3  6  1  0  0  0
  6  7  1  0  0  0
  7  8  2  0  0  0
  8  9  1  0  0  0
  9 10  2  0  0  0
 10 11  1  0  0  0
 10 12  1  0  0  0
 12 13  2  0  0  0
  8 14  1  0  0  0
 14 15  1  0  0  0
 15  3  1  0  0  0
 21 16  1  0  0  0
 13  7  1  0  0  0
 26 18  1  0  0  0
 22 27  1  0  0  0
M  END
> <minimizedAffinity>
-9.74402

> <CNNscore>
0.5599871874

> <CNNaffinity>
7.1938209534

> <CNN_VS>
4.0284476280

> <CNNaffinity_variance>
0.4881497920

$$$$
[H]/C(C(=O)N1C([H])([H])c2c(nc(C([H])([H])[H])c([H])c2[H])C([H])([H])C1([H])[H])=C(/[H])c1c([H])nc2c(c1[H])C([H])([H])C([H])([H])C(=O)N2[H]


 27 30  0  0  0  0  0  0  0  0999 V2000
   12.7231   23.4342    1.2546 C   0  0  0  0  0  0  0  0  0  0  0  0
   12.3587   24.4431    2.0086 C   0  0  0  0  0  0  0  0  0  0  0  0
   14.5075   24.1479   -0.3673 N   0  0  0  0  0  0  0  0  0  0  0  0
   14.0623   23.3278    0.6949 C   0  0  0  0  0  0  0  0  0  0  0  0
   14.8408   22.4791    1.1755 O   0  0  0  0  0  0  0  0  0  0  0  0
   13.5811   25.1198   -0.9036 C   0  0  0  0  0  0  0  0  0  0  0  0
   14.0187   25.7187   -2.1805 C   0  0  0  0  0  0  0  0  0  0  0  0
   15.3658   25.8988   -2.3968 C   0  0  0  0  0  0  0  0  0  0  0  0
   15.7742   26.4425   -3.5468 N   0  0  0  0  0  0  0  0  0  0  0  0
   14.8607   26.8052   -4.4753 C   0  0  0  0  0  0  0  0  0  0  0  0
   15.2955   27.4157   -5.7698 C   0  0  0  0  0  0  0  0  0  0  0  0
   13.5073   26.6355   -4.2832 C   0  0  0  0  0  0  0  0  0  0  0  0
   13.0540   26.0740   -3.0997 C   0  0  0  0  0  0  0  0  0  0  0  0
   16.2824   25.4628   -1.3115 C   0  0  0  0  0  0  0  0  0  0  0  0
   15.8399   24.0484   -0.9245 C   0  0  0  0  0  0  0  0  0  0  0  0
   11.0471   24.6333    2.6095 C   0  0  0  0  0  0  0  0  0  0  0  0
   10.4578   25.8789    2.6019 C   0  0  0  0  0  0  0  0  0  0  0  0
    9.1978   26.1109    3.1676 C   0  0  0  0  0  0  0  0  0  0  0  0
    8.5289   25.0654    3.7480 C   0  0  0  0  0  0  0  0  0  0  0  0
    9.1074   23.8405    3.7559 N   0  0  0  0  0  0  0  0  0  0  0  0
   10.3162   23.6320    3.2096 C   0  0  0  0  0  0  0  0  0  0  0  0
    7.2479   25.2570    4.3433 N   0  0  0  0  0  0  0  0  0  0  0  0
    6.6888   26.5546    4.3183 C   0  0  0  0  0  0  0  0  0  0  0  0
    5.4644   26.7118    4.5147 O   0  0  0  0  0  0  0  0  0  0  0  0
    7.5297   27.7545    4.0611 C   0  0  0  0  0  0  0  0  0  0  0  0
    8.6378   27.4827    3.1076 C   0  0  0  0  0  0  0  0  0  0  0  0
    6.7637   24.4300    4.7793 H   0  0  0  0  0  0  0  0  0  0  0  0
  3  4  1  0  0  0
  4  1  1  0  0  0
  1  2  2  0  0  0
  2 16  1  0  0  0
 16 17  2  0  0  0
 17 18  1  0  0  0
 18 19  2  0  0  0
 19 20  1  0  0  0
 20 21  2  0  0  0
 19 22  1  0  0  0
 22 23  1  0  0  0
 23 24  2  0  0  0
 23 25  1  0  0  0
 25 26  1  0  0  0
  4  5  2  0  0  0
  3  6  1  0  0  0
  6  7  1  0  0  0
  7  8  2  0  0  0
  8  9  1  0  0  0
  9 10  2  0  0  0
 10 11  1  0  0  0
 10 12  1  0  0  0
 12 13  2  0  0  0
  8 14  1  0  0  0
 14 15  1  0  0  0
 15  3  1  0  0  0
 21 16  1  0  0  0
 13  7  1  0  0  0
 26 18  1  0  0  0
 22 27  1  0  0  0
M  END
> <minimizedAffinity>
1.79808

> <CNNscore>
0.4443289340

> <CNNaffinity>
6.4613137245

> <CNN_VS>
2.8709485531

> <CNNaffinity_variance>
0.6493771672

$$$$
[H]/C(C(=O)N1C([H])([H])c2c(nc(C([H])([H])[H])c([H])c2[H])C([H])([H])C1([H])[H])=C(/[H])c1c([H])nc2c(c1[H])C([H])([H])C([H])([H])C(=O)N2[H]


 27 30  0  0  0  0  0  0  0  0999 V2000
   13.9027   23.1595   -3.1739 C   0  0  0  0  0  0  0  0  0  0  0  0
   14.9949   23.8576   -2.9765 C   0  0  0  0  0  0  0  0  0  0  0  0
   14.1618   21.5653   -1.2464 N   0  0  0  0  0  0  0  0  0  0  0  0
   13.6832   21.8669   -2.5422 C   0  0  0  0  0  0  0  0  0  0  0  0
   13.0482   20.9979   -3.1736 O   0  0  0  0  0  0  0  0  0  0  0  0
   14.8957   22.5927   -0.5418 C   0  0  0  0  0  0  0  0  0  0  0  0
   15.6004   22.1035    0.6601 C   0  0  0  0  0  0  0  0  0  0  0  0
   15.0352   21.0791    1.3846 C   0  0  0  0  0  0  0  0  0  0  0  0
   15.6614   20.6298    2.4758 N   0  0  0  0  0  0  0  0  0  0  0  0
   16.8357   21.1868    2.8486 C   0  0  0  0  0  0  0  0  0  0  0  0
   17.5541   20.6995    4.0667 C   0  0  0  0  0  0  0  0  0  0  0  0
   17.4222   22.2128    2.1409 C   0  0  0  0  0  0  0  0  0  0  0  0
   16.7953   22.6996    1.0045 C   0  0  0  0  0  0  0  0  0  0  0  0
   13.7445   20.5383    0.8848 C   0  0  0  0  0  0  0  0  0  0  0  0
   13.9425   20.2825   -0.6124 C   0  0  0  0  0  0  0  0  0  0  0  0
   15.3004   25.1539   -3.5628 C   0  0  0  0  0  0  0  0  0  0  0  0
   15.2564   25.3214   -4.9300 C   0  0  0  0  0  0  0  0  0  0  0  0
   15.5424   26.5491   -5.5402 C   0  0  0  0  0  0  0  0  0  0  0  0
   15.8773   27.6190   -4.7524 C   0  0  0  0  0  0  0  0  0  0  0  0
   15.9206   27.4553   -3.4084 N   0  0  0  0  0  0  0  0  0  0  0  0
   15.6439   26.2724   -2.8363 C   0  0  0  0  0  0  0  0  0  0  0  0
   16.1843   28.8852   -5.3307 N   0  0  0  0  0  0  0  0  0  0  0  0
   16.1341   29.0050   -6.7378 C   0  0  0  0  0  0  0  0  0  0  0  0
   16.0636   30.1352   -7.2671 O   0  0  0  0  0  0  0  0  0  0  0  0
   16.1636   27.8060   -7.6178 C   0  0  0  0  0  0  0  0  0  0  0  0
   15.4638   26.6391   -7.0183 C   0  0  0  0  0  0  0  0  0  0  0  0
   16.4367   29.6846   -4.6937 H   0  0  0  0  0  0  0  0  0  0  0  0
  3  4  1  0  0  0
  4  1  1  0  0  0
  1  2  2  0  0  0
  2 16  1  0  0  0
 16 17  2  0  0  0
 17 18  1  0  0  0
 18 19  2  0  0  0
 19 20  1  0  0  0
 20 21  2  0  0  0
 19 22  1  0  0  0
 22 23  1  0  0  0
 23 24  2  0  0  0
 23 25  1  0  0  0
 25 26  1  0  0  0
  4  5  2  0  0  0
  3  6  1  0  0  0
  6  7  1  0  0  0
  7  8  2  0  0  0
  8  9  1  0  0  0
  9 10  2  0  0  0
 10 11  1  0  0  0
 10 12  1  0  0  0
 12 13  2  0  0  0
  8 14  1  0  0  0
 14 15  1  0  0  0
 15  3  1  0  0  0
 21 16  1  0  0  0
 13  7  1  0  0  0
 26 18  1  0  0  0
 22 27  1  0  0  0
M  END
> <minimizedAffinity>
24.86280

> <CNNscore>
0.3446981907

> <CNNaffinity>
6.5132799149

> <CNN_VS>
2.2451157570

> <CNNaffinity_variance>
0.5886836052

$$$$
[H]/C(C(=O)N1C([H])([H])c2c(nc(C([H])([H])[H])c([H])c2[H])C([H])([H])C1([H])[H])=C(/[H])c1c([H])nc2c(c1[H])C([H])([H])C([H])([H])C(=O)N2[H]


 27 30  0  0  0  0  0  0  0  0999 V2000
   11.1721   24.8198   -0.9570 C   0  0  0  0  0  0  0  0  0  0  0  0
   10.6126   23.6387   -1.0637 C   0  0  0  0  0  0  0  0  0  0  0  0
   13.5448   25.0130   -1.7675 N   0  0  0  0  0  0  0  0  0  0  0  0
   12.1665   25.2959   -1.9070 C   0  0  0  0  0  0  0  0  0  0  0  0
   11.7809   25.9783   -2.8780 O   0  0  0  0  0  0  0  0  0  0  0  0
   13.9598   24.2218   -0.6307 C   0  0  0  0  0  0  0  0  0  0  0  0
   15.4190   24.2236   -0.4043 C   0  0  0  0  0  0  0  0  0  0  0  0
   16.2552   24.3055   -1.4943 C   0  0  0  0  0  0  0  0  0  0  0  0
   17.5774   24.3048   -1.3028 N   0  0  0  0  0  0  0  0  0  0  0  0
   18.0699   24.2241   -0.0463 C   0  0  0  0  0  0  0  0  0  0  0  0
   19.5467   24.2217    0.1914 C   0  0  0  0  0  0  0  0  0  0  0  0
   17.2546   24.1412    1.0610 C   0  0  0  0  0  0  0  0  0  0  0  0
   15.8787   24.1397    0.8931 C   0  0  0  0  0  0  0  0  0  0  0  0
   15.6084   24.3927   -2.8293 C   0  0  0  0  0  0  0  0  0  0  0  0
   14.5371   25.4811   -2.7119 C   0  0  0  0  0  0  0  0  0  0  0  0
    9.6133   23.0802   -0.1654 C   0  0  0  0  0  0  0  0  0  0  0  0
    8.9584   21.9147   -0.4995 C   0  0  0  0  0  0  0  0  0  0  0  0
    7.9895   21.3394    0.3321 C   0  0  0  0  0  0  0  0  0  0  0  0
    7.6821   21.9554    1.5167 C   0  0  0  0  0  0  0  0  0  0  0  0
    8.3255   23.1011    1.8461 N   0  0  0  0  0  0  0  0  0  0  0  0
    9.2528   23.6419    1.0393 C   0  0  0  0  0  0  0  0  0  0  0  0
    6.6966   21.4101    2.3904 N   0  0  0  0  0  0  0  0  0  0  0  0
    6.0460   20.2180    1.9998 C   0  0  0  0  0  0  0  0  0  0  0  0
    5.4381   19.5304    2.8484 O   0  0  0  0  0  0  0  0  0  0  0  0
    6.0655   19.7533    0.5868 C   0  0  0  0  0  0  0  0  0  0  0  0
    7.3404   20.0798   -0.1052 C   0  0  0  0  0  0  0  0  0  0  0  0
    6.4873   21.9108    3.2926 H   0  0  0  0  0  0  0  0  0  0  0  0
  3  4  1  0  0  0
  4  1  1  0  0  0
  1  2  2  0  0  0
  2 16  1  0  0  0
 16 17  2  0  0  0
 17 18  1  0  0  0
 18 19  2  0  0  0
 19 20  1  0  0  0
 20 21  2  0  0  0
 19 22  1  0  0  0
 22 23  1  0  0  0
 23 24  2  0  0  0
 23 25  1  0  0  0
 25 26  1  0  0  0
  4  5  2  0  0  0
  3  6  1  0  0  0
  6  7  1  0  0  0
  7  8  2  0  0  0
  8  9  1  0  0  0
  9 10  2  0  0  0
 10 11  1  0  0  0
 10 12  1  0  0  0
 12 13  2  0  0  0
  8 14  1  0  0  0
 14 15  1  0  0  0
 15  3  1  0  0  0
 21 16  1  0  0  0
 13  7  1  0  0  0
 26 18  1  0  0  0
 22 27  1  0  0  0
M  END
> <minimizedAffinity>
1.38852

> <CNNscore>
0.3184966445

> <CNNaffinity>
6.1920590401

> <CNN_VS>
1.9721499681

> <CNNaffinity_variance>
0.9574357271

$$$$
[H]/C(C(=O)N1C([H])([H])c2c(nc(C([H])([H])[H])c([H])c2[H])C([H])([H])C1([H])[H])=C(/[H])c1c([H])nc2c(c1[H])C([H])([H])C([H])([H])C(=O)N2[H]


 27 30  0  0  0  0  0  0  0  0999 V2000
   13.7395   21.3834    0.5748 C   0  0  0  0  0  0  0  0  0  0  0  0
   14.4645   22.1901   -0.1621 C   0  0  0  0  0  0  0  0  0  0  0  0
   11.4615   20.4113    0.1392 N   0  0  0  0  0  0  0  0  0  0  0  0
   12.8673   20.3743   -0.0075 C   0  0  0  0  0  0  0  0  0  0  0  0
   13.3866   19.4453   -0.6589 O   0  0  0  0  0  0  0  0  0  0  0  0
   10.8908   21.4993    0.9015 C   0  0  0  0  0  0  0  0  0  0  0  0
    9.4690   21.3023    1.2483 C   0  0  0  0  0  0  0  0  0  0  0  0
    8.6639   20.6183    0.3664 C   0  0  0  0  0  0  0  0  0  0  0  0
    7.3750   20.4363    0.6673 N   0  0  0  0  0  0  0  0  0  0  0  0
    6.8852   20.9250    1.8289 C   0  0  0  0  0  0  0  0  0  0  0  0
    5.4455   20.7328    2.1861 C   0  0  0  0  0  0  0  0  0  0  0  0
    7.6699   21.6126    2.7283 C   0  0  0  0  0  0  0  0  0  0  0  0
    9.0109   21.8170    2.4429 C   0  0  0  0  0  0  0  0  0  0  0  0
    9.3050   20.1222   -0.8790 C   0  0  0  0  0  0  0  0  0  0  0  0
   10.5897   19.4121   -0.4415 C   0  0  0  0  0  0  0  0  0  0  0  0
   15.3615   23.2251    0.3296 C   0  0  0  0  0  0  0  0  0  0  0  0
   14.8567   24.4424    0.7326 C   0  0  0  0  0  0  0  0  0  0  0  0
   15.6800   25.4687    1.2126 C   0  0  0  0  0  0  0  0  0  0  0  0
   17.0317   25.2560    1.2836 C   0  0  0  0  0  0  0  0  0  0  0  0
   17.5287   24.0596    0.8878 N   0  0  0  0  0  0  0  0  0  0  0  0
   16.7278   23.0840    0.4297 C   0  0  0  0  0  0  0  0  0  0  0  0
   17.9084   26.2751    1.7578 N   0  0  0  0  0  0  0  0  0  0  0  0
   17.3443   27.5095    2.1512 C   0  0  0  0  0  0  0  0  0  0  0  0
   17.9988   28.2955    2.8698 O   0  0  0  0  0  0  0  0  0  0  0  0
   15.9740   27.9040    1.7273 C   0  0  0  0  0  0  0  0  0  0  0  0
   15.0490   26.7439    1.6305 C   0  0  0  0  0  0  0  0  0  0  0  0
   18.9413   26.0752    1.7990 H   0  0  0  0  0  0  0  0  0  0  0  0
  3  4  1  0  0  0
  4  1  1  0  0  0
  1  2  2  0  0  0
  2 16  1  0  0  0
 16 17  2  0  0  0
 17 18  1  0  0  0
 18 19  2  0  0  0
 19 20  1  0  0  0
 20 21  2  0  0  0
 19 22  1  0  0  0
 22 23  1  0  0  0
 23 24  2  0  0  0
 23 25  1  0  0  0
 25 26  1  0  0  0
  4  5  2  0  0  0
  3  6  1  0  0  0
  6  7  1  0  0  0
  7  8  2  0  0  0
  8  9  1  0  0  0
  9 10  2  0  0  0
 10 11  1  0  0  0
 10 12  1  0  0  0
 12 13  2  0  0  0
  8 14  1  0  0  0
 14 15  1  0  0  0
 15  3  1  0  0  0
 21 16  1  0  0  0
 13  7  1  0  0  0
 26 18  1  0  0  0
 22 27  1  0  0  0
M  END
> <minimizedAffinity>
24.31106

> <CNNscore>
0.2924597561

> <CNNaffinity>
5.8111925125

> <CNN_VS>
1.6995398998

> <CNNaffinity_variance>
0.3456507325

$$$$
[H]/C(C(=O)N1C([H])([H])c2c(nc(C([H])([H])[H])c([H])c2[H])C([H])([H])C1([H])[H])=C(/[H])c1c([H])nc2c(c1[H])C([H])([H])C([H])([H])C(=O)N2[H]


 27 30  0  0  0  0  0  0  0  0999 V2000
   14.8184   24.0773    0.2925 C   0  0  0  0  0  0  0  0  0  0  0  0
   13.6648   24.3362   -0.2745 C   0  0  0  0  0  0  0  0  0  0  0  0
   16.2325   25.1787   -1.4714 N   0  0  0  0  0  0  0  0  0  0  0  0
   16.0584   24.6941   -0.1546 C   0  0  0  0  0  0  0  0  0  0  0  0
   16.9982   24.7956    0.6600 O   0  0  0  0  0  0  0  0  0  0  0  0
   15.1256   25.0443   -2.3919 C   0  0  0  0  0  0  0  0  0  0  0  0
   15.4872   25.3019   -3.8003 C   0  0  0  0  0  0  0  0  0  0  0  0
   16.4634   26.2336   -4.0706 C   0  0  0  0  0  0  0  0  0  0  0  0
   16.7973   26.4778   -5.3409 N   0  0  0  0  0  0  0  0  0  0  0  0
   16.1731   25.8081   -6.3358 C   0  0  0  0  0  0  0  0  0  0  0  0
   16.5311   26.0657   -7.7651 C   0  0  0  0  0  0  0  0  0  0  0  0
   15.1933   24.8711   -6.0919 C   0  0  0  0  0  0  0  0  0  0  0  0
   14.8259   24.5968   -4.7838 C   0  0  0  0  0  0  0  0  0  0  0  0
   17.0860   26.9091   -2.9026 C   0  0  0  0  0  0  0  0  0  0  0  0
   17.4626   25.7965   -1.9195 C   0  0  0  0  0  0  0  0  0  0  0  0
   12.3787   23.7695    0.1030 C   0  0  0  0  0  0  0  0  0  0  0  0
   11.3335   24.5982    0.4493 C   0  0  0  0  0  0  0  0  0  0  0  0
   10.0782   24.0998    0.8196 C   0  0  0  0  0  0  0  0  0  0  0  0
    9.8826   22.7438    0.8387 C   0  0  0  0  0  0  0  0  0  0  0  0
   10.9094   21.9285    0.4983 N   0  0  0  0  0  0  0  0  0  0  0  0
   12.1080   22.4198    0.1450 C   0  0  0  0  0  0  0  0  0  0  0  0
    8.6239   22.1919    1.2172 N   0  0  0  0  0  0  0  0  0  0  0  0
    7.5856   23.0821    1.5724 C   0  0  0  0  0  0  0  0  0  0  0  0
    6.3999   22.6866    1.5853 O   0  0  0  0  0  0  0  0  0  0  0  0
    7.8696   24.4963    1.9364 C   0  0  0  0  0  0  0  0  0  0  0  0
    9.0095   25.0662    1.1703 C   0  0  0  0  0  0  0  0  0  0  0  0
    8.5105   21.1452    1.2195 H   0  0  0  0  0  0  0  0  0  0  0  0
  3  4  1  0  0  0
  4  1  1  0  0  0
  1  2  2  0  0  0
  2 16  1  0  0  0
 16 17  2  0  0  0
 17 18  1  0  0  0
 18 19  2  0  0  0
 19 20  1  0  0  0
 20 21  2  0  0  0
 19 22  1  0  0  0
 22 23  1  0  0  0
 23 24  2  0  0  0
 23 25  1  0  0  0
 25 26  1  0  0  0
  4  5  2  0  0  0
  3  6  1  0  0  0
  6  7  1  0  0  0
  7  8  2  0  0  0
  8  9  1  0  0  0
  9 10  2  0  0  0
 10 11  1  0  0  0
 10 12  1  0  0  0
 12 13  2  0  0  0
  8 14  1  0  0  0
 14 15  1  0  0  0
 15  3  1  0  0  0
 21 16  1  0  0  0
 13  7  1  0  0  0
 26 18  1  0  0  0
 22 27  1  0  0  0
M  END
> <minimizedAffinity>
-1.39335

> <CNNscore>
0.2890394032

> <CNNaffinity>
6.7918586731

> <CNN_VS>
1.9631147385

> <CNNaffinity_variance>
0.5698696971

$$$$
[H]/C(C(=O)N1C([H])([H])c2c(nc(C([H])([H])[H])c([H])c2[H])C([H])([H])C1([H])[H])=C(/[H])c1c([H])nc2c(c1[H])C([H])([H])C([H])([H])C(=O)N2[H]


 27 30  0  0  0  0  0  0  0  0999 V2000
   11.2386   24.0205    0.8459 C   0  0  0  0  0  0  0  0  0  0  0  0
   11.2809   24.6293   -0.3146 C   0  0  0  0  0  0  0  0  0  0  0  0
    9.1383   22.7100    1.2880 N   0  0  0  0  0  0  0  0  0  0  0  0
    9.9910   23.8037    1.5633 C   0  0  0  0  0  0  0  0  0  0  0  0
    9.6688   24.6173    2.4529 O   0  0  0  0  0  0  0  0  0  0  0  0
    9.5387   21.7865    0.2501 C   0  0  0  0  0  0  0  0  0  0  0  0
    8.4684   20.8587   -0.1673 C   0  0  0  0  0  0  0  0  0  0  0  0
    7.5535   20.4420    0.7725 C   0  0  0  0  0  0  0  0  0  0  0  0
    6.5822   19.6002    0.4079 N   0  0  0  0  0  0  0  0  0  0  0  0
    6.5146   19.1736   -0.8732 C   0  0  0  0  0  0  0  0  0  0  0  0
    5.4356   18.2311   -1.3034 C   0  0  0  0  0  0  0  0  0  0  0  0
    7.4176   19.5757   -1.8326 C   0  0  0  0  0  0  0  0  0  0  0  0
    8.4362   20.4486   -1.4836 C   0  0  0  0  0  0  0  0  0  0  0  0
    7.7189   20.9742    2.1500 C   0  0  0  0  0  0  0  0  0  0  0  0
    7.8985   22.4881    2.0017 C   0  0  0  0  0  0  0  0  0  0  0  0
   12.4767   24.8899   -1.1019 C   0  0  0  0  0  0  0  0  0  0  0  0
   12.3970   25.6507   -2.2481 C   0  0  0  0  0  0  0  0  0  0  0  0
   13.5195   25.9282   -3.0382 C   0  0  0  0  0  0  0  0  0  0  0  0
   14.7371   25.4267   -2.6596 C   0  0  0  0  0  0  0  0  0  0  0  0
   14.8164   24.6788   -1.5330 N   0  0  0  0  0  0  0  0  0  0  0  0
   13.7320   24.4205   -0.7845 C   0  0  0  0  0  0  0  0  0  0  0  0
   15.9049   25.6768   -3.4378 N   0  0  0  0  0  0  0  0  0  0  0  0
   15.7709   26.4550   -4.6096 C   0  0  0  0  0  0  0  0  0  0  0  0
   16.7794   26.9758   -5.1333 O   0  0  0  0  0  0  0  0  0  0  0  0
   14.4439   26.6740   -5.2454 C   0  0  0  0  0  0  0  0  0  0  0  0
   13.3412   26.7615   -4.2518 C   0  0  0  0  0  0  0  0  0  0  0  0
   16.8234   25.2756   -3.1154 H   0  0  0  0  0  0  0  0  0  0  0  0
  3  4  1  0  0  0
  4  1  1  0  0  0
  1  2  2  0  0  0
  2 16  1  0  0  0
 16 17  2  0  0  0
 17 18  1  0  0  0
 18 19  2  0  0  0
 19 20  1  0  0  0
 20 21  2  0  0  0
 19 22  1  0  0  0
 22 23  1  0  0  0
 23 24  2  0  0  0
 23 25  1  0  0  0
 25 26  1  0  0  0
  4  5  2  0  0  0
  3  6  1  0  0  0
  6  7  1  0  0  0
  7  8  2  0  0  0
  8  9  1  0  0  0
  9 10  2  0  0  0
 10 11  1  0  0  0
 10 12  1  0  0  0
 12 13  2  0  0  0
  8 14  1  0  0  0
 14 15  1  0  0  0
 15  3  1  0  0  0
 21 16  1  0  0  0
 13  7  1  0  0  0
 26 18  1  0  0  0
 22 27  1  0  0  0
M  END
> <minimizedAffinity>
-8.78152

> <CNNscore>
0.2517439425

> <CNNaffinity>
6.3294267654

> <CNN_VS>
1.5933948755

> <CNNaffinity_variance>
0.4339959621

$$$$
[H]c1nc(OC2([H])C([H])([H])C([H])([H])OC([H])([H])C2([H])[H])c(N2C([H])([H])C([H])([H])OC([H])([H])C2([H])[H])c([H])c1-c1c(C([H])([H])[H])nc([H])c(N([H])C(=O)c2c([H])c([H])c(OC([H])([H])[H])c([H])c2[H])c1[H]


 38 42  0  0  0  0  0  0  0  0999 V2000
   13.3451   22.9622    1.2516 C   0  0  0  0  0  0  0  0  0  0  0  0
   14.6753   22.7300    1.3941 C   0  0  0  0  0  0  0  0  0  0  0  0
   15.5869   23.2477    0.5125 N   0  0  0  0  0  0  0  0  0  0  0  0
   15.2127   24.0119   -0.5398 C   0  0  0  0  0  0  0  0  0  0  0  0
   16.2951   24.5081   -1.4358 C   0  0  0  0  0  0  0  0  0  0  0  0
   13.8832   24.2808   -0.7362 C   0  0  0  0  0  0  0  0  0  0  0  0
   12.9765   23.7613    0.1477 C   0  0  0  0  0  0  0  0  0  0  0  0
   13.4581   25.1066   -1.8492 C   0  0  0  0  0  0  0  0  0  0  0  0
   12.2107   25.7035   -1.8793 C   0  0  0  0  0  0  0  0  0  0  0  0
   11.8124   26.4749   -2.9004 N   0  0  0  0  0  0  0  0  0  0  0  0
   12.6037   26.7198   -3.9670 C   0  0  0  0  0  0  0  0  0  0  0  0
   13.8619   26.1588   -4.0072 C   0  0  0  0  0  0  0  0  0  0  0  0
   14.2754   25.3642   -2.9580 C   0  0  0  0  0  0  0  0  0  0  0  0
   14.7270   26.3774   -5.0901 N   0  0  0  0  0  0  0  0  0  0  0  0
   15.1641   25.3293   -5.9655 C   0  0  0  0  0  0  0  0  0  0  0  0
   15.5297   25.8144   -7.3370 C   0  0  0  0  0  0  0  0  0  0  0  0
   16.2764   26.9616   -7.3644 O   0  0  0  0  0  0  0  0  0  0  0  0
   16.4804   27.5760   -6.1563 C   0  0  0  0  0  0  0  0  0  0  0  0
   15.2065   27.7221   -5.3469 C   0  0  0  0  0  0  0  0  0  0  0  0
   12.1851   27.5162   -5.0159 O   0  0  0  0  0  0  0  0  0  0  0  0
   11.8549   28.8699   -4.8968 C   0  0  0  0  0  0  0  0  0  0  0  0
   12.6055   29.4584   -3.7408 C   0  0  0  0  0  0  0  0  0  0  0  0
   11.6741   30.2715   -2.8759 C   0  0  0  0  0  0  0  0  0  0  0  0
   10.8842   31.0656   -3.6827 O   0  0  0  0  0  0  0  0  0  0  0  0
    9.9097   30.3663   -4.3599 C   0  0  0  0  0  0  0  0  0  0  0  0
   10.3528   28.9845   -4.7362 C   0  0  0  0  0  0  0  0  0  0  0  0
   12.1602   21.1365    2.4272 C   0  0  0  0  0  0  0  0  0  0  0  0
   12.8804   20.2499    1.9305 O   0  0  0  0  0  0  0  0  0  0  0  0
   12.3538   22.4876    2.1287 N   0  0  0  0  0  0  0  0  0  0  0  0
   11.7349   23.2436    2.5706 H   0  0  0  0  0  0  0  0  0  0  0  0
    9.1513   19.7819    5.1657 C   0  0  0  0  0  0  0  0  0  0  0  0
    8.8787   20.8124    4.2746 C   0  0  0  0  0  0  0  0  0  0  0  0
    9.8507   21.2687    3.3710 C   0  0  0  0  0  0  0  0  0  0  0  0
   11.0873   20.7086    3.3489 C   0  0  0  0  0  0  0  0  0  0  0  0
   11.3346   19.6879    4.2431 C   0  0  0  0  0  0  0  0  0  0  0  0
   10.3925   19.2362    5.1278 C   0  0  0  0  0  0  0  0  0  0  0  0
    6.8953   19.7400    6.1691 C   0  0  0  0  0  0  0  0  0  0  0  0
    8.2128   19.3181    6.0595 O   0  0  0  0  0  0  0  0  0  0  0  0
 37 38  1  0  0  0
 38 31  1  0  0  0
 31 32  2  0  0  0
 32 33  1  0  0  0
 33 34  2  0  0  0
 34 35  1  0  0  0
 35 36  2  0  0  0
 34 27  1  0  0  0
 27 28  2  0  0  0
 27 29  1  0  0  0
 29  1  1  0  0  0
  1  2  2  0  0  0
  2  3  1  0  0  0
  3  4  2  0  0  0
  4  5  1  0  0  0
  4  6  1  0  0  0
  6  7  2  0  0  0
  6  8  1  0  0  0
  8  9  2  0  0  0
  9 10  1  0  0  0
 10 11  2  0  0  0
 11 20  1  0  0  0
 20 21  1  0  0  0
 21 22  1  0  0  0
 22 23  1  0  0  0
 23 24  1  0  0  0
 24 25  1  0  0  0
 25 26  1  0  0  0
 11 12  1  0  0  0
 12 13  2  0  0  0
 12 14  1  0  0  0
 14 15  1  0  0  0
 15 16  1  0  0  0
 16 17  1  0  0  0
 17 18  1  0  0  0
 18 19  1  0  0  0
 36 31  1  0  0  0
  7  1  1  0  0  0
 13  8  1  0  0  0
 19 14  1  0  0  0
 26 21  1  0  0  0
 29 30  1  0  0  0
M  END
> <minimizedAffinity>
9.73956

> <CNNscore>
0.5448098183

> <CNNaffinity>
7.3020644188

> <CNN_VS>
3.9782364368

> <CNNaffinity_variance>
0.3748999238

$$$$
[H]c1nc(OC2([H])C([H])([H])C([H])([H])OC([H])([H])C2([H])[H])c(N2C([H])([H])C([H])([H])OC([H])([H])C2([H])[H])c([H])c1-c1c(C([H])([H])[H])nc([H])c(N([H])C(=O)c2c([H])c([H])c(OC([H])([H])[H])c([H])c2[H])c1[H]


 38 42  0  0  0  0  0  0  0  0999 V2000
    9.6924   22.8749    0.1891 C   0  0  0  0  0  0  0  0  0  0  0  0
    8.8824   23.5833   -0.6390 C   0  0  0  0  0  0  0  0  0  0  0  0
    9.3967   24.4262   -1.5883 N   0  0  0  0  0  0  0  0  0  0  0  0
   10.7295   24.5970   -1.7494 C   0  0  0  0  0  0  0  0  0  0  0  0
   11.1676   25.5496   -2.8081 C   0  0  0  0  0  0  0  0  0  0  0  0
   11.5977   23.9088   -0.9424 C   0  0  0  0  0  0  0  0  0  0  0  0
   11.0787   23.0677    0.0044 C   0  0  0  0  0  0  0  0  0  0  0  0
   13.0298   24.0654   -1.1031 C   0  0  0  0  0  0  0  0  0  0  0  0
   13.9297   23.4780   -0.2323 C   0  0  0  0  0  0  0  0  0  0  0  0
   15.2554   23.6109   -0.3779 N   0  0  0  0  0  0  0  0  0  0  0  0
   15.7992   24.3275   -1.3851 C   0  0  0  0  0  0  0  0  0  0  0  0
   14.9643   24.9420   -2.2934 C   0  0  0  0  0  0  0  0  0  0  0  0
   13.5992   24.8074   -2.1467 C   0  0  0  0  0  0  0  0  0  0  0  0
   15.4726   25.7000   -3.3592 N   0  0  0  0  0  0  0  0  0  0  0  0
   15.3602   25.2950   -4.7301 C   0  0  0  0  0  0  0  0  0  0  0  0
   15.3791   26.4451   -5.6928 C   0  0  0  0  0  0  0  0  0  0  0  0
   16.3224   27.4023   -5.4314 O   0  0  0  0  0  0  0  0  0  0  0  0
   17.0300   27.2481   -4.2677 C   0  0  0  0  0  0  0  0  0  0  0  0
   16.1432   26.9541   -3.0734 C   0  0  0  0  0  0  0  0  0  0  0  0
   17.1674   24.4598   -1.5279 O   0  0  0  0  0  0  0  0  0  0  0  0
   18.0391   24.8111   -0.4925 C   0  0  0  0  0  0  0  0  0  0  0  0
   19.3975   24.2479   -0.7821 C   0  0  0  0  0  0  0  0  0  0  0  0
   19.9492   23.5645    0.4448 C   0  0  0  0  0  0  0  0  0  0  0  0
   19.7391   24.3704    1.5455 O   0  0  0  0  0  0  0  0  0  0  0  0
   18.4252   24.4095    1.9572 C   0  0  0  0  0  0  0  0  0  0  0  0
   17.4627   24.3023    0.8129 C   0  0  0  0  0  0  0  0  0  0  0  0
    9.5391   22.0844    2.5281 C   0  0  0  0  0  0  0  0  0  0  0  0
   10.2326   23.0210    2.9677 O   0  0  0  0  0  0  0  0  0  0  0  0
    9.2399   21.9725    1.1680 N   0  0  0  0  0  0  0  0  0  0  0  0
    8.6326   21.1681    0.8019 H   0  0  0  0  0  0  0  0  0  0  0  0
    7.9408   19.2074    5.2770 C   0  0  0  0  0  0  0  0  0  0  0  0
    9.2770   19.5816    5.3483 C   0  0  0  0  0  0  0  0  0  0  0  0
    9.8175   20.5216    4.4575 C   0  0  0  0  0  0  0  0  0  0  0  0
    9.0401   21.0892    3.4999 C   0  0  0  0  0  0  0  0  0  0  0  0
    7.7174   20.7016    3.4483 C   0  0  0  0  0  0  0  0  0  0  0  0
    7.1815   19.7856    4.3132 C   0  0  0  0  0  0  0  0  0  0  0  0
    7.4722   16.9067    6.0420 C   0  0  0  0  0  0  0  0  0  0  0  0
    7.3897   18.2884    6.1410 O   0  0  0  0  0  0  0  0  0  0  0  0
 37 38  1  0  0  0
 38 31  1  0  0  0
 31 32  2  0  0  0
 32 33  1  0  0  0
 33 34  2  0  0  0
 34 35  1  0  0  0
 35 36  2  0  0  0
 34 27  1  0  0  0
 27 28  2  0  0  0
 27 29  1  0  0  0
 29  1  1  0  0  0
  1  2  2  0  0  0
  2  3  1  0  0  0
  3  4  2  0  0  0
  4  5  1  0  0  0
  4  6  1  0  0  0
  6  7  2  0  0  0
  6  8  1  0  0  0
  8  9  2  0  0  0
  9 10  1  0  0  0
 10 11  2  0  0  0
 11 20  1  0  0  0
 20 21  1  0  0  0
 21 22  1  0  0  0
 22 23  1  0  0  0
 23 24  1  0  0  0
 24 25  1  0  0  0
 25 26  1  0  0  0
 11 12  1  0  0  0
 12 13  2  0  0  0
 12 14  1  0  0  0
 14 15  1  0  0  0
 15 16  1  0  0  0
 16 17  1  0  0  0
 17 18  1  0  0  0
 18 19  1  0  0  0
 36 31  1  0  0  0
  7  1  1  0  0  0
 13  8  1  0  0  0
 19 14  1  0  0  0
 26 21  1  0  0  0
 29 30  1  0  0  0
M  END
> <minimizedAffinity>
10.23015

> <CNNscore>
0.5309768319

> <CNNaffinity>
7.5653138161

> <CNN_VS>
4.0170063972

> <CNNaffinity_variance>
0.9697164297

$$$$
[H]c1nc(OC2([H])C([H])([H])C([H])([H])OC([H])([H])C2([H])[H])c(N2C([H])([H])C([H])([H])OC([H])([H])C2([H])[H])c([H])c1-c1c(C([H])([H])[H])nc([H])c(N([H])C(=O)c2c([H])c([H])c(OC([H])([H])[H])c([H])c2[H])c1[H]


 38 42  0  0  0  0  0  0  0  0999 V2000
   12.3010   21.0466    1.1901 C   0  0  0  0  0  0  0  0  0  0  0  0
   13.3356   20.6235    1.9609 C   0  0  0  0  0  0  0  0  0  0  0  0
   14.6358   20.8466    1.5923 N   0  0  0  0  0  0  0  0  0  0  0  0
   14.9557   21.4951    0.4484 C   0  0  0  0  0  0  0  0  0  0  0  0
   16.4054   21.6671    0.1496 C   0  0  0  0  0  0  0  0  0  0  0  0
   13.9540   21.9460   -0.3713 C   0  0  0  0  0  0  0  0  0  0  0  0
   12.6566   21.7207    0.0017 C   0  0  0  0  0  0  0  0  0  0  0  0
   14.2708   22.6539   -1.5961 C   0  0  0  0  0  0  0  0  0  0  0  0
   15.1346   22.1277   -2.5395 C   0  0  0  0  0  0  0  0  0  0  0  0
   15.4269   22.7715   -3.6782 N   0  0  0  0  0  0  0  0  0  0  0  0
   14.8966   23.9766   -3.9785 C   0  0  0  0  0  0  0  0  0  0  0  0
   14.0262   24.5639   -3.0858 C   0  0  0  0  0  0  0  0  0  0  0  0
   13.7229   23.9042   -1.9127 C   0  0  0  0  0  0  0  0  0  0  0  0
   13.4455   25.8149   -3.3441 N   0  0  0  0  0  0  0  0  0  0  0  0
   13.3193   26.3607   -4.6640 C   0  0  0  0  0  0  0  0  0  0  0  0
   12.1825   27.3296   -4.8000 C   0  0  0  0  0  0  0  0  0  0  0  0
   12.0607   28.2259   -3.7723 O   0  0  0  0  0  0  0  0  0  0  0  0
   12.9044   28.0399   -2.7082 C   0  0  0  0  0  0  0  0  0  0  0  0
   12.9444   26.6006   -2.2326 C   0  0  0  0  0  0  0  0  0  0  0  0
   15.2035   24.6339   -5.1548 O   0  0  0  0  0  0  0  0  0  0  0  0
   16.1341   25.6724   -5.2595 C   0  0  0  0  0  0  0  0  0  0  0  0
   16.5680   26.0831   -3.8850 C   0  0  0  0  0  0  0  0  0  0  0  0
   16.5295   27.5859   -3.7551 C   0  0  0  0  0  0  0  0  0  0  0  0
   17.1033   28.1524   -4.8754 O   0  0  0  0  0  0  0  0  0  0  0  0
   16.3154   28.0656   -6.0019 C   0  0  0  0  0  0  0  0  0  0  0  0
   15.4992   26.8086   -6.0348 C   0  0  0  0  0  0  0  0  0  0  0  0
   10.1369   21.8901    2.0415 C   0  0  0  0  0  0  0  0  0  0  0  0
   10.5812   23.0349    2.2497 O   0  0  0  0  0  0  0  0  0  0  0  0
   10.9431   20.8780    1.5145 N   0  0  0  0  0  0  0  0  0  0  0  0
   10.5473   19.8988    1.3289 H   0  0  0  0  0  0  0  0  0  0  0  0
    6.0687   21.1231    3.1593 C   0  0  0  0  0  0  0  0  0  0  0  0
    6.3847   21.4760    1.8531 C   0  0  0  0  0  0  0  0  0  0  0  0
    7.7102   21.7304    1.4689 C   0  0  0  0  0  0  0  0  0  0  0  0
    8.7191   21.6366    2.3726 C   0  0  0  0  0  0  0  0  0  0  0  0
    8.3810   21.2856    3.6628 C   0  0  0  0  0  0  0  0  0  0  0  0
    7.0908   21.0354    4.0465 C   0  0  0  0  0  0  0  0  0  0  0  0
    4.3111   19.7120    4.1681 C   0  0  0  0  0  0  0  0  0  0  0  0
    4.7760   20.8683    3.5575 O   0  0  0  0  0  0  0  0  0  0  0  0
 37 38  1  0  0  0
 38 31  1  0  0  0
 31 32  2  0  0  0
 32 33  1  0  0  0
 33 34  2  0  0  0
 34 35  1  0  0  0
 35 36  2  0  0  0
 34 27  1  0  0  0
 27 28  2  0  0  0
 27 29  1  0  0  0
 29  1  1  0  0  0
  1  2  2  0  0  0
  2  3  1  0  0  0
  3  4  2  0  0  0
  4  5  1  0  0  0
  4  6  1  0  0  0
  6  7  2  0  0  0
  6  8  1  0  0  0
  8  9  2  0  0  0
  9 10  1  0  0  0
 10 11  2  0  0  0
 11 20  1  0  0  0
 20 21  1  0  0  0
 21 22  1  0  0  0
 22 23  1  0  0  0
 23 24  1  0  0  0
 24 25  1  0  0  0
 25 26  1  0  0  0
 11 12  1  0  0  0
 12 13  2  0  0  0
 12 14  1  0  0  0
 14 15  1  0  0  0
 15 16  1  0  0  0
 16 17  1  0  0  0
 17 18  1  0  0  0
 18 19  1  0  0  0
 36 31  1  0  0  0
  7  1  1  0  0  0
 13  8  1  0  0  0
 19 14  1  0  0  0
 26 21  1  0  0  0
 29 30  1  0  0  0
M  END
> <minimizedAffinity>
2.45538

> <CNNscore>
0.4294731915

> <CNNaffinity>
7.1641058922

> <CNN_VS>
3.0767915249

> <CNNaffinity_variance>
0.3387959599

$$$$
[H]c1nc(OC2([H])C([H])([H])C([H])([H])OC([H])([H])C2([H])[H])c(N2C([H])([H])C([H])([H])OC([H])([H])C2([H])[H])c([H])c1-c1c(C([H])([H])[H])nc([H])c(N([H])C(=O)c2c([H])c([H])c(OC([H])([H])[H])c([H])c2[H])c1[H]


 38 42  0  0  0  0  0  0  0  0999 V2000
   11.8419   22.0486    0.9334 C   0  0  0  0  0  0  0  0  0  0  0  0
   12.9490   21.6368    1.6030 C   0  0  0  0  0  0  0  0  0  0  0  0
   14.1932   22.1105    1.2810 N   0  0  0  0  0  0  0  0  0  0  0  0
   14.3837   23.0069    0.2852 C   0  0  0  0  0  0  0  0  0  0  0  0
   15.7851   23.4389    0.0211 C   0  0  0  0  0  0  0  0  0  0  0  0
   13.3038   23.4597   -0.4272 C   0  0  0  0  0  0  0  0  0  0  0  0
   12.0628   22.9834   -0.1013 C   0  0  0  0  0  0  0  0  0  0  0  0
   13.4803   24.4288   -1.4907 C   0  0  0  0  0  0  0  0  0  0  0  0
   12.4421   24.7842   -2.3327 C   0  0  0  0  0  0  0  0  0  0  0  0
   12.5942   25.6851   -3.3133 N   0  0  0  0  0  0  0  0  0  0  0  0
   13.7718   26.3049   -3.5432 C   0  0  0  0  0  0  0  0  0  0  0  0
   14.8526   26.0018   -2.7435 C   0  0  0  0  0  0  0  0  0  0  0  0
   14.6999   25.0750   -1.7331 C   0  0  0  0  0  0  0  0  0  0  0  0
   16.1007   26.6134   -2.9363 N   0  0  0  0  0  0  0  0  0  0  0  0
   16.3158   27.6706   -3.8807 C   0  0  0  0  0  0  0  0  0  0  0  0
   17.4600   28.5693   -3.5162 C   0  0  0  0  0  0  0  0  0  0  0  0
   18.5860   27.9237   -3.0804 O   0  0  0  0  0  0  0  0  0  0  0  0
   18.4767   26.5673   -2.9164 C   0  0  0  0  0  0  0  0  0  0  0  0
   17.2329   26.1650   -2.1481 C   0  0  0  0  0  0  0  0  0  0  0  0
   13.9202   27.2325   -4.5568 O   0  0  0  0  0  0  0  0  0  0  0  0
   14.2949   26.9177   -5.8668 C   0  0  0  0  0  0  0  0  0  0  0  0
   14.5078   25.4380   -5.9743 C   0  0  0  0  0  0  0  0  0  0  0  0
   15.8060   25.1501   -6.6874 C   0  0  0  0  0  0  0  0  0  0  0  0
   15.9004   25.9598   -7.8013 O   0  0  0  0  0  0  0  0  0  0  0  0
   16.1665   27.2780   -7.5034 C   0  0  0  0  0  0  0  0  0  0  0  0
   15.5370   27.7126   -6.2142 C   0  0  0  0  0  0  0  0  0  0  0  0
    9.7813   22.1043    2.3009 C   0  0  0  0  0  0  0  0  0  0  0  0
   10.2354   22.9608    3.0830 O   0  0  0  0  0  0  0  0  0  0  0  0
   10.5317   21.6280    1.2229 N   0  0  0  0  0  0  0  0  0  0  0  0
   10.1267   20.8986    0.5492 H   0  0  0  0  0  0  0  0  0  0  0  0
    5.8494   20.6446    3.1939 C   0  0  0  0  0  0  0  0  0  0  0  0
    6.1971   20.9769    1.8904 C   0  0  0  0  0  0  0  0  0  0  0  0
    7.4789   21.4559    1.5792 C   0  0  0  0  0  0  0  0  0  0  0  0
    8.4131   21.6059    2.5530 C   0  0  0  0  0  0  0  0  0  0  0  0
    8.0447   21.2703    3.8390 C   0  0  0  0  0  0  0  0  0  0  0  0
    6.7967   20.8021    4.1518 C   0  0  0  0  0  0  0  0  0  0  0  0
    4.3109   19.0133    4.2283 C   0  0  0  0  0  0  0  0  0  0  0  0
    4.5987   20.1723    3.5213 O   0  0  0  0  0  0  0  0  0  0  0  0
 37 38  1  0  0  0
 38 31  1  0  0  0
 31 32  2  0  0  0
 32 33  1  0  0  0
 33 34  2  0  0  0
 34 35  1  0  0  0
 35 36  2  0  0  0
 34 27  1  0  0  0
 27 28  2  0  0  0
 27 29  1  0  0  0
 29  1  1  0  0  0
  1  2  2  0  0  0
  2  3  1  0  0  0
  3  4  2  0  0  0
  4  5  1  0  0  0
  4  6  1  0  0  0
  6  7  2  0  0  0
  6  8  1  0  0  0
  8  9  2  0  0  0
  9 10  1  0  0  0
 10 11  2  0  0  0
 11 20  1  0  0  0
 20 21  1  0  0  0
 21 22  1  0  0  0
 22 23  1  0  0  0
 23 24  1  0  0  0
 24 25  1  0  0  0
 25 26  1  0  0  0
 11 12  1  0  0  0
 12 13  2  0  0  0
 12 14  1  0  0  0
 14 15  1  0  0  0
 15 16  1  0  0  0
 16 17  1  0  0  0
 17 18  1  0  0  0
 18 19  1  0  0  0
 36 31  1  0  0  0
  7  1  1  0  0  0
 13  8  1  0  0  0
 19 14  1  0  0  0
 26 21  1  0  0  0
 29 30  1  0  0  0
M  END
> <minimizedAffinity>
-0.76695

> <CNNscore>
0.4165769219

> <CNNaffinity>
7.4985513687

> <CNN_VS>
3.1237235069

> <CNNaffinity_variance>
0.3459158540

$$$$
[H]c1nc(OC2([H])C([H])([H])C([H])([H])OC([H])([H])C2([H])[H])c(N2C([H])([H])C([H])([H])OC([H])([H])C2([H])[H])c([H])c1-c1c(C([H])([H])[H])nc([H])c(N([H])C(=O)c2c([H])c([H])c(OC([H])([H])[H])c([H])c2[H])c1[H]


 38 42  0  0  0  0  0  0  0  0999 V2000
   11.1165   24.6003    1.5507 C   0  0  0  0  0  0  0  0  0  0  0  0
   11.6921   25.5027    2.3862 C   0  0  0  0  0  0  0  0  0  0  0  0
   12.7755   26.2443    1.9958 N   0  0  0  0  0  0  0  0  0  0  0  0
   13.3260   26.1173    0.7660 C   0  0  0  0  0  0  0  0  0  0  0  0
   14.5092   26.9703    0.4618 C   0  0  0  0  0  0  0  0  0  0  0  0
   12.7886   25.2218   -0.1217 C   0  0  0  0  0  0  0  0  0  0  0  0
   11.7060   24.4834    0.2733 C   0  0  0  0  0  0  0  0  0  0  0  0
   13.3529   25.0758   -1.4490 C   0  0  0  0  0  0  0  0  0  0  0  0
   13.4047   23.8502   -2.0882 C   0  0  0  0  0  0  0  0  0  0  0  0
   13.9172   23.7073   -3.3184 N   0  0  0  0  0  0  0  0  0  0  0  0
   14.4167   24.7514   -4.0142 C   0  0  0  0  0  0  0  0  0  0  0  0
   14.3988   26.0048   -3.4415 C   0  0  0  0  0  0  0  0  0  0  0  0
   13.8720   26.1558   -2.1754 C   0  0  0  0  0  0  0  0  0  0  0  0
   14.9047   27.1260   -4.1167 N   0  0  0  0  0  0  0  0  0  0  0  0
   16.1175   27.0968   -4.8812 C   0  0  0  0  0  0  0  0  0  0  0  0
   16.1551   28.1222   -5.9751 C   0  0  0  0  0  0  0  0  0  0  0  0
   15.7080   29.3658   -5.6174 O   0  0  0  0  0  0  0  0  0  0  0  0
   15.1737   29.4746   -4.3599 C   0  0  0  0  0  0  0  0  0  0  0  0
   14.1748   28.3775   -4.0471 C   0  0  0  0  0  0  0  0  0  0  0  0
   14.9437   24.5953   -5.2822 O   0  0  0  0  0  0  0  0  0  0  0  0
   15.6447   23.4644   -5.7124 C   0  0  0  0  0  0  0  0  0  0  0  0
   16.4993   22.9599   -4.5892 C   0  0  0  0  0  0  0  0  0  0  0  0
   17.8962   22.6782   -5.0851 C   0  0  0  0  0  0  0  0  0  0  0  0
   17.8229   21.9911   -6.2801 O   0  0  0  0  0  0  0  0  0  0  0  0
   17.4273   22.7737   -7.3423 C   0  0  0  0  0  0  0  0  0  0  0  0
   16.4529   23.8388   -6.9378 C   0  0  0  0  0  0  0  0  0  0  0  0
    9.7413   22.5549    1.3388 C   0  0  0  0  0  0  0  0  0  0  0  0
   10.5308   22.0183    0.5387 O   0  0  0  0  0  0  0  0  0  0  0  0
    9.9889   23.8231    1.8703 N   0  0  0  0  0  0  0  0  0  0  0  0
    9.3079   24.2710    2.5669 H   0  0  0  0  0  0  0  0  0  0  0  0
    6.2580   20.3808    2.5747 C   0  0  0  0  0  0  0  0  0  0  0  0
    6.4990   20.6156    1.2267 C   0  0  0  0  0  0  0  0  0  0  0  0
    7.6336   21.3249    0.8035 C   0  0  0  0  0  0  0  0  0  0  0  0
    8.5261   21.8002    1.7095 C   0  0  0  0  0  0  0  0  0  0  0  0
    8.2653   21.5553    3.0416 C   0  0  0  0  0  0  0  0  0  0  0  0
    7.1613   20.8643    3.4635 C   0  0  0  0  0  0  0  0  0  0  0  0
    4.3288   18.8749    2.2448 C   0  0  0  0  0  0  0  0  0  0  0  0
    5.1525   19.6869    3.0117 O   0  0  0  0  0  0  0  0  0  0  0  0
 37 38  1  0  0  0
 38 31  1  0  0  0
 31 32  2  0  0  0
 32 33  1  0  0  0
 33 34  2  0  0  0
 34 35  1  0  0  0
 35 36  2  0  0  0
 34 27  1  0  0  0
 27 28  2  0  0  0
 27 29  1  0  0  0
 29  1  1  0  0  0
  1  2  2  0  0  0
  2  3  1  0  0  0
  3  4  2  0  0  0
  4  5  1  0  0  0
  4  6  1  0  0  0
  6  7  2  0  0  0
  6  8  1  0  0  0
  8  9  2  0  0  0
  9 10  1  0  0  0
 10 11  2  0  0  0
 11 20  1  0  0  0
 20 21  1  0  0  0
 21 22  1  0  0  0
 22 23  1  0  0  0
 23 24  1  0  0  0
 24 25  1  0  0  0
 25 26  1  0  0  0
 11 12  1  0  0  0
 12 13  2  0  0  0
 12 14  1  0  0  0
 14 15  1  0  0  0
 15 16  1  0  0  0
 16 17  1  0  0  0
 17 18  1  0  0  0
 18 19  1  0  0  0
 36 31  1  0  0  0
  7  1  1  0  0  0
 13  8  1  0  0  0
 19 14  1  0  0  0
 26 21  1  0  0  0
 29 30  1  0  0  0
M  END
> <minimizedAffinity>
28.02159

> <CNNscore>
0.3691939116

> <CNNaffinity>
6.8172988892

> <CNN_VS>
2.5169053078

> <CNNaffinity_variance>
0.7653672099

$$$$
[H]c1nc(OC2([H])C([H])([H])C([H])([H])OC([H])([H])C2([H])[H])c(N2C([H])([H])C([H])([H])OC([H])([H])C2([H])[H])c([H])c1-c1c(C([H])([H])[H])nc([H])c(N([H])C(=O)c2c([H])c([H])c(OC([H])([H])[H])c([H])c2[H])c1[H]


 38 42  0  0  0  0  0  0  0  0999 V2000
   12.0069   22.2037    1.9315 C   0  0  0  0  0  0  0  0  0  0  0  0
   12.3855   20.9619    2.3294 C   0  0  0  0  0  0  0  0  0  0  0  0
   13.2953   20.2310    1.6123 N   0  0  0  0  0  0  0  0  0  0  0  0
   13.8603   20.7041    0.4772 C   0  0  0  0  0  0  0  0  0  0  0  0
   14.8277   19.8115   -0.2212 C   0  0  0  0  0  0  0  0  0  0  0  0
   13.5173   21.9517    0.0250 C   0  0  0  0  0  0  0  0  0  0  0  0
   12.6080   22.6780    0.7453 C   0  0  0  0  0  0  0  0  0  0  0  0
   14.1175   22.4855   -1.1817 C   0  0  0  0  0  0  0  0  0  0  0  0
   14.0562   21.8095   -2.3869 C   0  0  0  0  0  0  0  0  0  0  0  0
   14.6013   22.2993   -3.5091 N   0  0  0  0  0  0  0  0  0  0  0  0
   15.2461   23.4855   -3.5362 C   0  0  0  0  0  0  0  0  0  0  0  0
   15.3471   24.2169   -2.3724 C   0  0  0  0  0  0  0  0  0  0  0  0
   14.7873   23.7160   -1.2153 C   0  0  0  0  0  0  0  0  0  0  0  0
   16.0064   25.4551   -2.3404 N   0  0  0  0  0  0  0  0  0  0  0  0
   16.6296   26.0390   -3.4921 C   0  0  0  0  0  0  0  0  0  0  0  0
   16.7090   27.5356   -3.4301 C   0  0  0  0  0  0  0  0  0  0  0  0
   17.1005   28.0440   -2.2207 O   0  0  0  0  0  0  0  0  0  0  0  0
   17.2431   27.1362   -1.2038 C   0  0  0  0  0  0  0  0  0  0  0  0
   16.0649   26.1886   -1.0903 C   0  0  0  0  0  0  0  0  0  0  0  0
   15.8056   23.9832   -4.6977 O   0  0  0  0  0  0  0  0  0  0  0  0
   15.0858   24.6309   -5.7066 C   0  0  0  0  0  0  0  0  0  0  0  0
   15.9914   24.8768   -6.8752 C   0  0  0  0  0  0  0  0  0  0  0  0
   15.8455   26.2998   -7.3555 C   0  0  0  0  0  0  0  0  0  0  0  0
   14.5045   26.6204   -7.4216 O   0  0  0  0  0  0  0  0  0  0  0  0
   13.9202   26.8037   -6.1879 C   0  0  0  0  0  0  0  0  0  0  0  0
   14.5076   25.9101   -5.1371 C   0  0  0  0  0  0  0  0  0  0  0  0
   10.0734   23.7445    2.0138 C   0  0  0  0  0  0  0  0  0  0  0  0
    9.8875   23.6948    0.7832 O   0  0  0  0  0  0  0  0  0  0  0  0
   11.1003   23.0228    2.6275 N   0  0  0  0  0  0  0  0  0  0  0  0
   11.2444   23.0643    3.6893 H   0  0  0  0  0  0  0  0  0  0  0  0
    7.3531   26.2542    4.1794 C   0  0  0  0  0  0  0  0  0  0  0  0
    8.3935   25.6112    4.8387 C   0  0  0  0  0  0  0  0  0  0  0  0
    9.2935   24.7863    4.1466 C   0  0  0  0  0  0  0  0  0  0  0  0
    9.1652   24.5979    2.8081 C   0  0  0  0  0  0  0  0  0  0  0  0
    8.1248   25.2459    2.1758 C   0  0  0  0  0  0  0  0  0  0  0  0
    7.2422   26.0525    2.8427 C   0  0  0  0  0  0  0  0  0  0  0  0
    5.7450   28.1249    4.2918 C   0  0  0  0  0  0  0  0  0  0  0  0
    6.4598   27.0683    4.8381 O   0  0  0  0  0  0  0  0  0  0  0  0
 37 38  1  0  0  0
 38 31  1  0  0  0
 31 32  2  0  0  0
 32 33  1  0  0  0
 33 34  2  0  0  0
 34 35  1  0  0  0
 35 36  2  0  0  0
 34 27  1  0  0  0
 27 28  2  0  0  0
 27 29  1  0  0  0
 29  1  1  0  0  0
  1  2  2  0  0  0
  2  3  1  0  0  0
  3  4  2  0  0  0
  4  5  1  0  0  0
  4  6  1  0  0  0
  6  7  2  0  0  0
  6  8  1  0  0  0
  8  9  2  0  0  0
  9 10  1  0  0  0
 10 11  2  0  0  0
 11 20  1  0  0  0
 20 21  1  0  0  0
 21 22  1  0  0  0
 22 23  1  0  0  0
 23 24  1  0  0  0
 24 25  1  0  0  0
 25 26  1  0  0  0
 11 12  1  0  0  0
 12 13  2  0  0  0
 12 14  1  0  0  0
 14 15  1  0  0  0
 15 16  1  0  0  0
 16 17  1  0  0  0
 17 18  1  0  0  0
 18 19  1  0  0  0
 36 31  1  0  0  0
  7  1  1  0  0  0
 13  8  1  0  0  0
 19 14  1  0  0  0
 26 21  1  0  0  0
 29 30  1  0  0  0
M  END
> <minimizedAffinity>
-0.44891

> <CNNscore>
0.3642569780

> <CNNaffinity>
7.2288985252

> <CNN_VS>
2.6331768036

> <CNNaffinity_variance>
0.2848681808

$$$$
[H]c1nc(OC2([H])C([H])([H])C([H])([H])OC([H])([H])C2([H])[H])c(N2C([H])([H])C([H])([H])OC([H])([H])C2([H])[H])c([H])c1-c1c(C([H])([H])[H])nc([H])c(N([H])C(=O)c2c([H])c([H])c(OC([H])([H])[H])c([H])c2[H])c1[H]


 38 42  0  0  0  0  0  0  0  0999 V2000
   10.3860   24.0708    1.7092 C   0  0  0  0  0  0  0  0  0  0  0  0
   10.6220   25.2963    2.2442 C   0  0  0  0  0  0  0  0  0  0  0  0
   11.6548   26.0796    1.8014 N   0  0  0  0  0  0  0  0  0  0  0  0
   12.4890   25.6761    0.8152 C   0  0  0  0  0  0  0  0  0  0  0  0
   13.5826   26.6112    0.4278 C   0  0  0  0  0  0  0  0  0  0  0  0
   12.3012   24.4480    0.2363 C   0  0  0  0  0  0  0  0  0  0  0  0
   11.2676   23.6694    0.6822 C   0  0  0  0  0  0  0  0  0  0  0  0
   13.1740   23.9981   -0.8300 C   0  0  0  0  0  0  0  0  0  0  0  0
   13.7132   22.7244   -0.8422 C   0  0  0  0  0  0  0  0  0  0  0  0
   14.5145   22.2973   -1.8281 N   0  0  0  0  0  0  0  0  0  0  0  0
   14.8478   23.0834   -2.8743 C   0  0  0  0  0  0  0  0  0  0  0  0
   14.3478   24.3665   -2.9309 C   0  0  0  0  0  0  0  0  0  0  0  0
   13.5226   24.8096   -1.9180 C   0  0  0  0  0  0  0  0  0  0  0  0
   14.6608   25.2284   -3.9930 N   0  0  0  0  0  0  0  0  0  0  0  0
   13.9287   26.4306   -4.2661 C   0  0  0  0  0  0  0  0  0  0  0  0
   14.7405   27.4720   -4.9776 C   0  0  0  0  0  0  0  0  0  0  0  0
   15.5130   27.0005   -6.0049 O   0  0  0  0  0  0  0  0  0  0  0  0
   15.5390   25.6392   -6.1628 C   0  0  0  0  0  0  0  0  0  0  0  0
   15.7758   24.8994   -4.8605 C   0  0  0  0  0  0  0  0  0  0  0  0
   15.6751   22.6354   -3.8866 O   0  0  0  0  0  0  0  0  0  0  0  0
   15.4010   21.5315   -4.7001 C   0  0  0  0  0  0  0  0  0  0  0  0
   14.5936   21.9801   -5.8804 C   0  0  0  0  0  0  0  0  0  0  0  0
   13.4191   21.0559   -6.0883 C   0  0  0  0  0  0  0  0  0  0  0  0
   13.8473   19.7480   -5.9818 O   0  0  0  0  0  0  0  0  0  0  0  0
   14.1303   19.3643   -4.6895 C   0  0  0  0  0  0  0  0  0  0  0  0
   14.6860   20.4877   -3.8669 C   0  0  0  0  0  0  0  0  0  0  0  0
    9.4596   22.1996    3.0358 C   0  0  0  0  0  0  0  0  0  0  0  0
   10.5391   21.9804    3.6172 O   0  0  0  0  0  0  0  0  0  0  0  0
    9.3322   23.2223    2.0925 N   0  0  0  0  0  0  0  0  0  0  0  0
    8.3951   23.4095    1.6059 H   0  0  0  0  0  0  0  0  0  0  0  0
    6.0967   19.6733    3.8707 C   0  0  0  0  0  0  0  0  0  0  0  0
    6.8412   20.2194    4.9089 C   0  0  0  0  0  0  0  0  0  0  0  0
    7.9446   21.0484    4.6550 C   0  0  0  0  0  0  0  0  0  0  0  0
    8.3106   21.3361    3.3795 C   0  0  0  0  0  0  0  0  0  0  0  0
    7.5571   20.7822    2.3658 C   0  0  0  0  0  0  0  0  0  0  0  0
    6.4791   19.9726    2.6042 C   0  0  0  0  0  0  0  0  0  0  0  0
    5.0415   17.5322    4.5034 C   0  0  0  0  0  0  0  0  0  0  0  0
    5.0105   18.8587    4.0969 O   0  0  0  0  0  0  0  0  0  0  0  0
 37 38  1  0  0  0
 38 31  1  0  0  0
 31 32  2  0  0  0
 32 33  1  0  0  0
 33 34  2  0  0  0
 34 35  1  0  0  0
 35 36  2  0  0  0
 34 27  1  0  0  0
 27 28  2  0  0  0
 27 29  1  0  0  0
 29  1  1  0  0  0
  1  2  2  0  0  0
  2  3  1  0  0  0
  3  4  2  0  0  0
  4  5  1  0  0  0
  4  6  1  0  0  0
  6  7  2  0  0  0
  6  8  1  0  0  0
  8  9  2  0  0  0
  9 10  1  0  0  0
 10 11  2  0  0  0
 11 20  1  0  0  0
 20 21  1  0  0  0
 21 22  1  0  0  0
 22 23  1  0  0  0
 23 24  1  0  0  0
 24 25  1  0  0  0
 25 26  1  0  0  0
 11 12  1  0  0  0
 12 13  2  0  0  0
 12 14  1  0  0  0
 14 15  1  0  0  0
 15 16  1  0  0  0
 16 17  1  0  0  0
 17 18  1  0  0  0
 18 19  1  0  0  0
 36 31  1  0  0  0
  7  1  1  0  0  0
 13  8  1  0  0  0
 19 14  1  0  0  0
 26 21  1  0  0  0
 29 30  1  0  0  0
M  END
> <minimizedAffinity>
12.07694

> <CNNscore>
0.3554610014

> <CNNaffinity>
7.1914978027

> <CNN_VS>
2.5562970638

> <CNNaffinity_variance>
1.1642768383

$$$$
[H]c1nc(OC2([H])C([H])([H])C([H])([H])OC([H])([H])C2([H])[H])c(N2C([H])([H])C([H])([H])OC([H])([H])C2([H])[H])c([H])c1-c1c(C([H])([H])[H])nc([H])c(N([H])C(=O)c2c([H])c([H])c(OC([H])([H])[H])c([H])c2[H])c1[H]


 38 42  0  0  0  0  0  0  0  0999 V2000
   13.4843   24.2539    0.2787 C   0  0  0  0  0  0  0  0  0  0  0  0
   13.2129   25.5777    0.4111 C   0  0  0  0  0  0  0  0  0  0  0  0
   11.9442   26.0214    0.6753 N   0  0  0  0  0  0  0  0  0  0  0  0
   10.9017   25.1702    0.8167 C   0  0  0  0  0  0  0  0  0  0  0  0
    9.5670   25.7732    1.0912 C   0  0  0  0  0  0  0  0  0  0  0  0
   11.1135   23.8217    0.6936 C   0  0  0  0  0  0  0  0  0  0  0  0
   12.3830   23.3835    0.4297 C   0  0  0  0  0  0  0  0  0  0  0  0
   10.0154   22.8888    0.8524 C   0  0  0  0  0  0  0  0  0  0  0  0
    9.2361   22.4911   -0.2189 C   0  0  0  0  0  0  0  0  0  0  0  0
    8.2240   21.6230   -0.0827 N   0  0  0  0  0  0  0  0  0  0  0  0
    7.8992   21.0798    1.1103 C   0  0  0  0  0  0  0  0  0  0  0  0
    8.6320   21.4288    2.2241 C   0  0  0  0  0  0  0  0  0  0  0  0
    9.6745   22.3220    2.0878 C   0  0  0  0  0  0  0  0  0  0  0  0
    8.3396   20.8971    3.4894 N   0  0  0  0  0  0  0  0  0  0  0  0
    9.3435   20.6389    4.4799 C   0  0  0  0  0  0  0  0  0  0  0  0
    8.8177   20.6818    5.8840 C   0  0  0  0  0  0  0  0  0  0  0  0
    7.6198   20.0463    6.0724 O   0  0  0  0  0  0  0  0  0  0  0  0
    7.0062   19.5712    4.9426 C   0  0  0  0  0  0  0  0  0  0  0  0
    6.9611   20.5926    3.8228 C   0  0  0  0  0  0  0  0  0  0  0  0
    6.8538   20.1856    1.2421 O   0  0  0  0  0  0  0  0  0  0  0  0
    5.8340   20.0185    0.3000 C   0  0  0  0  0  0  0  0  0  0  0  0
    5.1410   18.7139    0.5531 C   0  0  0  0  0  0  0  0  0  0  0  0
    4.9779   17.9526   -0.7394 C   0  0  0  0  0  0  0  0  0  0  0  0
    4.5258   18.8139   -1.7187 O   0  0  0  0  0  0  0  0  0  0  0  0
    5.4873   19.6924   -2.1667 C   0  0  0  0  0  0  0  0  0  0  0  0
    6.4432   20.0965   -1.0848 C   0  0  0  0  0  0  0  0  0  0  0  0
   15.5406   23.0861    1.0048 C   0  0  0  0  0  0  0  0  0  0  0  0
   15.1324   22.9379    2.1722 O   0  0  0  0  0  0  0  0  0  0  0  0
   14.7628   23.7221    0.0339 N   0  0  0  0  0  0  0  0  0  0  0  0
   15.1196   23.8345   -0.9711 H   0  0  0  0  0  0  0  0  0  0  0  0
   19.4904   21.7250    0.0380 C   0  0  0  0  0  0  0  0  0  0  0  0
   18.4891   20.8137    0.3498 C   0  0  0  0  0  0  0  0  0  0  0  0
   17.1907   21.2405    0.6685 C   0  0  0  0  0  0  0  0  0  0  0  0
   16.8838   22.5630    0.6789 C   0  0  0  0  0  0  0  0  0  0  0  0
   17.8941   23.4485    0.3668 C   0  0  0  0  0  0  0  0  0  0  0  0
   19.1633   23.0413    0.0545 C   0  0  0  0  0  0  0  0  0  0  0  0
   21.1391   20.4586   -1.2948 C   0  0  0  0  0  0  0  0  0  0  0  0
   20.7699   21.3285   -0.2784 O   0  0  0  0  0  0  0  0  0  0  0  0
 37 38  1  0  0  0
 38 31  1  0  0  0
 31 32  2  0  0  0
 32 33  1  0  0  0
 33 34  2  0  0  0
 34 35  1  0  0  0
 35 36  2  0  0  0
 34 27  1  0  0  0
 27 28  2  0  0  0
 27 29  1  0  0  0
 29  1  1  0  0  0
  1  2  2  0  0  0
  2  3  1  0  0  0
  3  4  2  0  0  0
  4  5  1  0  0  0
  4  6  1  0  0  0
  6  7  2  0  0  0
  6  8  1  0  0  0
  8  9  2  0  0  0
  9 10  1  0  0  0
 10 11  2  0  0  0
 11 20  1  0  0  0
 20 21  1  0  0  0
 21 22  1  0  0  0
 22 23  1  0  0  0
 23 24  1  0  0  0
 24 25  1  0  0  0
 25 26  1  0  0  0
 11 12  1  0  0  0
 12 13  2  0  0  0
 12 14  1  0  0  0
 14 15  1  0  0  0
 15 16  1  0  0  0
 16 17  1  0  0  0
 17 18  1  0  0  0
 18 19  1  0  0  0
 36 31  1  0  0  0
  7  1  1  0  0  0
 13  8  1  0  0  0
 19 14  1  0  0  0
 26 21  1  0  0  0
 29 30  1  0  0  0
M  END
> <minimizedAffinity>
26.38198

> <CNNscore>
0.2973491848

> <CNNaffinity>
6.5395522118

> <CNN_VS>
1.9445304871

> <CNNaffinity_variance>
0.2497529685

$$$$
[H]c1nc(OC2([H])C([H])([H])C([H])([H])OC([H])([H])C2([H])[H])c(N2C([H])([H])C([H])([H])OC([H])([H])C2([H])[H])c([H])c1-c1c(C([H])([H])[H])nc([H])c(N([H])C(=O)c2c([H])c([H])c(OC([H])([H])[H])c([H])c2[H])c1[H]


 38 42  0  0  0  0  0  0  0  0999 V2000
   12.5994   24.9492   -1.6284 C   0  0  0  0  0  0  0  0  0  0  0  0
   12.8968   25.7324   -0.5598 C   0  0  0  0  0  0  0  0  0  0  0  0
   12.2479   25.5805    0.6368 N   0  0  0  0  0  0  0  0  0  0  0  0
   11.2825   24.6491    0.8159 C   0  0  0  0  0  0  0  0  0  0  0  0
   10.6411   24.5876    2.1595 C   0  0  0  0  0  0  0  0  0  0  0  0
   10.9383   23.8288   -0.2268 C   0  0  0  0  0  0  0  0  0  0  0  0
   11.5899   23.9846   -1.4202 C   0  0  0  0  0  0  0  0  0  0  0  0
    9.9157   22.8154   -0.0566 C   0  0  0  0  0  0  0  0  0  0  0  0
    9.4929   22.0228   -1.1082 C   0  0  0  0  0  0  0  0  0  0  0  0
    8.5539   21.0782   -0.9582 N   0  0  0  0  0  0  0  0  0  0  0  0
    7.9593   20.8388    0.2304 C   0  0  0  0  0  0  0  0  0  0  0  0
    8.3297   21.5896    1.3251 C   0  0  0  0  0  0  0  0  0  0  0  0
    9.2959   22.5627    1.1746 C   0  0  0  0  0  0  0  0  0  0  0  0
    7.7455   21.3860    2.5845 N   0  0  0  0  0  0  0  0  0  0  0  0
    8.1595   20.3451    3.4794 C   0  0  0  0  0  0  0  0  0  0  0  0
    7.8933   20.6605    4.9215 C   0  0  0  0  0  0  0  0  0  0  0  0
    6.6651   21.2092    5.1760 O   0  0  0  0  0  0  0  0  0  0  0  0
    5.9015   21.5109    4.0785 C   0  0  0  0  0  0  0  0  0  0  0  0
    6.6734   22.2643    3.0127 C   0  0  0  0  0  0  0  0  0  0  0  0
    6.9916   19.8630    0.3764 O   0  0  0  0  0  0  0  0  0  0  0  0
    5.9005   19.6979   -0.4826 C   0  0  0  0  0  0  0  0  0  0  0  0
    6.3436   18.9433   -1.6994 C   0  0  0  0  0  0  0  0  0  0  0  0
    5.8374   19.6249   -2.9467 C   0  0  0  0  0  0  0  0  0  0  0  0
    4.5112   19.9650   -2.7708 O   0  0  0  0  0  0  0  0  0  0  0  0
    4.3238   21.0286   -1.9159 C   0  0  0  0  0  0  0  0  0  0  0  0
    5.3416   21.0660   -0.8160 C   0  0  0  0  0  0  0  0  0  0  0  0
   13.6372   26.2272   -3.4748 C   0  0  0  0  0  0  0  0  0  0  0  0
   13.4553   27.3251   -2.9154 O   0  0  0  0  0  0  0  0  0  0  0  0
   13.2391   25.0282   -2.8782 N   0  0  0  0  0  0  0  0  0  0  0  0
   13.4106   24.0877   -3.3638 H   0  0  0  0  0  0  0  0  0  0  0  0
   15.6763   26.1881   -7.2469 C   0  0  0  0  0  0  0  0  0  0  0  0
   14.3663   26.6431   -7.1601 C   0  0  0  0  0  0  0  0  0  0  0  0
   13.6832   26.6634   -5.9344 C   0  0  0  0  0  0  0  0  0  0  0  0
   14.2928   26.2354   -4.7992 C   0  0  0  0  0  0  0  0  0  0  0  0
   15.5926   25.7879   -4.9104 C   0  0  0  0  0  0  0  0  0  0  0  0
   16.2668   25.7646   -6.1017 C   0  0  0  0  0  0  0  0  0  0  0  0
   16.9237   25.0443   -9.0452 C   0  0  0  0  0  0  0  0  0  0  0  0
   16.3653   26.1604   -8.4382 O   0  0  0  0  0  0  0  0  0  0  0  0
 37 38  1  0  0  0
 38 31  1  0  0  0
 31 32  2  0  0  0
 32 33  1  0  0  0
 33 34  2  0  0  0
 34 35  1  0  0  0
 35 36  2  0  0  0
 34 27  1  0  0  0
 27 28  2  0  0  0
 27 29  1  0  0  0
 29  1  1  0  0  0
  1  2  2  0  0  0
  2  3  1  0  0  0
  3  4  2  0  0  0
  4  5  1  0  0  0
  4  6  1  0  0  0
  6  7  2  0  0  0
  6  8  1  0  0  0
  8  9  2  0  0  0
  9 10  1  0  0  0
 10 11  2  0  0  0
 11 20  1  0  0  0
 20 21  1  0  0  0
 21 22  1  0  0  0
 22 23  1  0  0  0
 23 24  1  0  0  0
 24 25  1  0  0  0
 25 26  1  0  0  0
 11 12  1  0  0  0
 12 13  2  0  0  0
 12 14  1  0  0  0
 14 15  1  0  0  0
 15 16  1  0  0  0
 16 17  1  0  0  0
 17 18  1  0  0  0
 18 19  1  0  0  0
 36 31  1  0  0  0
  7  1  1  0  0  0
 13  8  1  0  0  0
 19 14  1  0  0  0
 26 21  1  0  0  0
 29 30  1  0  0  0
M  END
> <minimizedAffinity>
-1.57096

> <CNNscore>
0.2682859898

> <CNNaffinity>
6.6247901917

> <CNN_VS>
1.7773383856

> <CNNaffinity_variance>
0.1764809638

$$$$
[H]OC(c1nc2c(OC([H])([H])[H])c([H])c([H])c(C(=O)N([H])c3c(Cl)c([H])nc([H])c3Cl)c2c([H])c1[H])(C([H])([H])[H])C([H])([H])[H]


 29 31  0  0  0  0  0  0  0  0999 V2000
   17.0252   25.9886   -2.0181 C   0  0  0  0  0  0  0  0  0  0  0  0
   16.9769   25.4905   -0.7415 C   0  0  0  0  0  0  0  0  0  0  0  0
   15.8962   24.8221   -0.2476 C   0  0  0  0  0  0  0  0  0  0  0  0
   14.7365   24.6041   -1.0477 C   0  0  0  0  0  0  0  0  0  0  0  0
   14.7916   25.1106   -2.3190 C   0  0  0  0  0  0  0  0  0  0  0  0
   13.6795   24.9642   -3.1394 C   0  0  0  0  0  0  0  0  0  0  0  0
   13.7326   25.4985   -4.4190 C   0  0  0  0  0  0  0  0  0  0  0  0
   14.8667   26.1533   -4.8327 C   0  0  0  0  0  0  0  0  0  0  0  0
   15.9292   26.2942   -4.0402 N   0  0  0  0  0  0  0  0  0  0  0  0
   15.9230   25.7928   -2.7980 C   0  0  0  0  0  0  0  0  0  0  0  0
   14.9214   26.7502   -6.2151 C   0  0  0  0  0  0  0  0  0  0  0  0
   15.8672   27.9107   -6.2447 C   0  0  0  0  0  0  0  0  0  0  0  0
   15.5302   25.6441   -7.0867 C   0  0  0  0  0  0  0  0  0  0  0  0
   13.6677   27.1294   -6.6410 O   0  0  0  0  0  0  0  0  0  0  0  0
   13.1301   26.3529   -6.9586 H   0  0  0  0  0  0  0  0  0  0  0  0
   13.7055   23.7869   -0.4656 C   0  0  0  0  0  0  0  0  0  0  0  0
   13.1782   24.2992    0.6305 O   0  0  0  0  0  0  0  0  0  0  0  0
   13.1418   22.5632   -0.7958 N   0  0  0  0  0  0  0  0  0  0  0  0
   13.4017   21.9728   -1.5860 H   0  0  0  0  0  0  0  0  0  0  0  0
   12.1085   21.9960    0.0464 C   0  0  0  0  0  0  0  0  0  0  0  0
   12.4622   21.0602    0.9706 C   0  0  0  0  0  0  0  0  0  0  0  0
   14.1481   20.5504    1.0516 Cl  0  0  0  0  0  0  0  0  0  0  0  0
   11.5541   20.4861    1.8400 C   0  0  0  0  0  0  0  0  0  0  0  0
   10.2750   20.9075    1.7201 N   0  0  0  0  0  0  0  0  0  0  0  0
    9.8637   21.8270    0.8258 C   0  0  0  0  0  0  0  0  0  0  0  0
   10.8147   22.3790   -0.0272 C   0  0  0  0  0  0  0  0  0  0  0  0
   10.2781   23.5623   -1.1912 Cl  0  0  0  0  0  0  0  0  0  0  0  0
   18.1159   27.8236   -3.2056 C   0  0  0  0  0  0  0  0  0  0  0  0
   18.1910   26.6426   -2.4098 O   0  0  0  0  0  0  0  0  0  0  0  0
 28 29  1  0  0  0
 29  1  1  0  0  0
  1  2  2  0  0  0
  2  3  1  0  0  0
  3  4  2  0  0  0
  4 16  1  0  0  0
 16 17  2  0  0  0
 16 18  1  0  0  0
 18 20  1  0  0  0
 20 21  2  0  0  0
 21 22  1  0  0  0
 21 23  1  0  0  0
 23 24  2  0  0  0
 24 25  1  0  0  0
 25 26  2  0  0  0
 26 27  1  0  0  0
  4  5  1  0  0  0
  5  6  2  0  0  0
  6  7  1  0  0  0
  7  8  2  0  0  0
  8  9  1  0  0  0
  9 10  2  0  0  0
  8 11  1  0  0  0
 11 12  1  0  0  0
 11 13  1  0  0  0
 11 14  1  0  0  0
 10  1  1  0  0  0
 26 20  1  0  0  0
 10  5  1  0  0  0
 18 19  1  0  0  0
 14 15  1  0  0  0
M  END
> <minimizedAffinity>
-5.52647

> <CNNscore>
0.4726805091

> <CNNaffinity>
7.7202239037

> <CNN_VS>
3.6491992474

> <CNNaffinity_variance>
0.6307135820

$$$$
[H]OC(c1nc2c(OC([H])([H])[H])c([H])c([H])c(C(=O)N([H])c3c(Cl)c([H])nc([H])c3Cl)c2c([H])c1[H])(C([H])([H])[H])C([H])([H])[H]


 29 31  0  0  0  0  0  0  0  0999 V2000
   11.9949   24.6402    0.1340 C   0  0  0  0  0  0  0  0  0  0  0  0
   11.6935   25.7240   -0.6500 C   0  0  0  0  0  0  0  0  0  0  0  0
   12.3711   26.0213   -1.7951 C   0  0  0  0  0  0  0  0  0  0  0  0
   13.4510   25.2059   -2.2443 C   0  0  0  0  0  0  0  0  0  0  0  0
   13.7486   24.1294   -1.4517 C   0  0  0  0  0  0  0  0  0  0  0  0
   14.8143   23.3144   -1.8137 C   0  0  0  0  0  0  0  0  0  0  0  0
   15.1254   22.2379   -0.9951 C   0  0  0  0  0  0  0  0  0  0  0  0
   14.3838   22.0131    0.1387 C   0  0  0  0  0  0  0  0  0  0  0  0
   13.3649   22.8004    0.4833 N   0  0  0  0  0  0  0  0  0  0  0  0
   13.0278   23.8499   -0.2781 C   0  0  0  0  0  0  0  0  0  0  0  0
   14.7297   20.8557    1.0392 C   0  0  0  0  0  0  0  0  0  0  0  0
   15.0560   19.6416    0.2257 C   0  0  0  0  0  0  0  0  0  0  0  0
   16.0204   21.2912    1.7451 C   0  0  0  0  0  0  0  0  0  0  0  0
   13.7065   20.5924    1.9227 O   0  0  0  0  0  0  0  0  0  0  0  0
   13.6992   21.2314    2.6872 H   0  0  0  0  0  0  0  0  0  0  0  0
   14.0158   25.5450   -3.5233 C   0  0  0  0  0  0  0  0  0  0  0  0
   13.2141   26.2684   -4.2822 O   0  0  0  0  0  0  0  0  0  0  0  0
   15.2233   25.2709   -4.1487 N   0  0  0  0  0  0  0  0  0  0  0  0
   15.9879   24.7143   -3.7667 H   0  0  0  0  0  0  0  0  0  0  0  0
   15.4658   25.7594   -5.4909 C   0  0  0  0  0  0  0  0  0  0  0  0
   15.9636   27.0175   -5.6461 C   0  0  0  0  0  0  0  0  0  0  0  0
   16.2316   28.0015   -4.2079 Cl  0  0  0  0  0  0  0  0  0  0  0  0
   16.2576   27.5589   -6.8833 C   0  0  0  0  0  0  0  0  0  0  0  0
   16.0179   26.7613   -7.9484 N   0  0  0  0  0  0  0  0  0  0  0  0
   15.5252   25.5108   -7.8594 C   0  0  0  0  0  0  0  0  0  0  0  0
   15.2467   25.0076   -6.5922 C   0  0  0  0  0  0  0  0  0  0  0  0
   14.5994   23.3916   -6.4799 Cl  0  0  0  0  0  0  0  0  0  0  0  0
   10.7248   23.1340    1.5780 C   0  0  0  0  0  0  0  0  0  0  0  0
   11.2212   24.4359    1.2741 O   0  0  0  0  0  0  0  0  0  0  0  0
 28 29  1  0  0  0
 29  1  1  0  0  0
  1  2  2  0  0  0
  2  3  1  0  0  0
  3  4  2  0  0  0
  4 16  1  0  0  0
 16 17  2  0  0  0
 16 18  1  0  0  0
 18 20  1  0  0  0
 20 21  2  0  0  0
 21 22  1  0  0  0
 21 23  1  0  0  0
 23 24  2  0  0  0
 24 25  1  0  0  0
 25 26  2  0  0  0
 26 27  1  0  0  0
  4  5  1  0  0  0
  5  6  2  0  0  0
  6  7  1  0  0  0
  7  8  2  0  0  0
  8  9  1  0  0  0
  9 10  2  0  0  0
  8 11  1  0  0  0
 11 12  1  0  0  0
 11 13  1  0  0  0
 11 14  1  0  0  0
 10  1  1  0  0  0
 26 20  1  0  0  0
 10  5  1  0  0  0
 18 19  1  0  0  0
 14 15  1  0  0  0
M  END
> <minimizedAffinity>
0.16596

> <CNNscore>
0.4277634621

> <CNNaffinity>
7.0926771164

> <CNN_VS>
3.0339882374

> <CNNaffinity_variance>
0.4478829503

$$$$
[H]OC(c1nc2c(OC([H])([H])[H])c([H])c([H])c(C(=O)N([H])c3c(Cl)c([H])nc([H])c3Cl)c2c([H])c1[H])(C([H])([H])[H])C([H])([H])[H]


 29 31  0  0  0  0  0  0  0  0999 V2000
   17.0791   26.0827   -2.0975 C   0  0  0  0  0  0  0  0  0  0  0  0
   16.9968   25.5388   -0.8416 C   0  0  0  0  0  0  0  0  0  0  0  0
   15.9445   24.7743   -0.4329 C   0  0  0  0  0  0  0  0  0  0  0  0
   14.8525   24.4974   -1.3067 C   0  0  0  0  0  0  0  0  0  0  0  0
   14.9406   25.0500   -2.5567 C   0  0  0  0  0  0  0  0  0  0  0  0
   13.8917   24.8487   -3.4457 C   0  0  0  0  0  0  0  0  0  0  0  0
   13.9762   25.4293   -4.7033 C   0  0  0  0  0  0  0  0  0  0  0  0
   15.0781   26.1814   -5.0291 C   0  0  0  0  0  0  0  0  0  0  0  0
   16.0797   26.3744   -4.1710 N   0  0  0  0  0  0  0  0  0  0  0  0
   16.0415   25.8315   -2.9470 C   0  0  0  0  0  0  0  0  0  0  0  0
   15.1652   26.8279   -6.3873 C   0  0  0  0  0  0  0  0  0  0  0  0
   15.9279   25.9528   -7.3332 C   0  0  0  0  0  0  0  0  0  0  0  0
   13.7139   26.8774   -6.8824 C   0  0  0  0  0  0  0  0  0  0  0  0
   15.7391   28.0772   -6.3054 O   0  0  0  0  0  0  0  0  0  0  0  0
   15.0945   28.7640   -5.9803 H   0  0  0  0  0  0  0  0  0  0  0  0
   13.8561   23.5854   -0.8116 C   0  0  0  0  0  0  0  0  0  0  0  0
   13.4962   22.6663   -1.6879 O   0  0  0  0  0  0  0  0  0  0  0  0
   13.1738   23.4598    0.3897 N   0  0  0  0  0  0  0  0  0  0  0  0
   13.2698   24.0662    1.2042 H   0  0  0  0  0  0  0  0  0  0  0  0
   12.1870   22.4115    0.5507 C   0  0  0  0  0  0  0  0  0  0  0  0
   10.8743   22.7169    0.3544 C   0  0  0  0  0  0  0  0  0  0  0  0
   10.4446   24.3833   -0.0291 Cl  0  0  0  0  0  0  0  0  0  0  0  0
    9.8645   21.7784    0.4533 C   0  0  0  0  0  0  0  0  0  0  0  0
   10.2552   20.5218    0.7633 N   0  0  0  0  0  0  0  0  0  0  0  0
   11.5357   20.1589    0.9709 C   0  0  0  0  0  0  0  0  0  0  0  0
   12.5182   21.1380    0.8580 C   0  0  0  0  0  0  0  0  0  0  0  0
   14.1747   20.6679    1.1370 Cl  0  0  0  0  0  0  0  0  0  0  0  0
   18.1199   27.9338   -3.3046 C   0  0  0  0  0  0  0  0  0  0  0  0
   18.2114   26.8357   -2.3995 O   0  0  0  0  0  0  0  0  0  0  0  0
 28 29  1  0  0  0
 29  1  1  0  0  0
  1  2  2  0  0  0
  2  3  1  0  0  0
  3  4  2  0  0  0
  4 16  1  0  0  0
 16 17  2  0  0  0
 16 18  1  0  0  0
 18 20  1  0  0  0
 20 21  2  0  0  0
 21 22  1  0  0  0
 21 23  1  0  0  0
 23 24  2  0  0  0
 24 25  1  0  0  0
 25 26  2  0  0  0
 26 27  1  0  0  0
  4  5  1  0  0  0
  5  6  2  0  0  0
  6  7  1  0  0  0
  7  8  2  0  0  0
  8  9  1  0  0  0
  9 10  2  0  0  0
  8 11  1  0  0  0
 11 12  1  0  0  0
 11 13  1  0  0  0
 11 14  1  0  0  0
 10  1  1  0  0  0
 26 20  1  0  0  0
 10  5  1  0  0  0
 18 19  1  0  0  0
 14 15  1  0  0  0
M  END
> <minimizedAffinity>
-4.04955

> <CNNscore>
0.4178211093

> <CNNaffinity>
7.3976249695

> <CNN_VS>
3.0908839703

> <CNNaffinity_variance>
0.5088045597

$$$$
[H]OC(c1nc2c(OC([H])([H])[H])c([H])c([H])c(C(=O)N([H])c3c(Cl)c([H])nc([H])c3Cl)c2c([H])c1[H])(C([H])([H])[H])C([H])([H])[H]


 29 31  0  0  0  0  0  0  0  0999 V2000
   16.0434   24.6867   -0.7591 C   0  0  0  0  0  0  0  0  0  0  0  0
   15.6356   24.1584    0.4386 C   0  0  0  0  0  0  0  0  0  0  0  0
   14.3243   23.9501    0.7483 C   0  0  0  0  0  0  0  0  0  0  0  0
   13.2886   24.2795   -0.1745 C   0  0  0  0  0  0  0  0  0  0  0  0
   13.7052   24.8123   -1.3655 C   0  0  0  0  0  0  0  0  0  0  0  0
   12.7437   25.1891   -2.2953 C   0  0  0  0  0  0  0  0  0  0  0  0
   13.1706   25.7487   -3.4912 C   0  0  0  0  0  0  0  0  0  0  0  0
   14.5145   25.9171   -3.7183 C   0  0  0  0  0  0  0  0  0  0  0  0
   15.4324   25.5573   -2.8212 N   0  0  0  0  0  0  0  0  0  0  0  0
   15.0661   25.0114   -1.6540 C   0  0  0  0  0  0  0  0  0  0  0  0
   14.9809   26.5406   -5.0083 C   0  0  0  0  0  0  0  0  0  0  0  0
   16.1288   27.4679   -4.7538 C   0  0  0  0  0  0  0  0  0  0  0  0
   15.5204   25.3630   -5.8305 C   0  0  0  0  0  0  0  0  0  0  0  0
   13.9503   27.1995   -5.6411 O   0  0  0  0  0  0  0  0  0  0  0  0
   13.3446   26.5713   -6.1221 H   0  0  0  0  0  0  0  0  0  0  0  0
   11.9524   23.9090    0.2089 C   0  0  0  0  0  0  0  0  0  0  0  0
   11.0130   24.4893   -0.5142 O   0  0  0  0  0  0  0  0  0  0  0  0
   11.4235   23.0775    1.1852 N   0  0  0  0  0  0  0  0  0  0  0  0
   11.9530   22.5421    1.8732 H   0  0  0  0  0  0  0  0  0  0  0  0
    9.9869   22.9467    1.3181 C   0  0  0  0  0  0  0  0  0  0  0  0
    9.3735   21.8787    0.7367 C   0  0  0  0  0  0  0  0  0  0  0  0
   10.3544   20.7462   -0.1928 Cl  0  0  0  0  0  0  0  0  0  0  0  0
    8.0139   21.6510    0.8356 C   0  0  0  0  0  0  0  0  0  0  0  0
    7.3137   22.5613    1.5492 N   0  0  0  0  0  0  0  0  0  0  0  0
    7.8623   23.6375    2.1451 C   0  0  0  0  0  0  0  0  0  0  0  0
    9.2357   23.8237    2.0199 C   0  0  0  0  0  0  0  0  0  0  0  0
    9.9425   25.2235    2.7841 Cl  0  0  0  0  0  0  0  0  0  0  0  0
   18.3410   24.2370   -0.0622 C   0  0  0  0  0  0  0  0  0  0  0  0
   17.4130   24.8398   -0.9617 O   0  0  0  0  0  0  0  0  0  0  0  0
 28 29  1  0  0  0
 29  1  1  0  0  0
  1  2  2  0  0  0
  2  3  1  0  0  0
  3  4  2  0  0  0
  4 16  1  0  0  0
 16 17  2  0  0  0
 16 18  1  0  0  0
 18 20  1  0  0  0
 20 21  2  0  0  0
 21 22  1  0  0  0
 21 23  1  0  0  0
 23 24  2  0  0  0
 24 25  1  0  0  0
 25 26  2  0  0  0
 26 27  1  0  0  0
  4  5  1  0  0  0
  5  6  2  0  0  0
  6  7  1  0  0  0
  7  8  2  0  0  0
  8  9  1  0  0  0
  9 10  2  0  0  0
  8 11  1  0  0  0
 11 12  1  0  0  0
 11 13  1  0  0  0
 11 14  1  0  0  0
 10  1  1  0  0  0
 26 20  1  0  0  0
 10  5  1  0  0  0
 18 19  1  0  0  0
 14 15  1  0  0  0
M  END
> <minimizedAffinity>
-6.62002

> <CNNscore>
0.4123703241

> <CNNaffinity>
7.3808846474

> <CNN_VS>
3.0436577797

> <CNNaffinity_variance>
0.4466019571

$$$$
[H]OC(c1nc2c(OC([H])([H])[H])c([H])c([H])c(C(=O)N([H])c3c(Cl)c([H])nc([H])c3Cl)c2c([H])c1[H])(C([H])([H])[H])C([H])([H])[H]


 29 31  0  0  0  0  0  0  0  0999 V2000
   11.4721   21.0011    2.4262 C   0  0  0  0  0  0  0  0  0  0  0  0
   12.4144   20.5003    1.5652 C   0  0  0  0  0  0  0  0  0  0  0  0
   12.9470   21.2300    0.5440 C   0  0  0  0  0  0  0  0  0  0  0  0
   12.5420   22.5772    0.3125 C   0  0  0  0  0  0  0  0  0  0  0  0
   11.5960   23.0666    1.1735 C   0  0  0  0  0  0  0  0  0  0  0  0
   11.1309   24.3618    0.9806 C   0  0  0  0  0  0  0  0  0  0  0  0
   10.1565   24.8448    1.8424 C   0  0  0  0  0  0  0  0  0  0  0  0
    9.6810   24.0380    2.8469 C   0  0  0  0  0  0  0  0  0  0  0  0
   10.1279   22.7949    3.0252 N   0  0  0  0  0  0  0  0  0  0  0  0
   11.0694   22.2879    2.2182 C   0  0  0  0  0  0  0  0  0  0  0  0
    8.6103   24.5529    3.7737 C   0  0  0  0  0  0  0  0  0  0  0  0
    8.7477   23.9276    5.1274 C   0  0  0  0  0  0  0  0  0  0  0  0
    8.9227   26.0469    3.9283 C   0  0  0  0  0  0  0  0  0  0  0  0
    7.3548   24.3259    3.2549 O   0  0  0  0  0  0  0  0  0  0  0  0
    7.1155   24.9898    2.5515 H   0  0  0  0  0  0  0  0  0  0  0  0
   13.2533   23.2883   -0.7161 C   0  0  0  0  0  0  0  0  0  0  0  0
   14.3348   23.9079   -0.2818 O   0  0  0  0  0  0  0  0  0  0  0  0
   13.0501   23.4793   -2.0750 N   0  0  0  0  0  0  0  0  0  0  0  0
   12.2723   23.1158   -2.6257 H   0  0  0  0  0  0  0  0  0  0  0  0
   13.9741   24.2983   -2.8328 C   0  0  0  0  0  0  0  0  0  0  0  0
   15.0330   23.6942   -3.4399 C   0  0  0  0  0  0  0  0  0  0  0  0
   15.2513   21.9581   -3.2228 Cl  0  0  0  0  0  0  0  0  0  0  0  0
   15.9489   24.3857   -4.2101 C   0  0  0  0  0  0  0  0  0  0  0  0
   15.7359   25.7157   -4.3279 N   0  0  0  0  0  0  0  0  0  0  0  0
   14.7098   26.3700   -3.7506 C   0  0  0  0  0  0  0  0  0  0  0  0
   13.8117   25.6310   -2.9863 C   0  0  0  0  0  0  0  0  0  0  0  0
   12.4892   26.4820   -2.2315 Cl  0  0  0  0  0  0  0  0  0  0  0  0
   11.8609   19.1375    3.9567 C   0  0  0  0  0  0  0  0  0  0  0  0
   11.0137   20.1605    3.4378 O   0  0  0  0  0  0  0  0  0  0  0  0
 28 29  1  0  0  0
 29  1  1  0  0  0
  1  2  2  0  0  0
  2  3  1  0  0  0
  3  4  2  0  0  0
  4 16  1  0  0  0
 16 17  2  0  0  0
 16 18  1  0  0  0
 18 20  1  0  0  0
 20 21  2  0  0  0
 21 22  1  0  0  0
 21 23  1  0  0  0
 23 24  2  0  0  0
 24 25  1  0  0  0
 25 26  2  0  0  0
 26 27  1  0  0  0
  4  5  1  0  0  0
  5  6  2  0  0  0
  6  7  1  0  0  0
  7  8  2  0  0  0
  8  9  1  0  0  0
  9 10  2  0  0  0
  8 11  1  0  0  0
 11 12  1  0  0  0
 11 13  1  0  0  0
 11 14  1  0  0  0
 10  1  1  0  0  0
 26 20  1  0  0  0
 10  5  1  0  0  0
 18 19  1  0  0  0
 14 15  1  0  0  0
M  END
> <minimizedAffinity>
-7.78230

> <CNNscore>
0.3787848949

> <CNNaffinity>
7.0762376785

> <CNN_VS>
2.6803719997

> <CNNaffinity_variance>
0.1972274035

$$$$
[H]OC(c1nc2c(OC([H])([H])[H])c([H])c([H])c(C(=O)N([H])c3c(Cl)c([H])nc([H])c3Cl)c2c([H])c1[H])(C([H])([H])[H])C([H])([H])[H]


 29 31  0  0  0  0  0  0  0  0999 V2000
   11.8284   20.8807    1.1287 C   0  0  0  0  0  0  0  0  0  0  0  0
   12.7703   20.5673    0.1828 C   0  0  0  0  0  0  0  0  0  0  0  0
   13.3031   21.4911   -0.6666 C   0  0  0  0  0  0  0  0  0  0  0  0
   12.8987   22.8573   -0.6160 C   0  0  0  0  0  0  0  0  0  0  0  0
   11.9532   23.1596    0.3276 C   0  0  0  0  0  0  0  0  0  0  0  0
   11.4888   24.4670    0.4053 C   0  0  0  0  0  0  0  0  0  0  0  0
   10.5147   24.7629    1.3484 C   0  0  0  0  0  0  0  0  0  0  0  0
   10.0390   23.7671    2.1656 C   0  0  0  0  0  0  0  0  0  0  0  0
   10.4853   22.5136    2.0842 N   0  0  0  0  0  0  0  0  0  0  0  0
   11.4264   22.1830    1.1900 C   0  0  0  0  0  0  0  0  0  0  0  0
    8.9687   24.0808    3.1788 C   0  0  0  0  0  0  0  0  0  0  0  0
    9.2347   23.3531    4.4602 C   0  0  0  0  0  0  0  0  0  0  0  0
    9.1365   25.5791    3.4625 C   0  0  0  0  0  0  0  0  0  0  0  0
    7.7185   23.7715    2.6907 O   0  0  0  0  0  0  0  0  0  0  0  0
    7.3794   24.4678    2.0637 H   0  0  0  0  0  0  0  0  0  0  0  0
   13.6103   23.7645   -1.4765 C   0  0  0  0  0  0  0  0  0  0  0  0
   14.0784   23.1982   -2.5731 O   0  0  0  0  0  0  0  0  0  0  0  0
   13.9270   25.1132   -1.4071 N   0  0  0  0  0  0  0  0  0  0  0  0
   13.6904   25.7501   -0.6463 H   0  0  0  0  0  0  0  0  0  0  0  0
   14.7022   25.7260   -2.4664 C   0  0  0  0  0  0  0  0  0  0  0  0
   14.0405   26.3309   -3.4916 C   0  0  0  0  0  0  0  0  0  0  0  0
   12.2779   26.2849   -3.5011 Cl  0  0  0  0  0  0  0  0  0  0  0  0
   14.6920   26.9698   -4.5297 C   0  0  0  0  0  0  0  0  0  0  0  0
   16.0428   26.9594   -4.4738 N   0  0  0  0  0  0  0  0  0  0  0  0
   16.7532   26.3771   -3.4886 C   0  0  0  0  0  0  0  0  0  0  0  0
   16.0534   25.7479   -2.4634 C   0  0  0  0  0  0  0  0  0  0  0  0
   16.9755   24.9859   -1.1937 Cl  0  0  0  0  0  0  0  0  0  0  0  0
   11.9558   19.6397    3.2288 C   0  0  0  0  0  0  0  0  0  0  0  0
   11.3697   19.8502    1.9459 O   0  0  0  0  0  0  0  0  0  0  0  0
 28 29  1  0  0  0
 29  1  1  0  0  0
  1  2  2  0  0  0
  2  3  1  0  0  0
  3  4  2  0  0  0
  4 16  1  0  0  0
 16 17  2  0  0  0
 16 18  1  0  0  0
 18 20  1  0  0  0
 20 21  2  0  0  0
 21 22  1  0  0  0
 21 23  1  0  0  0
 23 24  2  0  0  0
 24 25  1  0  0  0
 25 26  2  0  0  0
 26 27  1  0  0  0
  4  5  1  0  0  0
  5  6  2  0  0  0
  6  7  1  0  0  0
  7  8  2  0  0  0
  8  9  1  0  0  0
  9 10  2  0  0  0
  8 11  1  0  0  0
 11 12  1  0  0  0
 11 13  1  0  0  0
 11 14  1  0  0  0
 10  1  1  0  0  0
 26 20  1  0  0  0
 10  5  1  0  0  0
 18 19  1  0  0  0
 14 15  1  0  0  0
M  END
> <minimizedAffinity>
-7.47803

> <CNNscore>
0.3782592416

> <CNNaffinity>
7.1753244400

> <CNN_VS>
2.7141327858

> <CNNaffinity_variance>
0.1266740561

$$$$
[H]OC(c1nc2c(OC([H])([H])[H])c([H])c([H])c(C(=O)N([H])c3c(Cl)c([H])nc([H])c3Cl)c2c([H])c1[H])(C([H])([H])[H])C([H])([H])[H]


 29 31  0  0  0  0  0  0  0  0999 V2000
   11.8103   20.9239    1.0398 C   0  0  0  0  0  0  0  0  0  0  0  0
   12.7417   20.6280    0.0780 C   0  0  0  0  0  0  0  0  0  0  0  0
   13.2646   21.5672   -0.7606 C   0  0  0  0  0  0  0  0  0  0  0  0
   12.8605   22.9321   -0.6808 C   0  0  0  0  0  0  0  0  0  0  0  0
   11.9255   23.2169    0.2786 C   0  0  0  0  0  0  0  0  0  0  0  0
   11.4617   24.5225    0.3850 C   0  0  0  0  0  0  0  0  0  0  0  0
   10.4982   24.8009    1.3441 C   0  0  0  0  0  0  0  0  0  0  0  0
   10.0319   23.7903    2.1485 C   0  0  0  0  0  0  0  0  0  0  0  0
   10.4776   22.5387    2.0396 N   0  0  0  0  0  0  0  0  0  0  0  0
   11.4087   22.2247    1.1290 C   0  0  0  0  0  0  0  0  0  0  0  0
    8.9730   24.0852    3.1791 C   0  0  0  0  0  0  0  0  0  0  0  0
    9.2645   23.3505    4.4510 C   0  0  0  0  0  0  0  0  0  0  0  0
    9.1295   25.5830    3.4722 C   0  0  0  0  0  0  0  0  0  0  0  0
    7.7192   23.7669    2.7063 O   0  0  0  0  0  0  0  0  0  0  0  0
    7.3641   24.4644    2.0896 H   0  0  0  0  0  0  0  0  0  0  0  0
   13.5621   23.8550   -1.5329 C   0  0  0  0  0  0  0  0  0  0  0  0
   13.9839   23.3182   -2.6625 O   0  0  0  0  0  0  0  0  0  0  0  0
   13.9074   25.1944   -1.4281 N   0  0  0  0  0  0  0  0  0  0  0  0
   13.7077   25.8090   -0.6389 H   0  0  0  0  0  0  0  0  0  0  0  0
   14.6605   25.8287   -2.4907 C   0  0  0  0  0  0  0  0  0  0  0  0
   16.0209   25.7968   -2.4337 C   0  0  0  0  0  0  0  0  0  0  0  0
   16.7887   25.0349   -1.0413 Cl  0  0  0  0  0  0  0  0  0  0  0  0
   16.8244   26.3453   -3.4154 C   0  0  0  0  0  0  0  0  0  0  0  0
   16.1776   26.9272   -4.4503 N   0  0  0  0  0  0  0  0  0  0  0  0
   14.8368   26.9922   -4.5621 C   0  0  0  0  0  0  0  0  0  0  0  0
   14.0691   26.4238   -3.5500 C   0  0  0  0  0  0  0  0  0  0  0  0
   12.3330   26.5179   -3.6919 Cl  0  0  0  0  0  0  0  0  0  0  0  0
   11.9573   19.6493    3.1184 C   0  0  0  0  0  0  0  0  0  0  0  0
   11.3611   19.8786    1.8434 O   0  0  0  0  0  0  0  0  0  0  0  0
 28 29  1  0  0  0
 29  1  1  0  0  0
  1  2  2  0  0  0
  2  3  1  0  0  0
  3  4  2  0  0  0
  4 16  1  0  0  0
 16 17  2  0  0  0
 16 18  1  0  0  0
 18 20  1  0  0  0
 20 21  2  0  0  0
 21 22  1  0  0  0
 21 23  1  0  0  0
 23 24  2  0  0  0
 24 25  1  0  0  0
 25 26  2  0  0  0
 26 27  1  0  0  0
  4  5  1  0  0  0
  5  6  2  0  0  0
  6  7  1  0  0  0
  7  8  2  0  0  0
  8  9  1  0  0  0
  9 10  2  0  0  0
  8 11  1  0  0  0
 11 12  1  0  0  0
 11 13  1  0  0  0
 11 14  1  0  0  0
 10  1  1  0  0  0
 26 20  1  0  0  0
 10  5  1  0  0  0
 18 19  1  0  0  0
 14 15  1  0  0  0
M  END
> <minimizedAffinity>
-7.39653

> <CNNscore>
0.3632309735

> <CNNaffinity>
7.1615934372

> <CNN_VS>
2.6013126373

> <CNNaffinity_variance>
0.1249513477

$$$$
[H]OC(c1nc2c(OC([H])([H])[H])c([H])c([H])c(C(=O)N([H])c3c(Cl)c([H])nc([H])c3Cl)c2c([H])c1[H])(C([H])([H])[H])C([H])([H])[H]


 29 31  0  0  0  0  0  0  0  0999 V2000
   12.5422   24.9734   -2.2474 C   0  0  0  0  0  0  0  0  0  0  0  0
   11.2011   24.6899   -2.2821 C   0  0  0  0  0  0  0  0  0  0  0  0
   10.5433   24.0927   -1.2481 C   0  0  0  0  0  0  0  0  0  0  0  0
   11.2297   23.7225   -0.0545 C   0  0  0  0  0  0  0  0  0  0  0  0
   12.5698   24.0040   -0.0316 C   0  0  0  0  0  0  0  0  0  0  0  0
   13.3052   23.6358    1.0886 C   0  0  0  0  0  0  0  0  0  0  0  0
   14.6668   23.9035    1.0972 C   0  0  0  0  0  0  0  0  0  0  0  0
   15.2438   24.5131    0.0103 C   0  0  0  0  0  0  0  0  0  0  0  0
   14.5343   24.8608   -1.0632 N   0  0  0  0  0  0  0  0  0  0  0  0
   13.2169   24.6234   -1.1145 C   0  0  0  0  0  0  0  0  0  0  0  0
   16.7251   24.7894    0.0089 C   0  0  0  0  0  0  0  0  0  0  0  0
   17.4813   23.5802    0.4653 C   0  0  0  0  0  0  0  0  0  0  0  0
   17.0722   25.0126   -1.4688 C   0  0  0  0  0  0  0  0  0  0  0  0
   17.0264   25.8803    0.7937 O   0  0  0  0  0  0  0  0  0  0  0  0
   16.8292   26.7400    0.3302 H   0  0  0  0  0  0  0  0  0  0  0  0
   10.4160   23.2081    1.0147 C   0  0  0  0  0  0  0  0  0  0  0  0
    9.3810   22.5015    0.6008 O   0  0  0  0  0  0  0  0  0  0  0  0
   10.4701   23.2975    2.3979 N   0  0  0  0  0  0  0  0  0  0  0  0
   11.1657   23.8070    2.9429 H   0  0  0  0  0  0  0  0  0  0  0  0
    9.4453   22.6620    3.2008 C   0  0  0  0  0  0  0  0  0  0  0  0
    9.7091   21.4431    3.7482 C   0  0  0  0  0  0  0  0  0  0  0  0
   11.2614   20.6818    3.4024 Cl  0  0  0  0  0  0  0  0  0  0  0  0
    8.8079   20.7735    4.5542 C   0  0  0  0  0  0  0  0  0  0  0  0
    7.6305   21.4017    4.7713 N   0  0  0  0  0  0  0  0  0  0  0  0
    7.3107   22.6048    4.2569 C   0  0  0  0  0  0  0  0  0  0  0  0
    8.2511   23.2420    3.4531 C   0  0  0  0  0  0  0  0  0  0  0  0
    7.8309   24.7955    2.7800 Cl  0  0  0  0  0  0  0  0  0  0  0  0
   12.9240   26.9989   -3.5584 C   0  0  0  0  0  0  0  0  0  0  0  0
   13.0969   25.5970   -3.3626 O   0  0  0  0  0  0  0  0  0  0  0  0
 28 29  1  0  0  0
 29  1  1  0  0  0
  1  2  2  0  0  0
  2  3  1  0  0  0
  3  4  2  0  0  0
  4 16  1  0  0  0
 16 17  2  0  0  0
 16 18  1  0  0  0
 18 20  1  0  0  0
 20 21  2  0  0  0
 21 22  1  0  0  0
 21 23  1  0  0  0
 23 24  2  0  0  0
 24 25  1  0  0  0
 25 26  2  0  0  0
 26 27  1  0  0  0
  4  5  1  0  0  0
  5  6  2  0  0  0
  6  7  1  0  0  0
  7  8  2  0  0  0
  8  9  1  0  0  0
  9 10  2  0  0  0
  8 11  1  0  0  0
 11 12  1  0  0  0
 11 13  1  0  0  0
 11 14  1  0  0  0
 10  1  1  0  0  0
 26 20  1  0  0  0
 10  5  1  0  0  0
 18 19  1  0  0  0
 14 15  1  0  0  0
M  END
> <minimizedAffinity>
-1.69372

> <CNNscore>
0.3630811870

> <CNNaffinity>
6.6652894020

> <CNN_VS>
2.4200410843

> <CNNaffinity_variance>
0.5810335279

$$$$
[H]OC(c1nc2c(OC([H])([H])[H])c([H])c([H])c(C(=O)N([H])c3c(Cl)c([H])nc([H])c3Cl)c2c([H])c1[H])(C([H])([H])[H])C([H])([H])[H]


 29 31  0  0  0  0  0  0  0  0999 V2000
   13.0706   21.2936    0.1031 C   0  0  0  0  0  0  0  0  0  0  0  0
   14.0390   21.1287   -0.8535 C   0  0  0  0  0  0  0  0  0  0  0  0
   14.4433   22.1353   -1.6794 C   0  0  0  0  0  0  0  0  0  0  0  0
   13.8672   23.4365   -1.5909 C   0  0  0  0  0  0  0  0  0  0  0  0
   12.8966   23.5898   -0.6369 C   0  0  0  0  0  0  0  0  0  0  0  0
   12.2687   24.8242   -0.5228 C   0  0  0  0  0  0  0  0  0  0  0  0
   11.2706   24.9676    0.4307 C   0  0  0  0  0  0  0  0  0  0  0  0
   10.9319   23.8977    1.2222 C   0  0  0  0  0  0  0  0  0  0  0  0
   11.5349   22.7146    1.1060 N   0  0  0  0  0  0  0  0  0  0  0  0
   12.5050   22.5313    0.2005 C   0  0  0  0  0  0  0  0  0  0  0  0
    9.8366   24.0446    2.2465 C   0  0  0  0  0  0  0  0  0  0  0  0
    8.4946   24.0116    1.5830 C   0  0  0  0  0  0  0  0  0  0  0  0
    9.9483   22.7823    3.1112 C   0  0  0  0  0  0  0  0  0  0  0  0
    9.9932   25.2017    2.9769 O   0  0  0  0  0  0  0  0  0  0  0  0
   10.6898   25.1065    3.6829 H   0  0  0  0  0  0  0  0  0  0  0  0
   14.4509   24.4498   -2.4289 C   0  0  0  0  0  0  0  0  0  0  0  0
   13.7444   25.5632   -2.4852 O   0  0  0  0  0  0  0  0  0  0  0  0
   15.5971   24.5165   -3.2074 N   0  0  0  0  0  0  0  0  0  0  0  0
   16.2835   23.7730   -3.3356 H   0  0  0  0  0  0  0  0  0  0  0  0
   15.8814   25.7160   -3.9685 C   0  0  0  0  0  0  0  0  0  0  0  0
   16.4723   26.7658   -3.3333 C   0  0  0  0  0  0  0  0  0  0  0  0
   16.8064   26.6272   -1.6076 Cl  0  0  0  0  0  0  0  0  0  0  0  0
   16.8113   27.9384   -3.9815 C   0  0  0  0  0  0  0  0  0  0  0  0
   16.5177   27.9897   -5.3003 N   0  0  0  0  0  0  0  0  0  0  0  0
   15.9327   26.9866   -5.9830 C   0  0  0  0  0  0  0  0  0  0  0  0
   15.6118   25.8242   -5.2882 C   0  0  0  0  0  0  0  0  0  0  0  0
   14.8454   24.5303   -6.1722 Cl  0  0  0  0  0  0  0  0  0  0  0  0
   12.5188   20.3569    2.2906 C   0  0  0  0  0  0  0  0  0  0  0  0
   12.7532   20.1915    0.8937 O   0  0  0  0  0  0  0  0  0  0  0  0
 28 29  1  0  0  0
 29  1  1  0  0  0
  1  2  2  0  0  0
  2  3  1  0  0  0
  3  4  2  0  0  0
  4 16  1  0  0  0
 16 17  2  0  0  0
 16 18  1  0  0  0
 18 20  1  0  0  0
 20 21  2  0  0  0
 21 22  1  0  0  0
 21 23  1  0  0  0
 23 24  2  0  0  0
 24 25  1  0  0  0
 25 26  2  0  0  0
 26 27  1  0  0  0
  4  5  1  0  0  0
  5  6  2  0  0  0
  6  7  1  0  0  0
  7  8  2  0  0  0
  8  9  1  0  0  0
  9 10  2  0  0  0
  8 11  1  0  0  0
 11 12  1  0  0  0
 11 13  1  0  0  0
 11 14  1  0  0  0
 10  1  1  0  0  0
 26 20  1  0  0  0
 10  5  1  0  0  0
 18 19  1  0  0  0
 14 15  1  0  0  0
M  END
> <minimizedAffinity>
-6.49934

> <CNNscore>
0.3576210439

> <CNNaffinity>
7.2059984207

> <CNN_VS>
2.5770165920

> <CNNaffinity_variance>
0.1576459855

$$$$
[H]OC(=O)[C@@]([H])(N([H])C(=O)[C@@]([H])(C([H])([H])C(=O)N([H])O[H])C([H])([H])C([H])(C([H])([H])[H])C([H])([H])[H])C([H])([H])c1c([H])n([H])c2c([H])c([H])c([H])c([H])c12


 32 33  0  0  0  0  0  0  0  0999 V2000
   12.6606   24.4319   -1.2156 C   0  0  0  0  0  0  0  0  0  0  0  0
   12.1243   25.4305   -0.7127 O   0  0  0  0  0  0  0  0  0  0  0  0
   12.4149   23.1459   -0.6700 N   0  0  0  0  0  0  0  0  0  0  0  0
   12.8515   22.2989   -1.0733 H   0  0  0  0  0  0  0  0  0  0  0  0
   13.5765   24.5032   -2.4011 C   0  0  0  0  0  0  0  0  0  0  0  0
   14.9589   24.0535   -2.0988 C   0  0  0  0  0  0  0  0  0  0  0  0
   15.8924   24.3499    0.1297 C   0  0  0  0  0  0  0  0  0  0  0  0
   15.6384   25.0523   -1.1940 C   0  0  0  0  0  0  0  0  0  0  0  0
   16.9483   25.5283   -1.8056 C   0  0  0  0  0  0  0  0  0  0  0  0
   13.5202   25.9360   -2.9047 C   0  0  0  0  0  0  0  0  0  0  0  0
   13.9669   26.1318   -4.2786 C   0  0  0  0  0  0  0  0  0  0  0  0
   13.5083   27.0221   -5.0348 O   0  0  0  0  0  0  0  0  0  0  0  0
   14.9806   25.2741   -4.8118 N   0  0  0  0  0  0  0  0  0  0  0  0
   15.3839   25.4635   -6.0773 O   0  0  0  0  0  0  0  0  0  0  0  0
   15.3798   24.5278   -4.2108 H   0  0  0  0  0  0  0  0  0  0  0  0
   16.3688   25.5923   -6.0530 H   0  0  0  0  0  0  0  0  0  0  0  0
   11.5299   22.9528    0.4932 C   0  0  0  0  0  0  0  0  0  0  0  0
   11.8653   21.6684    1.1364 C   0  0  0  0  0  0  0  0  0  0  0  0
   11.6945   20.4439    0.5220 O   0  0  0  0  0  0  0  0  0  0  0  0
   12.3287   21.6772    2.3005 O   0  0  0  0  0  0  0  0  0  0  0  0
   11.5154   19.5751    0.9758 H   0  0  0  0  0  0  0  0  0  0  0  0
   10.1224   22.8867   -0.0256 C   0  0  0  0  0  0  0  0  0  0  0  0
    9.0823   22.7911    1.0200 C   0  0  0  0  0  0  0  0  0  0  0  0
    8.1055   21.8231    1.2182 C   0  0  0  0  0  0  0  0  0  0  0  0
    7.3740   22.1588    2.2929 N   0  0  0  0  0  0  0  0  0  0  0  0
    7.8080   23.3060    2.8313 C   0  0  0  0  0  0  0  0  0  0  0  0
    7.4305   24.0811    3.9114 C   0  0  0  0  0  0  0  0  0  0  0  0
    8.1175   25.2435    4.1927 C   0  0  0  0  0  0  0  0  0  0  0  0
    9.1721   25.6550    3.4254 C   0  0  0  0  0  0  0  0  0  0  0  0
    9.5360   24.8673    2.3487 C   0  0  0  0  0  0  0  0  0  0  0  0
    8.8707   23.7095    2.0484 C   0  0  0  0  0  0  0  0  0  0  0  0
    6.5612   21.6157    2.6865 H   0  0  0  0  0  0  0  0  0  0  0  0
  7  8  1  0  0  0
  8  9  1  0  0  0
  8  6  1  0  0  0
  6  5  1  0  0  0
  5 10  1  0  0  0
 10 11  1  0  0  0
 11 12  2  0  0  0
 11 13  1  0  0  0
 13 14  1  0  0  0
  5  1  1  0  0  0
  1  2  2  0  0  0
  1  3  1  0  0  0
  3 17  1  0  0  0
 17 22  1  0  0  0
 22 23  1  0  0  0
 23 24  2  0  0  0
 24 25  1  0  0  0
 25 26  1  0  0  0
 26 27  2  0  0  0
 27 28  1  0  0  0
 28 29  2  0  0  0
 29 30  1  0  0  0
 30 31  2  0  0  0
 17 18  1  0  0  0
 18 19  1  0  0  0
 18 20  2  0  0  0
 31 23  1  0  0  0
 31 26  1  0  0  0
 13 15  1  0  0  0
 14 16  1  0  0  0
  3  4  1  0  0  0
 25 32  1  0  0  0
 19 21  1  0  0  0
M  END
> <minimizedAffinity>
-7.45089

> <CNNscore>
0.2612319291

> <CNNaffinity>
6.4496126175

> <CNN_VS>
1.6848447323

> <CNNaffinity_variance>
0.3999081552

$$$$
[H]OC(=O)[C@@]([H])(N([H])C(=O)[C@@]([H])(C([H])([H])C(=O)N([H])O[H])C([H])([H])C([H])(C([H])([H])[H])C([H])([H])[H])C([H])([H])c1c([H])n([H])c2c([H])c([H])c([H])c([H])c12


 32 33  0  0  0  0  0  0  0  0999 V2000
   13.4296   25.9168   -3.4008 C   0  0  0  0  0  0  0  0  0  0  0  0
   12.8949   27.0311   -3.3002 O   0  0  0  0  0  0  0  0  0  0  0  0
   13.0666   24.8743   -2.5101 N   0  0  0  0  0  0  0  0  0  0  0  0
   13.4997   23.9368   -2.5755 H   0  0  0  0  0  0  0  0  0  0  0  0
   14.4636   25.5946   -4.4384 C   0  0  0  0  0  0  0  0  0  0  0  0
   15.7927   25.2749   -3.8587 C   0  0  0  0  0  0  0  0  0  0  0  0
   16.7702   25.4302   -1.6348 C   0  0  0  0  0  0  0  0  0  0  0  0
   16.1114   26.2378   -2.7410 C   0  0  0  0  0  0  0  0  0  0  0  0
   17.0447   27.3372   -3.2276 C   0  0  0  0  0  0  0  0  0  0  0  0
   14.5053   26.7797   -5.3890 C   0  0  0  0  0  0  0  0  0  0  0  0
   15.4533   26.6624   -6.4902 C   0  0  0  0  0  0  0  0  0  0  0  0
   16.4240   27.4409   -6.6532 O   0  0  0  0  0  0  0  0  0  0  0  0
   15.2858   25.6110   -7.4464 N   0  0  0  0  0  0  0  0  0  0  0  0
   16.1643   25.5127   -8.4556 O   0  0  0  0  0  0  0  0  0  0  0  0
   14.4921   24.9507   -7.3387 H   0  0  0  0  0  0  0  0  0  0  0  0
   16.5404   24.5936   -8.4259 H   0  0  0  0  0  0  0  0  0  0  0  0
   12.0597   25.0734   -1.4519 C   0  0  0  0  0  0  0  0  0  0  0  0
   12.7558   25.2916   -0.1698 C   0  0  0  0  0  0  0  0  0  0  0  0
   14.0851   24.9805    0.0353 O   0  0  0  0  0  0  0  0  0  0  0  0
   12.1171   25.7830    0.7898 O   0  0  0  0  0  0  0  0  0  0  0  0
   14.5051   24.7249    0.9019 H   0  0  0  0  0  0  0  0  0  0  0  0
   11.2542   23.8095   -1.3617 C   0  0  0  0  0  0  0  0  0  0  0  0
   11.6258   22.9184   -0.2427 C   0  0  0  0  0  0  0  0  0  0  0  0
   11.0010   22.7195    0.9822 C   0  0  0  0  0  0  0  0  0  0  0  0
   11.7056   21.8201    1.6875 N   0  0  0  0  0  0  0  0  0  0  0  0
   12.7760   21.4009    0.9999 C   0  0  0  0  0  0  0  0  0  0  0  0
   13.8049   20.5110    1.2434 C   0  0  0  0  0  0  0  0  0  0  0  0
   14.7768   20.3101    0.2857 C   0  0  0  0  0  0  0  0  0  0  0  0
   14.7510   20.9732   -0.9101 C   0  0  0  0  0  0  0  0  0  0  0  0
   13.7143   21.8598   -1.1369 C   0  0  0  0  0  0  0  0  0  0  0  0
   12.7377   22.0769   -0.2029 C   0  0  0  0  0  0  0  0  0  0  0  0
   11.4756   21.4693    2.6542 H   0  0  0  0  0  0  0  0  0  0  0  0
  7  8  1  0  0  0
  8  9  1  0  0  0
  8  6  1  0  0  0
  6  5  1  0  0  0
  5 10  1  0  0  0
 10 11  1  0  0  0
 11 12  2  0  0  0
 11 13  1  0  0  0
 13 14  1  0  0  0
  5  1  1  0  0  0
  1  2  2  0  0  0
  1  3  1  0  0  0
  3 17  1  0  0  0
 17 22  1  0  0  0
 22 23  1  0  0  0
 23 24  2  0  0  0
 24 25  1  0  0  0
 25 26  1  0  0  0
 26 27  2  0  0  0
 27 28  1  0  0  0
 28 29  2  0  0  0
 29 30  1  0  0  0
 30 31  2  0  0  0
 17 18  1  0  0  0
 18 19  1  0  0  0
 18 20  2  0  0  0
 31 23  1  0  0  0
 31 26  1  0  0  0
 13 15  1  0  0  0
 14 16  1  0  0  0
  3  4  1  0  0  0
 25 32  1  0  0  0
 19 21  1  0  0  0
M  END
> <minimizedAffinity>
-8.29219

> <CNNscore>
0.2431591004

> <CNNaffinity>
6.8111710548

> <CNN_VS>
1.6561982632

> <CNNaffinity_variance>
0.2740847468

$$$$
[H]OC(=O)[C@@]([H])(N([H])C(=O)[C@@]([H])(C([H])([H])C(=O)N([H])O[H])C([H])([H])C([H])(C([H])([H])[H])C([H])([H])[H])C([H])([H])c1c([H])n([H])c2c([H])c([H])c([H])c([H])c12


 32 33  0  0  0  0  0  0  0  0999 V2000
   11.7672   21.5246    0.1570 C   0  0  0  0  0  0  0  0  0  0  0  0
   12.1106   20.5475   -0.5248 O   0  0  0  0  0  0  0  0  0  0  0  0
   12.6175   22.6559    0.2515 N   0  0  0  0  0  0  0  0  0  0  0  0
   12.3514   23.4823    0.8147 H   0  0  0  0  0  0  0  0  0  0  0  0
   10.4695   21.5856    0.9065 C   0  0  0  0  0  0  0  0  0  0  0  0
    9.4883   22.5205    0.2998 C   0  0  0  0  0  0  0  0  0  0  0  0
    8.4604   20.4102   -0.3448 C   0  0  0  0  0  0  0  0  0  0  0  0
    8.1604   21.8262    0.1188 C   0  0  0  0  0  0  0  0  0  0  0  0
    7.3811   21.8061    1.4260 C   0  0  0  0  0  0  0  0  0  0  0  0
   10.8163   21.9455    2.3417 C   0  0  0  0  0  0  0  0  0  0  0  0
   10.6199   20.8794    3.3165 C   0  0  0  0  0  0  0  0  0  0  0  0
    9.4902   20.4464    3.6499 O   0  0  0  0  0  0  0  0  0  0  0  0
   11.7625   20.2822    3.9374 N   0  0  0  0  0  0  0  0  0  0  0  0
   11.5698   19.3020    4.8328 O   0  0  0  0  0  0  0  0  0  0  0  0
   12.7108   20.6189    3.6824 H   0  0  0  0  0  0  0  0  0  0  0  0
   12.0937   18.5169    4.5226 H   0  0  0  0  0  0  0  0  0  0  0  0
   13.9162   22.7107   -0.4441 C   0  0  0  0  0  0  0  0  0  0  0  0
   14.9942   22.7022    0.5628 C   0  0  0  0  0  0  0  0  0  0  0  0
   15.4145   21.5608    1.2158 O   0  0  0  0  0  0  0  0  0  0  0  0
   15.5639   23.7810    0.8487 O   0  0  0  0  0  0  0  0  0  0  0  0
   15.8121   21.5147    2.1283 H   0  0  0  0  0  0  0  0  0  0  0  0
   13.9619   24.0084   -1.1980 C   0  0  0  0  0  0  0  0  0  0  0  0
   14.5495   23.9165   -2.5510 C   0  0  0  0  0  0  0  0  0  0  0  0
   15.2056   22.8579   -3.1667 C   0  0  0  0  0  0  0  0  0  0  0  0
   15.5780   23.2366   -4.3998 N   0  0  0  0  0  0  0  0  0  0  0  0
   15.2059   24.4991   -4.6485 C   0  0  0  0  0  0  0  0  0  0  0  0
   15.3305   25.3594   -5.7229 C   0  0  0  0  0  0  0  0  0  0  0  0
   14.8151   26.6360   -5.6406 C   0  0  0  0  0  0  0  0  0  0  0  0
   14.1778   27.0791   -4.5146 C   0  0  0  0  0  0  0  0  0  0  0  0
   14.0622   26.2051   -3.4493 C   0  0  0  0  0  0  0  0  0  0  0  0
   14.5650   24.9334   -3.5058 C   0  0  0  0  0  0  0  0  0  0  0  0
   16.0946   22.6453   -5.1027 H   0  0  0  0  0  0  0  0  0  0  0  0
  7  8  1  0  0  0
  8  9  1  0  0  0
  8  6  1  0  0  0
  6  5  1  0  0  0
  5 10  1  0  0  0
 10 11  1  0  0  0
 11 12  2  0  0  0
 11 13  1  0  0  0
 13 14  1  0  0  0
  5  1  1  0  0  0
  1  2  2  0  0  0
  1  3  1  0  0  0
  3 17  1  0  0  0
 17 22  1  0  0  0
 22 23  1  0  0  0
 23 24  2  0  0  0
 24 25  1  0  0  0
 25 26  1  0  0  0
 26 27  2  0  0  0
 27 28  1  0  0  0
 28 29  2  0  0  0
 29 30  1  0  0  0
 30 31  2  0  0  0
 17 18  1  0  0  0
 18 19  1  0  0  0
 18 20  2  0  0  0
 31 23  1  0  0  0
 31 26  1  0  0  0
 13 15  1  0  0  0
 14 16  1  0  0  0
  3  4  1  0  0  0
 25 32  1  0  0  0
 19 21  1  0  0  0
M  END
> <minimizedAffinity>
-7.49980

> <CNNscore>
0.2265545875

> <CNNaffinity>
6.6743073463

> <CNN_VS>
1.5120949745

> <CNNaffinity_variance>
0.6069700718

$$$$
[H]OC(=O)[C@@]([H])(N([H])C(=O)[C@@]([H])(C([H])([H])C(=O)N([H])O[H])C([H])([H])C([H])(C([H])([H])[H])C([H])([H])[H])C([H])([H])c1c([H])n([H])c2c([H])c([H])c([H])c([H])c12


 32 33  0  0  0  0  0  0  0  0999 V2000
   12.5154   24.2217   -0.9973 C   0  0  0  0  0  0  0  0  0  0  0  0
   11.4671   24.7835   -1.3479 O   0  0  0  0  0  0  0  0  0  0  0  0
   12.4636   23.1150   -0.1117 N   0  0  0  0  0  0  0  0  0  0  0  0
   13.3255   22.6310    0.1942 H   0  0  0  0  0  0  0  0  0  0  0  0
   13.8729   24.6516   -1.4685 C   0  0  0  0  0  0  0  0  0  0  0  0
   13.8678   25.1867   -2.8536 C   0  0  0  0  0  0  0  0  0  0  0  0
   15.1476   24.8084   -4.8893 C   0  0  0  0  0  0  0  0  0  0  0  0
   15.2677   25.1678   -3.4174 C   0  0  0  0  0  0  0  0  0  0  0  0
   15.9327   26.5268   -3.2523 C   0  0  0  0  0  0  0  0  0  0  0  0
   14.7876   23.4489   -1.3051 C   0  0  0  0  0  0  0  0  0  0  0  0
   15.1941   23.1565    0.0639 C   0  0  0  0  0  0  0  0  0  0  0  0
   15.3182   24.0352    0.9514 O   0  0  0  0  0  0  0  0  0  0  0  0
   15.4712   21.8027    0.4358 N   0  0  0  0  0  0  0  0  0  0  0  0
   15.8445   21.5454    1.6984 O   0  0  0  0  0  0  0  0  0  0  0  0
   15.3776   21.0531   -0.2762 H   0  0  0  0  0  0  0  0  0  0  0  0
   15.2121   20.8682    2.0569 H   0  0  0  0  0  0  0  0  0  0  0  0
   11.1857   22.6017    0.4147 C   0  0  0  0  0  0  0  0  0  0  0  0
   10.4026   22.0423   -0.7032 C   0  0  0  0  0  0  0  0  0  0  0  0
    9.0235   21.9800   -0.7082 O   0  0  0  0  0  0  0  0  0  0  0  0
   11.0102   21.5968   -1.7045 O   0  0  0  0  0  0  0  0  0  0  0  0
    8.4642   21.3076   -1.1855 H   0  0  0  0  0  0  0  0  0  0  0  0
   10.4429   23.7706    0.9950 C   0  0  0  0  0  0  0  0  0  0  0  0
    9.9570   23.5698    2.3763 C   0  0  0  0  0  0  0  0  0  0  0  0
    9.8529   22.4025    3.1226 C   0  0  0  0  0  0  0  0  0  0  0  0
    9.3449   22.7027    4.3286 N   0  0  0  0  0  0  0  0  0  0  0  0
    9.1004   24.0154    4.4348 C   0  0  0  0  0  0  0  0  0  0  0  0
    8.5942   24.8367    5.4243 C   0  0  0  0  0  0  0  0  0  0  0  0
    8.4721   26.1909    5.1934 C   0  0  0  0  0  0  0  0  0  0  0  0
    8.8415   26.7496    4.0010 C   0  0  0  0  0  0  0  0  0  0  0  0
    9.3459   25.9131    3.0223 C   0  0  0  0  0  0  0  0  0  0  0  0
    9.4771   24.5661    3.2265 C   0  0  0  0  0  0  0  0  0  0  0  0
    9.1518   22.0216    5.1094 H   0  0  0  0  0  0  0  0  0  0  0  0
  7  8  1  0  0  0
  8  9  1  0  0  0
  8  6  1  0  0  0
  6  5  1  0  0  0
  5 10  1  0  0  0
 10 11  1  0  0  0
 11 12  2  0  0  0
 11 13  1  0  0  0
 13 14  1  0  0  0
  5  1  1  0  0  0
  1  2  2  0  0  0
  1  3  1  0  0  0
  3 17  1  0  0  0
 17 22  1  0  0  0
 22 23  1  0  0  0
 23 24  2  0  0  0
 24 25  1  0  0  0
 25 26  1  0  0  0
 26 27  2  0  0  0
 27 28  1  0  0  0
 28 29  2  0  0  0
 29 30  1  0  0  0
 30 31  2  0  0  0
 17 18  1  0  0  0
 18 19  1  0  0  0
 18 20  2  0  0  0
 31 23  1  0  0  0
 31 26  1  0  0  0
 13 15  1  0  0  0
 14 16  1  0  0  0
  3  4  1  0  0  0
 25 32  1  0  0  0
 19 21  1  0  0  0
M  END
> <minimizedAffinity>
-7.57573

> <CNNscore>
0.2166142613

> <CNNaffinity>
6.4146804810

> <CNN_VS>
1.3895112276

> <CNNaffinity_variance>
0.3225246966

$$$$
[H]OC(=O)[C@@]([H])(N([H])C(=O)[C@@]([H])(C([H])([H])C(=O)N([H])O[H])C([H])([H])C([H])(C([H])([H])[H])C([H])([H])[H])C([H])([H])c1c([H])n([H])c2c([H])c([H])c([H])c([H])c12


 32 33  0  0  0  0  0  0  0  0999 V2000
   13.6490   24.1088   -1.3600 C   0  0  0  0  0  0  0  0  0  0  0  0
   12.9118   24.7097   -0.5643 O   0  0  0  0  0  0  0  0  0  0  0  0
   14.1214   22.8092   -1.0444 N   0  0  0  0  0  0  0  0  0  0  0  0
   14.7374   22.2893   -1.6933 H   0  0  0  0  0  0  0  0  0  0  0  0
   14.0809   24.6880   -2.6744 C   0  0  0  0  0  0  0  0  0  0  0  0
   15.5546   24.6895   -2.8558 C   0  0  0  0  0  0  0  0  0  0  0  0
   17.0265   24.9636   -0.9366 C   0  0  0  0  0  0  0  0  0  0  0  0
   16.1832   25.7200   -1.9499 C   0  0  0  0  0  0  0  0  0  0  0  0
   17.0474   26.6842   -2.7499 C   0  0  0  0  0  0  0  0  0  0  0  0
   13.4764   26.0803   -2.7522 C   0  0  0  0  0  0  0  0  0  0  0  0
   13.3543   26.6325   -4.0958 C   0  0  0  0  0  0  0  0  0  0  0  0
   12.3872   27.3407   -4.4674 O   0  0  0  0  0  0  0  0  0  0  0  0
   14.3804   26.3645   -5.0566 N   0  0  0  0  0  0  0  0  0  0  0  0
   14.2574   26.8779   -6.2899 O   0  0  0  0  0  0  0  0  0  0  0  0
   15.1934   25.7817   -4.7795 H   0  0  0  0  0  0  0  0  0  0  0  0
   15.0801   27.4055   -6.4692 H   0  0  0  0  0  0  0  0  0  0  0  0
   13.7606   22.1378    0.2176 C   0  0  0  0  0  0  0  0  0  0  0  0
   14.9409   21.4114    0.7227 C   0  0  0  0  0  0  0  0  0  0  0  0
   15.1011   20.0455    0.6020 O   0  0  0  0  0  0  0  0  0  0  0  0
   15.8505   22.0571    1.2934 O   0  0  0  0  0  0  0  0  0  0  0  0
   15.6158   19.4544    1.2172 H   0  0  0  0  0  0  0  0  0  0  0  0
   12.6767   21.1483   -0.0999 C   0  0  0  0  0  0  0  0  0  0  0  0
   11.3866   21.4081    0.5727 C   0  0  0  0  0  0  0  0  0  0  0  0
   10.2204   21.9747    0.0734 C   0  0  0  0  0  0  0  0  0  0  0  0
    9.3057   22.0207    1.0552 N   0  0  0  0  0  0  0  0  0  0  0  0
    9.7957   21.5129    2.1937 C   0  0  0  0  0  0  0  0  0  0  0  0
    9.3001   21.3219    3.4696 C   0  0  0  0  0  0  0  0  0  0  0  0
   10.1014   20.7515    4.4365 C   0  0  0  0  0  0  0  0  0  0  0  0
   11.3853   20.3658    4.1657 C   0  0  0  0  0  0  0  0  0  0  0  0
   11.8646   20.5644    2.8839 C   0  0  0  0  0  0  0  0  0  0  0  0
   11.0898   21.1282    1.9067 C   0  0  0  0  0  0  0  0  0  0  0  0
    8.3253   22.3988    0.9748 H   0  0  0  0  0  0  0  0  0  0  0  0
  7  8  1  0  0  0
  8  9  1  0  0  0
  8  6  1  0  0  0
  6  5  1  0  0  0
  5 10  1  0  0  0
 10 11  1  0  0  0
 11 12  2  0  0  0
 11 13  1  0  0  0
 13 14  1  0  0  0
  5  1  1  0  0  0
  1  2  2  0  0  0
  1  3  1  0  0  0
  3 17  1  0  0  0
 17 22  1  0  0  0
 22 23  1  0  0  0
 23 24  2  0  0  0
 24 25  1  0  0  0
 25 26  1  0  0  0
 26 27  2  0  0  0
 27 28  1  0  0  0
 28 29  2  0  0  0
 29 30  1  0  0  0
 30 31  2  0  0  0
 17 18  1  0  0  0
 18 19  1  0  0  0
 18 20  2  0  0  0
 31 23  1  0  0  0
 31 26  1  0  0  0
 13 15  1  0  0  0
 14 16  1  0  0  0
  3  4  1  0  0  0
 25 32  1  0  0  0
 19 21  1  0  0  0
M  END
> <minimizedAffinity>
-7.58634

> <CNNscore>
0.1875914782

> <CNNaffinity>
6.7614526749

> <CNN_VS>
1.2683908939

> <CNNaffinity_variance>
0.4456709027

$$$$
[H]OC(=O)[C@@]([H])(N([H])C(=O)[C@@]([H])(C([H])([H])C(=O)N([H])O[H])C([H])([H])C([H])(C([H])([H])[H])C([H])([H])[H])C([H])([H])c1c([H])n([H])c2c([H])c([H])c([H])c([H])c12


 32 33  0  0  0  0  0  0  0  0999 V2000
   12.5495   21.9850    1.3379 C   0  0  0  0  0  0  0  0  0  0  0  0
   13.2567   21.0188    1.6600 O   0  0  0  0  0  0  0  0  0  0  0  0
   13.0729   22.9940    0.4895 N   0  0  0  0  0  0  0  0  0  0  0  0
   12.5009   23.8091    0.2079 H   0  0  0  0  0  0  0  0  0  0  0  0
   11.1332   22.1546    1.8015 C   0  0  0  0  0  0  0  0  0  0  0  0
   10.5551   23.4742    1.4418 C   0  0  0  0  0  0  0  0  0  0  0  0
    9.1540   21.8276    0.3233 C   0  0  0  0  0  0  0  0  0  0  0  0
    9.2244   23.2830    0.7556 C   0  0  0  0  0  0  0  0  0  0  0  0
    8.0788   23.6150    1.7010 C   0  0  0  0  0  0  0  0  0  0  0  0
   11.1362   21.9017    3.3001 C   0  0  0  0  0  0  0  0  0  0  0  0
   10.3300   20.7707    3.7429 C   0  0  0  0  0  0  0  0  0  0  0  0
   10.7794   19.6048    3.8604 O   0  0  0  0  0  0  0  0  0  0  0  0
    8.9516   20.9797    4.0653 N   0  0  0  0  0  0  0  0  0  0  0  0
    8.2194   19.9316    4.4717 O   0  0  0  0  0  0  0  0  0  0  0  0
    8.5504   21.9331    3.9780 H   0  0  0  0  0  0  0  0  0  0  0  0
    7.8273   20.1740    5.3519 H   0  0  0  0  0  0  0  0  0  0  0  0
   14.4511   22.9325   -0.0305 C   0  0  0  0  0  0  0  0  0  0  0  0
   15.1805   24.1345    0.4157 C   0  0  0  0  0  0  0  0  0  0  0  0
   16.5145   24.3593    0.1403 O   0  0  0  0  0  0  0  0  0  0  0  0
   14.5680   25.0021    1.0807 O   0  0  0  0  0  0  0  0  0  0  0  0
   17.1512   24.8882    0.6949 H   0  0  0  0  0  0  0  0  0  0  0  0
   14.3612   22.9436   -1.5293 C   0  0  0  0  0  0  0  0  0  0  0  0
   13.7911   24.1798   -2.1049 C   0  0  0  0  0  0  0  0  0  0  0  0
   12.7245   24.9556   -1.6682 C   0  0  0  0  0  0  0  0  0  0  0  0
   12.5600   25.9834   -2.5164 N   0  0  0  0  0  0  0  0  0  0  0  0
   13.4628   25.9409   -3.5050 C   0  0  0  0  0  0  0  0  0  0  0  0
   13.7378   26.7248   -4.6094 C   0  0  0  0  0  0  0  0  0  0  0  0
   14.7760   26.3820   -5.4502 C   0  0  0  0  0  0  0  0  0  0  0  0
   15.5487   25.2775   -5.2196 C   0  0  0  0  0  0  0  0  0  0  0  0
   15.2594   24.5047   -4.1100 C   0  0  0  0  0  0  0  0  0  0  0  0
   14.2348   24.8232   -3.2603 C   0  0  0  0  0  0  0  0  0  0  0  0
   11.8291   26.7392   -2.4435 H   0  0  0  0  0  0  0  0  0  0  0  0
  7  8  1  0  0  0
  8  9  1  0  0  0
  8  6  1  0  0  0
  6  5  1  0  0  0
  5 10  1  0  0  0
 10 11  1  0  0  0
 11 12  2  0  0  0
 11 13  1  0  0  0
 13 14  1  0  0  0
  5  1  1  0  0  0
  1  2  2  0  0  0
  1  3  1  0  0  0
  3 17  1  0  0  0
 17 22  1  0  0  0
 22 23  1  0  0  0
 23 24  2  0  0  0
 24 25  1  0  0  0
 25 26  1  0  0  0
 26 27  2  0  0  0
 27 28  1  0  0  0
 28 29  2  0  0  0
 29 30  1  0  0  0
 30 31  2  0  0  0
 17 18  1  0  0  0
 18 19  1  0  0  0
 18 20  2  0  0  0
 31 23  1  0  0  0
 31 26  1  0  0  0
 13 15  1  0  0  0
 14 16  1  0  0  0
  3  4  1  0  0  0
 25 32  1  0  0  0
 19 21  1  0  0  0
M  END
> <minimizedAffinity>
-7.82861

> <CNNscore>
0.1753243506

> <CNNaffinity>
6.2893018723

> <CNN_VS>
1.1026678085

> <CNNaffinity_variance>
0.0685838982

$$$$
[H]OC(=O)[C@@]([H])(N([H])C(=O)[C@@]([H])(C([H])([H])C(=O)N([H])O[H])C([H])([H])C([H])(C([H])([H])[H])C([H])([H])[H])C([H])([H])c1c([H])n([H])c2c([H])c([H])c([H])c([H])c12


 32 33  0  0  0  0  0  0  0  0999 V2000
   13.8734   24.1258   -2.0847 C   0  0  0  0  0  0  0  0  0  0  0  0
   12.9103   24.8247   -1.7362 O   0  0  0  0  0  0  0  0  0  0  0  0
   14.2594   23.0096   -1.2992 N   0  0  0  0  0  0  0  0  0  0  0  0
   15.0598   22.4127   -1.5708 H   0  0  0  0  0  0  0  0  0  0  0  0
   14.6757   24.3949   -3.3230 C   0  0  0  0  0  0  0  0  0  0  0  0
   16.1232   24.5837   -3.0515 C   0  0  0  0  0  0  0  0  0  0  0  0
   17.0350   24.9798   -0.8296 C   0  0  0  0  0  0  0  0  0  0  0  0
   16.3142   25.6418   -1.9923 C   0  0  0  0  0  0  0  0  0  0  0  0
   17.1323   26.8049   -2.5350 C   0  0  0  0  0  0  0  0  0  0  0  0
   14.0405   25.6009   -3.9954 C   0  0  0  0  0  0  0  0  0  0  0  0
   14.8008   26.1703   -5.1012 C   0  0  0  0  0  0  0  0  0  0  0  0
   15.1742   25.5061   -6.0984 O   0  0  0  0  0  0  0  0  0  0  0  0
   15.1499   27.5576   -5.0671 N   0  0  0  0  0  0  0  0  0  0  0  0
   15.8497   28.0708   -6.0902 O   0  0  0  0  0  0  0  0  0  0  0  0
   14.8554   28.1337   -4.2553 H   0  0  0  0  0  0  0  0  0  0  0  0
   15.3296   28.8409   -6.4416 H   0  0  0  0  0  0  0  0  0  0  0  0
   13.5433   22.6463   -0.0627 C   0  0  0  0  0  0  0  0  0  0  0  0
   14.4538   21.8732    0.8029 C   0  0  0  0  0  0  0  0  0  0  0  0
   14.0593   20.7602    1.5181 O   0  0  0  0  0  0  0  0  0  0  0  0
   15.6487   22.2370    0.9026 O   0  0  0  0  0  0  0  0  0  0  0  0
   14.4516   20.4397    2.3760 H   0  0  0  0  0  0  0  0  0  0  0  0
   12.3873   21.7739   -0.4590 C   0  0  0  0  0  0  0  0  0  0  0  0
   11.1045   22.1150    0.1910 C   0  0  0  0  0  0  0  0  0  0  0  0
   10.8203   23.0828    1.1464 C   0  0  0  0  0  0  0  0  0  0  0  0
    9.5143   23.0204    1.4517 N   0  0  0  0  0  0  0  0  0  0  0  0
    8.9013   22.0583    0.7497 C   0  0  0  0  0  0  0  0  0  0  0  0
    7.6071   21.5794    0.6744 C   0  0  0  0  0  0  0  0  0  0  0  0
    7.3106   20.5413   -0.1838 C   0  0  0  0  0  0  0  0  0  0  0  0
    8.2705   19.9667   -0.9704 C   0  0  0  0  0  0  0  0  0  0  0  0
    9.5599   20.4583   -0.8822 C   0  0  0  0  0  0  0  0  0  0  0  0
    9.8800   21.4875   -0.0385 C   0  0  0  0  0  0  0  0  0  0  0  0
    9.0077   23.6310    2.1454 H   0  0  0  0  0  0  0  0  0  0  0  0
  7  8  1  0  0  0
  8  9  1  0  0  0
  8  6  1  0  0  0
  6  5  1  0  0  0
  5 10  1  0  0  0
 10 11  1  0  0  0
 11 12  2  0  0  0
 11 13  1  0  0  0
 13 14  1  0  0  0
  5  1  1  0  0  0
  1  2  2  0  0  0
  1  3  1  0  0  0
  3 17  1  0  0  0
 17 22  1  0  0  0
 22 23  1  0  0  0
 23 24  2  0  0  0
 24 25  1  0  0  0
 25 26  1  0  0  0
 26 27  2  0  0  0
 27 28  1  0  0  0
 28 29  2  0  0  0
 29 30  1  0  0  0
 30 31  2  0  0  0
 17 18  1  0  0  0
 18 19  1  0  0  0
 18 20  2  0  0  0
 31 23  1  0  0  0
 31 26  1  0  0  0
 13 15  1  0  0  0
 14 16  1  0  0  0
  3  4  1  0  0  0
 25 32  1  0  0  0
 19 21  1  0  0  0
M  END
> <minimizedAffinity>
-7.23013

> <CNNscore>
0.1704725325

> <CNNaffinity>
6.5780525208

> <CNN_VS>
1.1213772297

> <CNNaffinity_variance>
0.5712851286

$$$$
[H]OC(=O)[C@@]([H])(N([H])C(=O)[C@@]([H])(C([H])([H])C(=O)N([H])O[H])C([H])([H])C([H])(C([H])([H])[H])C([H])([H])[H])C([H])([H])c1c([H])n([H])c2c([H])c([H])c([H])c([H])c12


 32 33  0  0  0  0  0  0  0  0999 V2000
   13.7323   23.5984   -1.7739 C   0  0  0  0  0  0  0  0  0  0  0  0
   13.9680   22.4627   -2.2123 O   0  0  0  0  0  0  0  0  0  0  0  0
   12.7305   23.7826   -0.7868 N   0  0  0  0  0  0  0  0  0  0  0  0
   12.5170   24.7211   -0.4068 H   0  0  0  0  0  0  0  0  0  0  0  0
   14.4651   24.8232   -2.2349 C   0  0  0  0  0  0  0  0  0  0  0  0
   14.8105   24.7883   -3.6786 C   0  0  0  0  0  0  0  0  0  0  0  0
   14.9551   26.0419   -5.7601 C   0  0  0  0  0  0  0  0  0  0  0  0
   14.6983   26.1733   -4.2679 C   0  0  0  0  0  0  0  0  0  0  0  0
   13.3154   26.7559   -4.0135 C   0  0  0  0  0  0  0  0  0  0  0  0
   15.6863   24.9580   -1.3403 C   0  0  0  0  0  0  0  0  0  0  0  0
   15.5544   24.3699   -0.0129 C   0  0  0  0  0  0  0  0  0  0  0  0
   15.0424   24.9713    0.9624 O   0  0  0  0  0  0  0  0  0  0  0  0
   16.0277   23.0381    0.2107 N   0  0  0  0  0  0  0  0  0  0  0  0
   15.9011   22.5072    1.4362 O   0  0  0  0  0  0  0  0  0  0  0  0
   16.4564   22.5146   -0.5764 H   0  0  0  0  0  0  0  0  0  0  0  0
   15.4003   21.6551    1.3343 H   0  0  0  0  0  0  0  0  0  0  0  0
   11.9473   22.6520   -0.2560 C   0  0  0  0  0  0  0  0  0  0  0  0
   10.6790   22.5610   -1.0038 C   0  0  0  0  0  0  0  0  0  0  0  0
    9.5078   23.1625   -0.5887 O   0  0  0  0  0  0  0  0  0  0  0  0
   10.6516   21.9056   -2.0713 O   0  0  0  0  0  0  0  0  0  0  0  0
    8.5820   22.8495   -0.7827 H   0  0  0  0  0  0  0  0  0  0  0  0
   11.6454   22.9576    1.1828 C   0  0  0  0  0  0  0  0  0  0  0  0
   11.7268   21.7949    2.0916 C   0  0  0  0  0  0  0  0  0  0  0  0
   12.5817   20.7001    2.0622 C   0  0  0  0  0  0  0  0  0  0  0  0
   12.2794   19.8862    3.0864 N   0  0  0  0  0  0  0  0  0  0  0  0
   11.2623   20.3767    3.8070 C   0  0  0  0  0  0  0  0  0  0  0  0
   10.5715   19.9601    4.9292 C   0  0  0  0  0  0  0  0  0  0  0  0
    9.5423   20.7328    5.4250 C   0  0  0  0  0  0  0  0  0  0  0  0
    9.1823   21.9113    4.8317 C   0  0  0  0  0  0  0  0  0  0  0  0
    9.8843   22.3127    3.7100 C   0  0  0  0  0  0  0  0  0  0  0  0
   10.9095   21.5641    3.1983 C   0  0  0  0  0  0  0  0  0  0  0  0
   12.7576   18.9767    3.3204 H   0  0  0  0  0  0  0  0  0  0  0  0
  7  8  1  0  0  0
  8  9  1  0  0  0
  8  6  1  0  0  0
  6  5  1  0  0  0
  5 10  1  0  0  0
 10 11  1  0  0  0
 11 12  2  0  0  0
 11 13  1  0  0  0
 13 14  1  0  0  0
  5  1  1  0  0  0
  1  2  2  0  0  0
  1  3  1  0  0  0
  3 17  1  0  0  0
 17 22  1  0  0  0
 22 23  1  0  0  0
 23 24  2  0  0  0
 24 25  1  0  0  0
 25 26  1  0  0  0
 26 27  2  0  0  0
 27 28  1  0  0  0
 28 29  2  0  0  0
 29 30  1  0  0  0
 30 31  2  0  0  0
 17 18  1  0  0  0
 18 19  1  0  0  0
 18 20  2  0  0  0
 31 23  1  0  0  0
 31 26  1  0  0  0
 13 15  1  0  0  0
 14 16  1  0  0  0
  3  4  1  0  0  0
 25 32  1  0  0  0
 19 21  1  0  0  0
M  END
> <minimizedAffinity>
-7.40370

> <CNNscore>
0.1633520275

> <CNNaffinity>
6.2053923607

> <CNN_VS>
1.0136634111

> <CNNaffinity_variance>
0.1193467602

$$$$
[H]OC(=O)[C@@]([H])(N([H])C(=O)[C@@]([H])(C([H])([H])C(=O)N([H])O[H])C([H])([H])C([H])(C([H])([H])[H])C([H])([H])[H])C([H])([H])c1c([H])n([H])c2c([H])c([H])c([H])c([H])c12


 32 33  0  0  0  0  0  0  0  0999 V2000
   11.5995   22.5165   -0.6002 C   0  0  0  0  0  0  0  0  0  0  0  0
   11.7790   21.8735   -1.6451 O   0  0  0  0  0  0  0  0  0  0  0  0
   12.6393   23.3301   -0.0819 N   0  0  0  0  0  0  0  0  0  0  0  0
   12.5117   23.8751    0.7884 H   0  0  0  0  0  0  0  0  0  0  0  0
   10.3120   22.4877    0.1688 C   0  0  0  0  0  0  0  0  0  0  0  0
    9.9384   23.8100    0.7316 C   0  0  0  0  0  0  0  0  0  0  0  0
    9.6015   24.8706    2.8966 C   0  0  0  0  0  0  0  0  0  0  0  0
    9.2841   23.6288    2.0796 C   0  0  0  0  0  0  0  0  0  0  0  0
    7.7791   23.4594    1.9289 C   0  0  0  0  0  0  0  0  0  0  0  0
   10.4703   21.4169    1.2357 C   0  0  0  0  0  0  0  0  0  0  0  0
   11.7919   21.3351    1.8455 C   0  0  0  0  0  0  0  0  0  0  0  0
   12.0945   21.9083    2.9201 O   0  0  0  0  0  0  0  0  0  0  0  0
   12.8118   20.5661    1.2005 N   0  0  0  0  0  0  0  0  0  0  0  0
   14.0242   20.4979    1.7708 O   0  0  0  0  0  0  0  0  0  0  0  0
   12.5922   20.0802    0.3099 H   0  0  0  0  0  0  0  0  0  0  0  0
   14.2341   19.5347    1.8946 H   0  0  0  0  0  0  0  0  0  0  0  0
   13.9472   23.4389   -0.7535 C   0  0  0  0  0  0  0  0  0  0  0  0
   14.9829   23.6983    0.2643 C   0  0  0  0  0  0  0  0  0  0  0  0
   15.5893   24.9267    0.4350 O   0  0  0  0  0  0  0  0  0  0  0  0
   15.3392   22.7623    1.0174 O   0  0  0  0  0  0  0  0  0  0  0  0
   16.5093   25.0883    0.7817 H   0  0  0  0  0  0  0  0  0  0  0  0
   13.8718   24.6144   -1.6846 C   0  0  0  0  0  0  0  0  0  0  0  0
   14.5375   24.4133   -2.9888 C   0  0  0  0  0  0  0  0  0  0  0  0
   15.2189   23.3063   -3.4792 C   0  0  0  0  0  0  0  0  0  0  0  0
   15.6671   23.5847   -4.7138 N   0  0  0  0  0  0  0  0  0  0  0  0
   15.3222   24.8254   -5.0826 C   0  0  0  0  0  0  0  0  0  0  0  0
   15.5181   25.5975   -6.2119 C   0  0  0  0  0  0  0  0  0  0  0  0
   15.0106   26.8790   -6.2610 C   0  0  0  0  0  0  0  0  0  0  0  0
   14.3121   27.4127   -5.2133 C   0  0  0  0  0  0  0  0  0  0  0  0
   14.1256   26.6261   -4.0915 C   0  0  0  0  0  0  0  0  0  0  0  0
   14.6189   25.3515   -4.0179 C   0  0  0  0  0  0  0  0  0  0  0  0
   16.2188   22.9374   -5.3361 H   0  0  0  0  0  0  0  0  0  0  0  0
  7  8  1  0  0  0
  8  9  1  0  0  0
  8  6  1  0  0  0
  6  5  1  0  0  0
  5 10  1  0  0  0
 10 11  1  0  0  0
 11 12  2  0  0  0
 11 13  1  0  0  0
 13 14  1  0  0  0
  5  1  1  0  0  0
  1  2  2  0  0  0
  1  3  1  0  0  0
  3 17  1  0  0  0
 17 22  1  0  0  0
 22 23  1  0  0  0
 23 24  2  0  0  0
 24 25  1  0  0  0
 25 26  1  0  0  0
 26 27  2  0  0  0
 27 28  1  0  0  0
 28 29  2  0  0  0
 29 30  1  0  0  0
 30 31  2  0  0  0
 17 18  1  0  0  0
 18 19  1  0  0  0
 18 20  2  0  0  0
 31 23  1  0  0  0
 31 26  1  0  0  0
 13 15  1  0  0  0
 14 16  1  0  0  0
  3  4  1  0  0  0
 25 32  1  0  0  0
 19 21  1  0  0  0
M  END
> <minimizedAffinity>
-7.76613

> <CNNscore>
0.1631021947

> <CNNaffinity>
6.5539817810

> <CNN_VS>
1.0689687729

> <CNNaffinity_variance>
0.5290537477

$$$$
[H]c1c([H])c(C(=O)N([H])c2nc3c([H])nc(-c4oc5c(C([H])([H])N6C([H])([H])C([H])([H])C([H])([H])C6([H])[H])c([H])c(F)c([H])c5c4[H])nc3s2)c([H])c(C(C([H])([H])[H])(C([H])([H])[H])C([H])([H])[H])c1[H]


 39 44  0  0  0  0  0  0  0  0999 V2000
   11.8341   22.3590    0.2531 C   0  0  0  0  0  0  0  0  0  0  0  0
   12.3989   23.5745    0.3532 N   0  0  0  0  0  0  0  0  0  0  0  0
   13.7182   23.7584    0.0068 C   0  0  0  0  0  0  0  0  0  0  0  0
   14.5138   22.7481   -0.4417 C   0  0  0  0  0  0  0  0  0  0  0  0
   13.8947   21.4782   -0.5359 C   0  0  0  0  0  0  0  0  0  0  0  0
   12.6188   21.3806   -0.1873 N   0  0  0  0  0  0  0  0  0  0  0  0
   15.7294   23.0495   -0.7659 N   0  0  0  0  0  0  0  0  0  0  0  0
   16.2179   24.2464   -0.6862 C   0  0  0  0  0  0  0  0  0  0  0  0
   14.7910   25.0845   -0.0729 S   0  0  0  0  0  0  0  0  0  0  0  0
    9.4061   22.0776   -0.3251 C   0  0  0  0  0  0  0  0  0  0  0  0
   10.4566   22.0594    0.6086 C   0  0  0  0  0  0  0  0  0  0  0  0
    9.8983   21.7318    1.7476 O   0  0  0  0  0  0  0  0  0  0  0  0
    8.6000   21.5373    1.6322 C   0  0  0  0  0  0  0  0  0  0  0  0
    7.6106   21.1726    2.5689 C   0  0  0  0  0  0  0  0  0  0  0  0
    6.3266   21.0407    2.1507 C   0  0  0  0  0  0  0  0  0  0  0  0
    5.9848   21.2556    0.8331 C   0  0  0  0  0  0  0  0  0  0  0  0
    4.6691   21.1067    0.4581 F   0  0  0  0  0  0  0  0  0  0  0  0
    6.9277   21.6120   -0.0992 C   0  0  0  0  0  0  0  0  0  0  0  0
    8.2321   21.7434    0.3424 C   0  0  0  0  0  0  0  0  0  0  0  0
    8.0766   21.0590    3.9508 C   0  0  0  0  0  0  0  0  0  0  0  0
    7.3824   21.2604    5.0770 N   0  0  0  0  0  0  0  0  0  0  0  0
    5.9434   20.8328    4.9737 C   0  0  0  0  0  0  0  0  0  0  0  0
    5.9864   19.5202    5.7614 C   0  0  0  0  0  0  0  0  0  0  0  0
    7.0096   19.8029    6.8620 C   0  0  0  0  0  0  0  0  0  0  0  0
    7.6381   21.1531    6.4319 C   0  0  0  0  0  0  0  0  0  0  0  0
   17.4527   24.8392   -0.9755 N   0  0  0  0  0  0  0  0  0  0  0  0
   17.8229   25.8354   -1.8433 C   0  0  0  0  0  0  0  0  0  0  0  0
   19.1009   26.1523   -1.8355 O   0  0  0  0  0  0  0  0  0  0  0  0
   18.2827   24.4306   -0.3932 H   0  0  0  0  0  0  0  0  0  0  0  0
   17.0984   26.6329   -2.7947 C   0  0  0  0  0  0  0  0  0  0  0  0
   15.7743   26.2636   -3.1259 C   0  0  0  0  0  0  0  0  0  0  0  0
   15.0026   26.9386   -4.0211 C   0  0  0  0  0  0  0  0  0  0  0  0
   15.5555   28.0463   -4.6326 C   0  0  0  0  0  0  0  0  0  0  0  0
   16.8349   28.4389   -4.3427 C   0  0  0  0  0  0  0  0  0  0  0  0
   17.6188   27.7284   -3.4179 C   0  0  0  0  0  0  0  0  0  0  0  0
   13.6680   26.4848   -4.4148 C   0  0  0  0  0  0  0  0  0  0  0  0
   13.5294   25.0433   -3.9234 C   0  0  0  0  0  0  0  0  0  0  0  0
   13.5030   26.5222   -5.9210 C   0  0  0  0  0  0  0  0  0  0  0  0
   12.6015   27.2946   -3.7582 C   0  0  0  0  0  0  0  0  0  0  0  0
 10 11  2  0  0  0
 11  1  1  0  0  0
  1  2  2  0  0  0
  2  3  1  0  0  0
  3  4  2  0  0  0
  4  5  1  0  0  0
  5  6  2  0  0  0
  4  7  1  0  0  0
  7  8  2  0  0  0
  8 26  1  0  0  0
 26 27  1  0  0  0
 27 28  2  0  0  0
 27 30  1  0  0  0
 30 31  2  0  0  0
 31 32  1  0  0  0
 32 36  1  0  0  0
 36 37  1  0  0  0
 36 38  1  0  0  0
 36 39  1  0  0  0
 32 33  2  0  0  0
 33 34  1  0  0  0
 34 35  2  0  0  0
  8  9  1  0  0  0
 11 12  1  0  0  0
 12 13  1  0  0  0
 13 14  2  0  0  0
 14 15  1  0  0  0
 15 16  2  0  0  0
 16 17  1  0  0  0
 16 18  1  0  0  0
 18 19  2  0  0  0
 14 20  1  0  0  0
 20 21  1  0  0  0
 21 22  1  0  0  0
 22 23  1  0  0  0
 23 24  1  0  0  0
 24 25  1  0  0  0
 19 10  1  0  0  0
 25 21  1  0  0  0
  6  1  1  0  0  0
 35 30  1  0  0  0
 19 13  1  0  0  0
  9  3  1  0  0  0
 26 29  1  0  0  0
M  END
> <minimizedAffinity>
1.39358

> <CNNscore>
0.4244151115

> <CNNaffinity>
7.5670557022

> <CNN_VS>
3.2115728855

> <CNNaffinity_variance>
1.0391962528

$$$$
[H]c1c([H])c(C(=O)N([H])c2nc3c([H])nc(-c4oc5c(C([H])([H])N6C([H])([H])C([H])([H])C([H])([H])C6([H])[H])c([H])c(F)c([H])c5c4[H])nc3s2)c([H])c(C(C([H])([H])[H])(C([H])([H])[H])C([H])([H])[H])c1[H]


 39 44  0  0  0  0  0  0  0  0999 V2000
    9.9010   21.9320    1.1153 C   0  0  0  0  0  0  0  0  0  0  0  0
    9.3910   22.9315    0.3754 N   0  0  0  0  0  0  0  0  0  0  0  0
   10.1712   23.5706   -0.5612 C   0  0  0  0  0  0  0  0  0  0  0  0
   11.4737   23.2435   -0.7877 C   0  0  0  0  0  0  0  0  0  0  0  0
   11.9862   22.1891    0.0062 C   0  0  0  0  0  0  0  0  0  0  0  0
   11.1723   21.6196    0.8851 N   0  0  0  0  0  0  0  0  0  0  0  0
   12.0963   23.8950   -1.7158 N   0  0  0  0  0  0  0  0  0  0  0  0
   11.5492   24.8276   -2.4289 C   0  0  0  0  0  0  0  0  0  0  0  0
    9.9350   24.8063   -1.7159 S   0  0  0  0  0  0  0  0  0  0  0  0
    9.7855   20.6311    3.2608 C   0  0  0  0  0  0  0  0  0  0  0  0
    9.1653   21.2071    2.1386 C   0  0  0  0  0  0  0  0  0  0  0  0
    7.8910   20.9343    2.2724 O   0  0  0  0  0  0  0  0  0  0  0  0
    7.6378   20.2457    3.3671 C   0  0  0  0  0  0  0  0  0  0  0  0
    6.4379   19.7455    3.9144 C   0  0  0  0  0  0  0  0  0  0  0  0
    6.4849   19.0601    5.0844 C   0  0  0  0  0  0  0  0  0  0  0  0
    7.6810   18.8521    5.7363 C   0  0  0  0  0  0  0  0  0  0  0  0
    7.6757   18.1528    6.9216 F   0  0  0  0  0  0  0  0  0  0  0  0
    8.8636   19.3274    5.2256 C   0  0  0  0  0  0  0  0  0  0  0  0
    8.7997   20.0235    4.0319 C   0  0  0  0  0  0  0  0  0  0  0  0
    5.2472   19.9507    3.0898 C   0  0  0  0  0  0  0  0  0  0  0  0
    4.8399   19.2375    2.0334 N   0  0  0  0  0  0  0  0  0  0  0  0
    4.2505   20.0822    0.9363 C   0  0  0  0  0  0  0  0  0  0  0  0
    5.4063   20.0788   -0.0683 C   0  0  0  0  0  0  0  0  0  0  0  0
    6.0062   18.6811    0.0892 C   0  0  0  0  0  0  0  0  0  0  0  0
    5.2987   18.1252    1.3515 C   0  0  0  0  0  0  0  0  0  0  0  0
   11.9699   25.6579   -3.4745 N   0  0  0  0  0  0  0  0  0  0  0  0
   13.1965   26.1680   -3.8180 C   0  0  0  0  0  0  0  0  0  0  0  0
   13.2196   26.9166   -4.9009 O   0  0  0  0  0  0  0  0  0  0  0  0
   11.1640   25.9542   -4.1510 H   0  0  0  0  0  0  0  0  0  0  0  0
   14.5054   26.0650   -3.2328 C   0  0  0  0  0  0  0  0  0  0  0  0
   15.5101   26.9699   -3.6463 C   0  0  0  0  0  0  0  0  0  0  0  0
   16.7843   26.9550   -3.1680 C   0  0  0  0  0  0  0  0  0  0  0  0
   17.1005   25.9977   -2.2245 C   0  0  0  0  0  0  0  0  0  0  0  0
   16.1588   25.1004   -1.7964 C   0  0  0  0  0  0  0  0  0  0  0  0
   14.8484   25.1282   -2.3032 C   0  0  0  0  0  0  0  0  0  0  0  0
   17.8303   27.8430   -3.6772 C   0  0  0  0  0  0  0  0  0  0  0  0
   19.1662   27.2666   -3.2061 C   0  0  0  0  0  0  0  0  0  0  0  0
   17.6659   29.2469   -3.1302 C   0  0  0  0  0  0  0  0  0  0  0  0
   17.8453   27.8682   -5.1682 C   0  0  0  0  0  0  0  0  0  0  0  0
 10 11  2  0  0  0
 11  1  1  0  0  0
  1  2  2  0  0  0
  2  3  1  0  0  0
  3  4  2  0  0  0
  4  5  1  0  0  0
  5  6  2  0  0  0
  4  7  1  0  0  0
  7  8  2  0  0  0
  8 26  1  0  0  0
 26 27  1  0  0  0
 27 28  2  0  0  0
 27 30  1  0  0  0
 30 31  2  0  0  0
 31 32  1  0  0  0
 32 36  1  0  0  0
 36 37  1  0  0  0
 36 38  1  0  0  0
 36 39  1  0  0  0
 32 33  2  0  0  0
 33 34  1  0  0  0
 34 35  2  0  0  0
  8  9  1  0  0  0
 11 12  1  0  0  0
 12 13  1  0  0  0
 13 14  2  0  0  0
 14 15  1  0  0  0
 15 16  2  0  0  0
 16 17  1  0  0  0
 16 18  1  0  0  0
 18 19  2  0  0  0
 14 20  1  0  0  0
 20 21  1  0  0  0
 21 22  1  0  0  0
 22 23  1  0  0  0
 23 24  1  0  0  0
 24 25  1  0  0  0
 19 10  1  0  0  0
 25 21  1  0  0  0
  6  1  1  0  0  0
 35 30  1  0  0  0
 19 13  1  0  0  0
  9  3  1  0  0  0
 26 29  1  0  0  0
M  END
> <minimizedAffinity>
4.15584

> <CNNscore>
0.4094037414

> <CNNaffinity>
7.0808868408

> <CNN_VS>
2.8989415169

> <CNNaffinity_variance>
1.6976225376

$$$$
[H]c1c([H])c(C(=O)N([H])c2nc3c([H])nc(-c4oc5c(C([H])([H])N6C([H])([H])C([H])([H])C([H])([H])C6([H])[H])c([H])c(F)c([H])c5c4[H])nc3s2)c([H])c(C(C([H])([H])[H])(C([H])([H])[H])C([H])([H])[H])c1[H]


 39 44  0  0  0  0  0  0  0  0999 V2000
   10.2948   22.7120    0.8629 C   0  0  0  0  0  0  0  0  0  0  0  0
    9.8589   23.6756    0.0334 N   0  0  0  0  0  0  0  0  0  0  0  0
   10.7001   24.2068   -0.9176 C   0  0  0  0  0  0  0  0  0  0  0  0
   11.9923   23.8048   -1.0707 C   0  0  0  0  0  0  0  0  0  0  0  0
   12.4263   22.7904   -0.1834 C   0  0  0  0  0  0  0  0  0  0  0  0
   11.5567   22.3259    0.7038 N   0  0  0  0  0  0  0  0  0  0  0  0
   12.6766   24.3561   -2.0202 N   0  0  0  0  0  0  0  0  0  0  0  0
   12.1994   25.2567   -2.8193 C   0  0  0  0  0  0  0  0  0  0  0  0
   10.5628   25.3622   -2.1674 S   0  0  0  0  0  0  0  0  0  0  0  0
   10.0451   21.5750    3.0886 C   0  0  0  0  0  0  0  0  0  0  0  0
    9.4909   22.0999    1.9083 C   0  0  0  0  0  0  0  0  0  0  0  0
    8.2005   21.9016    2.0168 O   0  0  0  0  0  0  0  0  0  0  0  0
    7.8779   21.3065    3.1475 C   0  0  0  0  0  0  0  0  0  0  0  0
    6.6371   20.9075    3.6866 C   0  0  0  0  0  0  0  0  0  0  0  0
    6.6119   20.3058    4.9025 C   0  0  0  0  0  0  0  0  0  0  0  0
    7.7748   20.0851    5.6081 C   0  0  0  0  0  0  0  0  0  0  0  0
    7.6962   19.4733    6.8383 F   0  0  0  0  0  0  0  0  0  0  0  0
    8.9959   20.4627    5.1066 C   0  0  0  0  0  0  0  0  0  0  0  0
    9.0055   21.0742    3.8657 C   0  0  0  0  0  0  0  0  0  0  0  0
    5.4848   21.1128    2.8092 C   0  0  0  0  0  0  0  0  0  0  0  0
    4.9167   20.2374    1.9716 N   0  0  0  0  0  0  0  0  0  0  0  0
    5.1878   20.5381    0.5223 C   0  0  0  0  0  0  0  0  0  0  0  0
    6.2438   19.4737    0.2106 C   0  0  0  0  0  0  0  0  0  0  0  0
    5.8021   18.2801    1.0581 C   0  0  0  0  0  0  0  0  0  0  0  0
    4.6936   18.8725    1.9654 C   0  0  0  0  0  0  0  0  0  0  0  0
   12.6948   25.9866   -3.9064 N   0  0  0  0  0  0  0  0  0  0  0  0
   13.9565   26.4076   -4.2436 C   0  0  0  0  0  0  0  0  0  0  0  0
   14.0516   27.0735   -5.3755 O   0  0  0  0  0  0  0  0  0  0  0  0
   11.9264   26.2734   -4.6291 H   0  0  0  0  0  0  0  0  0  0  0  0
   15.2398   26.2813   -3.6086 C   0  0  0  0  0  0  0  0  0  0  0  0
   16.2494   27.2213   -3.9189 C   0  0  0  0  0  0  0  0  0  0  0  0
   17.5016   27.1893   -3.3865 C   0  0  0  0  0  0  0  0  0  0  0  0
   17.7892   26.1770   -2.4926 C   0  0  0  0  0  0  0  0  0  0  0  0
   16.8418   25.2443   -2.1645 C   0  0  0  0  0  0  0  0  0  0  0  0
   15.5545   25.2906   -2.7261 C   0  0  0  0  0  0  0  0  0  0  0  0
   18.5568   28.1191   -3.7914 C   0  0  0  0  0  0  0  0  0  0  0  0
   18.6984   27.9920   -5.3088 C   0  0  0  0  0  0  0  0  0  0  0  0
   19.8748   27.7673   -3.1308 C   0  0  0  0  0  0  0  0  0  0  0  0
   18.1862   29.5308   -3.4850 C   0  0  0  0  0  0  0  0  0  0  0  0
 10 11  2  0  0  0
 11  1  1  0  0  0
  1  2  2  0  0  0
  2  3  1  0  0  0
  3  4  2  0  0  0
  4  5  1  0  0  0
  5  6  2  0  0  0
  4  7  1  0  0  0
  7  8  2  0  0  0
  8 26  1  0  0  0
 26 27  1  0  0  0
 27 28  2  0  0  0
 27 30  1  0  0  0
 30 31  2  0  0  0
 31 32  1  0  0  0
 32 36  1  0  0  0
 36 37  1  0  0  0
 36 38  1  0  0  0
 36 39  1  0  0  0
 32 33  2  0  0  0
 33 34  1  0  0  0
 34 35  2  0  0  0
  8  9  1  0  0  0
 11 12  1  0  0  0
 12 13  1  0  0  0
 13 14  2  0  0  0
 14 15  1  0  0  0
 15 16  2  0  0  0
 16 17  1  0  0  0
 16 18  1  0  0  0
 18 19  2  0  0  0
 14 20  1  0  0  0
 20 21  1  0  0  0
 21 22  1  0  0  0
 22 23  1  0  0  0
 23 24  1  0  0  0
 24 25  1  0  0  0
 19 10  1  0  0  0
 25 21  1  0  0  0
  6  1  1  0  0  0
 35 30  1  0  0  0
 19 13  1  0  0  0
  9  3  1  0  0  0
 26 29  1  0  0  0
M  END
> <minimizedAffinity>
6.85291

> <CNNscore>
0.3987233341

> <CNNaffinity>
7.0728902817

> <CNN_VS>
2.8201262951

> <CNNaffinity_variance>
0.9842004776

$$$$
[H]c1c([H])c(C(=O)N([H])c2nc3c([H])nc(-c4oc5c(C([H])([H])N6C([H])([H])C([H])([H])C([H])([H])C6([H])[H])c([H])c(F)c([H])c5c4[H])nc3s2)c([H])c(C(C([H])([H])[H])(C([H])([H])[H])C([H])([H])[H])c1[H]


 39 44  0  0  0  0  0  0  0  0999 V2000
   10.2343   22.9686    0.2355 C   0  0  0  0  0  0  0  0  0  0  0  0
    9.8622   23.8296   -0.7271 N   0  0  0  0  0  0  0  0  0  0  0  0
   10.8087   24.4320   -1.5244 C   0  0  0  0  0  0  0  0  0  0  0  0
   12.1446   24.2043   -1.3889 C   0  0  0  0  0  0  0  0  0  0  0  0
   12.5092   23.2950   -0.3666 C   0  0  0  0  0  0  0  0  0  0  0  0
   11.5401   22.7522    0.3580 N   0  0  0  0  0  0  0  0  0  0  0  0
   12.9359   24.8052   -2.2173 N   0  0  0  0  0  0  0  0  0  0  0  0
   12.5254   25.5995   -3.1544 C   0  0  0  0  0  0  0  0  0  0  0  0
   10.7893   25.5068   -2.8512 S   0  0  0  0  0  0  0  0  0  0  0  0
    8.0559   21.8204    0.7306 C   0  0  0  0  0  0  0  0  0  0  0  0
    9.3148   22.2950    1.1379 C   0  0  0  0  0  0  0  0  0  0  0  0
    9.4034   21.9872    2.4083 O   0  0  0  0  0  0  0  0  0  0  0  0
    8.3299   21.3629    2.8492 C   0  0  0  0  0  0  0  0  0  0  0  0
    7.9883   20.8476    4.1169 C   0  0  0  0  0  0  0  0  0  0  0  0
    6.7865   20.2383    4.2765 C   0  0  0  0  0  0  0  0  0  0  0  0
    5.9073   20.1182    3.2222 C   0  0  0  0  0  0  0  0  0  0  0  0
    4.7016   19.4896    3.4344 F   0  0  0  0  0  0  0  0  0  0  0  0
    6.2141   20.6113    1.9780 C   0  0  0  0  0  0  0  0  0  0  0  0
    7.4425   21.2305    1.8311 C   0  0  0  0  0  0  0  0  0  0  0  0
    8.9609   21.1129    5.1768 C   0  0  0  0  0  0  0  0  0  0  0  0
    8.9578   22.1074    6.0722 N   0  0  0  0  0  0  0  0  0  0  0  0
    9.7900   23.2888    5.6526 C   0  0  0  0  0  0  0  0  0  0  0  0
    8.6905   24.2656    5.2261 C   0  0  0  0  0  0  0  0  0  0  0  0
    7.5553   23.9686    6.2065 C   0  0  0  0  0  0  0  0  0  0  0  0
    8.0244   22.6750    6.9202 C   0  0  0  0  0  0  0  0  0  0  0  0
   13.1395   26.3458   -4.1672 N   0  0  0  0  0  0  0  0  0  0  0  0
   14.4305   26.7721   -4.3526 C   0  0  0  0  0  0  0  0  0  0  0  0
   14.6522   27.4552   -5.4562 O   0  0  0  0  0  0  0  0  0  0  0  0
   12.4576   26.6435   -4.9679 H   0  0  0  0  0  0  0  0  0  0  0  0
   15.6338   26.6363   -3.5781 C   0  0  0  0  0  0  0  0  0  0  0  0
   16.7676   27.3996   -3.9405 C   0  0  0  0  0  0  0  0  0  0  0  0
   17.9594   27.3405   -3.2859 C   0  0  0  0  0  0  0  0  0  0  0  0
   18.0531   26.4837   -2.2071 C   0  0  0  0  0  0  0  0  0  0  0  0
   16.9803   25.7247   -1.8222 C   0  0  0  0  0  0  0  0  0  0  0  0
   15.7578   25.7959   -2.5114 C   0  0  0  0  0  0  0  0  0  0  0  0
   19.1450   28.0720   -3.7346 C   0  0  0  0  0  0  0  0  0  0  0  0
   19.6862   27.3280   -4.9562 C   0  0  0  0  0  0  0  0  0  0  0  0
   20.2061   28.1044   -2.6528 C   0  0  0  0  0  0  0  0  0  0  0  0
   18.8003   29.4588   -4.1615 C   0  0  0  0  0  0  0  0  0  0  0  0
 10 11  2  0  0  0
 11  1  1  0  0  0
  1  2  2  0  0  0
  2  3  1  0  0  0
  3  4  2  0  0  0
  4  5  1  0  0  0
  5  6  2  0  0  0
  4  7  1  0  0  0
  7  8  2  0  0  0
  8 26  1  0  0  0
 26 27  1  0  0  0
 27 28  2  0  0  0
 27 30  1  0  0  0
 30 31  2  0  0  0
 31 32  1  0  0  0
 32 36  1  0  0  0
 36 37  1  0  0  0
 36 38  1  0  0  0
 36 39  1  0  0  0
 32 33  2  0  0  0
 33 34  1  0  0  0
 34 35  2  0  0  0
  8  9  1  0  0  0
 11 12  1  0  0  0
 12 13  1  0  0  0
 13 14  2  0  0  0
 14 15  1  0  0  0
 15 16  2  0  0  0
 16 17  1  0  0  0
 16 18  1  0  0  0
 18 19  2  0  0  0
 14 20  1  0  0  0
 20 21  1  0  0  0
 21 22  1  0  0  0
 22 23  1  0  0  0
 23 24  1  0  0  0
 24 25  1  0  0  0
 19 10  1  0  0  0
 25 21  1  0  0  0
  6  1  1  0  0  0
 35 30  1  0  0  0
 19 13  1  0  0  0
  9  3  1  0  0  0
 26 29  1  0  0  0
M  END
> <minimizedAffinity>
10.30751

> <CNNscore>
0.3833088875

> <CNNaffinity>
6.8852376938

> <CNN_VS>
2.6391727924

> <CNNaffinity_variance>
0.3372792602

$$$$
[H]c1c([H])c(C(=O)N([H])c2nc3c([H])nc(-c4oc5c(C([H])([H])N6C([H])([H])C([H])([H])C([H])([H])C6([H])[H])c([H])c(F)c([H])c5c4[H])nc3s2)c([H])c(C(C([H])([H])[H])(C([H])([H])[H])C([H])([H])[H])c1[H]


 39 44  0  0  0  0  0  0  0  0999 V2000
   11.0592   21.6471    0.7469 C   0  0  0  0  0  0  0  0  0  0  0  0
   11.7029   22.8031    0.9832 N   0  0  0  0  0  0  0  0  0  0  0  0
   13.0677   22.8835    0.8242 C   0  0  0  0  0  0  0  0  0  0  0  0
   13.8313   21.8256    0.4333 C   0  0  0  0  0  0  0  0  0  0  0  0
   13.1286   20.6202    0.1929 C   0  0  0  0  0  0  0  0  0  0  0  0
   11.8134   20.6217    0.3643 N   0  0  0  0  0  0  0  0  0  0  0  0
   15.1003   22.0313    0.2887 N   0  0  0  0  0  0  0  0  0  0  0  0
   15.6700   23.1762    0.4937 C   0  0  0  0  0  0  0  0  0  0  0  0
   14.2466   24.1118    0.9554 S   0  0  0  0  0  0  0  0  0  0  0  0
    8.7319   21.4788   -0.1830 C   0  0  0  0  0  0  0  0  0  0  0  0
    9.6262   21.4564    0.9013 C   0  0  0  0  0  0  0  0  0  0  0  0
    8.8812   21.2379    1.9566 O   0  0  0  0  0  0  0  0  0  0  0  0
    7.6046   21.1165    1.6529 C   0  0  0  0  0  0  0  0  0  0  0  0
    6.4623   20.8746    2.4441 C   0  0  0  0  0  0  0  0  0  0  0  0
    5.2497   20.7951    1.8406 C   0  0  0  0  0  0  0  0  0  0  0  0
    5.1260   20.9451    0.4763 C   0  0  0  0  0  0  0  0  0  0  0  0
    3.8745   20.8534   -0.0886 F   0  0  0  0  0  0  0  0  0  0  0  0
    6.2211   21.1820   -0.3173 C   0  0  0  0  0  0  0  0  0  0  0  0
    7.4503   21.2612    0.3125 C   0  0  0  0  0  0  0  0  0  0  0  0
    6.7060   20.8219    3.8855 C   0  0  0  0  0  0  0  0  0  0  0  0
    7.5474   21.5690    4.6099 N   0  0  0  0  0  0  0  0  0  0  0  0
    7.0266   22.9534    4.8866 C   0  0  0  0  0  0  0  0  0  0  0  0
    6.6038   22.8036    6.3508 C   0  0  0  0  0  0  0  0  0  0  0  0
    7.6526   21.8504    6.9249 C   0  0  0  0  0  0  0  0  0  0  0  0
    8.4091   21.3479    5.6687 C   0  0  0  0  0  0  0  0  0  0  0  0
   16.9772   23.6688    0.4012 N   0  0  0  0  0  0  0  0  0  0  0  0
   17.5540   24.6249   -0.3962 C   0  0  0  0  0  0  0  0  0  0  0  0
   18.8361   24.8419   -0.1893 O   0  0  0  0  0  0  0  0  0  0  0  0
   17.6725   23.2028    1.1042 H   0  0  0  0  0  0  0  0  0  0  0  0
   17.0501   25.4669   -1.4466 C   0  0  0  0  0  0  0  0  0  0  0  0
   15.8260   25.1249   -2.0663 C   0  0  0  0  0  0  0  0  0  0  0  0
   15.2638   25.8428   -3.0768 C   0  0  0  0  0  0  0  0  0  0  0  0
   15.9364   26.9677   -3.5113 C   0  0  0  0  0  0  0  0  0  0  0  0
   17.1257   27.3351   -2.9404 C   0  0  0  0  0  0  0  0  0  0  0  0
   17.6934   26.5804   -1.8998 C   0  0  0  0  0  0  0  0  0  0  0  0
   14.0426   25.4191   -3.7633 C   0  0  0  0  0  0  0  0  0  0  0  0
   12.8683   25.8753   -2.8963 C   0  0  0  0  0  0  0  0  0  0  0  0
   14.0002   23.9119   -3.9172 C   0  0  0  0  0  0  0  0  0  0  0  0
   13.9093   26.0781   -5.0945 C   0  0  0  0  0  0  0  0  0  0  0  0
 10 11  2  0  0  0
 11  1  1  0  0  0
  1  2  2  0  0  0
  2  3  1  0  0  0
  3  4  2  0  0  0
  4  5  1  0  0  0
  5  6  2  0  0  0
  4  7  1  0  0  0
  7  8  2  0  0  0
  8 26  1  0  0  0
 26 27  1  0  0  0
 27 28  2  0  0  0
 27 30  1  0  0  0
 30 31  2  0  0  0
 31 32  1  0  0  0
 32 36  1  0  0  0
 36 37  1  0  0  0
 36 38  1  0  0  0
 36 39  1  0  0  0
 32 33  2  0  0  0
 33 34  1  0  0  0
 34 35  2  0  0  0
  8  9  1  0  0  0
 11 12  1  0  0  0
 12 13  1  0  0  0
 13 14  2  0  0  0
 14 15  1  0  0  0
 15 16  2  0  0  0
 16 17  1  0  0  0
 16 18  1  0  0  0
 18 19  2  0  0  0
 14 20  1  0  0  0
 20 21  1  0  0  0
 21 22  1  0  0  0
 22 23  1  0  0  0
 23 24  1  0  0  0
 24 25  1  0  0  0
 19 10  1  0  0  0
 25 21  1  0  0  0
  6  1  1  0  0  0
 35 30  1  0  0  0
 19 13  1  0  0  0
  9  3  1  0  0  0
 26 29  1  0  0  0
M  END
> <minimizedAffinity>
-0.95035

> <CNNscore>
0.3820604980

> <CNNaffinity>
7.5805101395

> <CNN_VS>
2.8962135315

> <CNNaffinity_variance>
0.4957240522

$$$$
[H]c1c([H])c(C(=O)N([H])c2nc3c([H])nc(-c4oc5c(C([H])([H])N6C([H])([H])C([H])([H])C([H])([H])C6([H])[H])c([H])c(F)c([H])c5c4[H])nc3s2)c([H])c(C(C([H])([H])[H])(C([H])([H])[H])C([H])([H])[H])c1[H]


 39 44  0  0  0  0  0  0  0  0999 V2000
   10.3411   20.8534   -0.4513 C   0  0  0  0  0  0  0  0  0  0  0  0
   10.8114   21.9348    0.1936 N   0  0  0  0  0  0  0  0  0  0  0  0
   12.1674   22.1268    0.3308 C   0  0  0  0  0  0  0  0  0  0  0  0
   13.0921   21.2556   -0.1600 C   0  0  0  0  0  0  0  0  0  0  0  0
   12.5698   20.1247   -0.8330 C   0  0  0  0  0  0  0  0  0  0  0  0
   11.2519   20.0107   -0.9278 N   0  0  0  0  0  0  0  0  0  0  0  0
   14.3389   21.5592    0.0040 N   0  0  0  0  0  0  0  0  0  0  0  0
   14.7434   22.6345    0.6020 C   0  0  0  0  0  0  0  0  0  0  0  0
   13.1728   23.3343    0.9994 S   0  0  0  0  0  0  0  0  0  0  0  0
    8.3741   20.2334   -1.8850 C   0  0  0  0  0  0  0  0  0  0  0  0
    8.9304   20.5529   -0.6343 C   0  0  0  0  0  0  0  0  0  0  0  0
    7.9296   20.5032    0.2097 O   0  0  0  0  0  0  0  0  0  0  0  0
    6.7942   20.1820   -0.3770 C   0  0  0  0  0  0  0  0  0  0  0  0
    5.4868   20.0077    0.1226 C   0  0  0  0  0  0  0  0  0  0  0  0
    4.4948   19.6654   -0.7375 C   0  0  0  0  0  0  0  0  0  0  0  0
    4.7510   19.4869   -2.0797 C   0  0  0  0  0  0  0  0  0  0  0  0
    3.7113   19.1375   -2.9109 F   0  0  0  0  0  0  0  0  0  0  0  0
    6.0140   19.6508   -2.5927 C   0  0  0  0  0  0  0  0  0  0  0  0
    7.0145   20.0005   -1.7036 C   0  0  0  0  0  0  0  0  0  0  0  0
    5.3205   20.3107    1.5440 C   0  0  0  0  0  0  0  0  0  0  0  0
    5.8297   19.6562    2.5943 N   0  0  0  0  0  0  0  0  0  0  0  0
    6.5466   20.5549    3.5653 C   0  0  0  0  0  0  0  0  0  0  0  0
    5.5065   20.6386    4.6862 C   0  0  0  0  0  0  0  0  0  0  0  0
    4.8731   19.2468    4.6840 C   0  0  0  0  0  0  0  0  0  0  0  0
    5.4316   18.5985    3.3914 C   0  0  0  0  0  0  0  0  0  0  0  0
   15.9890   23.2018    0.8960 N   0  0  0  0  0  0  0  0  0  0  0  0
   16.7258   24.1877    0.2895 C   0  0  0  0  0  0  0  0  0  0  0  0
   17.8725   24.4792    0.8671 O   0  0  0  0  0  0  0  0  0  0  0  0
   16.4651   22.7788    1.7844 H   0  0  0  0  0  0  0  0  0  0  0  0
   16.5158   24.9963   -0.8802 C   0  0  0  0  0  0  0  0  0  0  0  0
   15.2176   25.0670   -1.4360 C   0  0  0  0  0  0  0  0  0  0  0  0
   14.9090   25.7909   -2.5466 C   0  0  0  0  0  0  0  0  0  0  0  0
   15.9307   26.4928   -3.1549 C   0  0  0  0  0  0  0  0  0  0  0  0
   17.2035   26.4515   -2.6512 C   0  0  0  0  0  0  0  0  0  0  0  0
   17.5050   25.6965   -1.5051 C   0  0  0  0  0  0  0  0  0  0  0  0
   13.5782   25.7763   -3.1553 C   0  0  0  0  0  0  0  0  0  0  0  0
   13.1220   24.3169   -3.1835 C   0  0  0  0  0  0  0  0  0  0  0  0
   13.6210   26.3187   -4.5699 C   0  0  0  0  0  0  0  0  0  0  0  0
   12.5964   26.5449   -2.3371 C   0  0  0  0  0  0  0  0  0  0  0  0
 10 11  2  0  0  0
 11  1  1  0  0  0
  1  2  2  0  0  0
  2  3  1  0  0  0
  3  4  2  0  0  0
  4  5  1  0  0  0
  5  6  2  0  0  0
  4  7  1  0  0  0
  7  8  2  0  0  0
  8 26  1  0  0  0
 26 27  1  0  0  0
 27 28  2  0  0  0
 27 30  1  0  0  0
 30 31  2  0  0  0
 31 32  1  0  0  0
 32 36  1  0  0  0
 36 37  1  0  0  0
 36 38  1  0  0  0
 36 39  1  0  0  0
 32 33  2  0  0  0
 33 34  1  0  0  0
 34 35  2  0  0  0
  8  9  1  0  0  0
 11 12  1  0  0  0
 12 13  1  0  0  0
 13 14  2  0  0  0
 14 15  1  0  0  0
 15 16  2  0  0  0
 16 17  1  0  0  0
 16 18  1  0  0  0
 18 19  2  0  0  0
 14 20  1  0  0  0
 20 21  1  0  0  0
 21 22  1  0  0  0
 22 23  1  0  0  0
 23 24  1  0  0  0
 24 25  1  0  0  0
 19 10  1  0  0  0
 25 21  1  0  0  0
  6  1  1  0  0  0
 35 30  1  0  0  0
 19 13  1  0  0  0
  9  3  1  0  0  0
 26 29  1  0  0  0
M  END
> <minimizedAffinity>
-4.54515

> <CNNscore>
0.3170855641

> <CNNaffinity>
7.4230270386

> <CNN_VS>
2.3537347317

> <CNNaffinity_variance>
0.3246667981

$$$$
[H]c1c([H])c(C(=O)N([H])c2nc3c([H])nc(-c4oc5c(C([H])([H])N6C([H])([H])C([H])([H])C([H])([H])C6([H])[H])c([H])c(F)c([H])c5c4[H])nc3s2)c([H])c(C(C([H])([H])[H])(C([H])([H])[H])C([H])([H])[H])c1[H]


 39 44  0  0  0  0  0  0  0  0999 V2000
   10.2923   21.8930    2.0569 C   0  0  0  0  0  0  0  0  0  0  0  0
   10.9190   23.0743    1.9220 N   0  0  0  0  0  0  0  0  0  0  0  0
   12.1368   23.1460    1.2846 C   0  0  0  0  0  0  0  0  0  0  0  0
   12.7684   22.0549    0.7694 C   0  0  0  0  0  0  0  0  0  0  0  0
   12.0876   20.8234    0.9268 C   0  0  0  0  0  0  0  0  0  0  0  0
   10.9164   20.8349    1.5491 N   0  0  0  0  0  0  0  0  0  0  0  0
   13.8952   22.2518    0.1653 N   0  0  0  0  0  0  0  0  0  0  0  0
   14.4423   23.4178    0.0286 C   0  0  0  0  0  0  0  0  0  0  0  0
   13.2241   24.3908    0.8555 S   0  0  0  0  0  0  0  0  0  0  0  0
    8.0606   20.7676    2.3061 C   0  0  0  0  0  0  0  0  0  0  0  0
    9.0146   21.7106    2.7263 C   0  0  0  0  0  0  0  0  0  0  0  0
    8.4805   22.2990    3.7678 O   0  0  0  0  0  0  0  0  0  0  0  0
    7.2851   21.8240    4.0541 C   0  0  0  0  0  0  0  0  0  0  0  0
    6.3584   22.1418    5.0688 C   0  0  0  0  0  0  0  0  0  0  0  0
    5.1817   21.4680    5.1185 C   0  0  0  0  0  0  0  0  0  0  0  0
    4.8882   20.4857    4.1978 C   0  0  0  0  0  0  0  0  0  0  0  0
    3.6822   19.8294    4.2922 F   0  0  0  0  0  0  0  0  0  0  0  0
    5.7717   20.1568    3.1996 C   0  0  0  0  0  0  0  0  0  0  0  0
    6.9666   20.8529    3.1614 C   0  0  0  0  0  0  0  0  0  0  0  0
    6.7418   23.2596    5.9309 C   0  0  0  0  0  0  0  0  0  0  0  0
    6.6587   24.5699    5.6723 N   0  0  0  0  0  0  0  0  0  0  0  0
    7.8897   25.3355    6.0755 C   0  0  0  0  0  0  0  0  0  0  0  0
    8.5387   25.5590    4.7065 C   0  0  0  0  0  0  0  0  0  0  0  0
    7.3408   25.7464    3.7749 C   0  0  0  0  0  0  0  0  0  0  0  0
    6.1309   25.3489    4.6587 C   0  0  0  0  0  0  0  0  0  0  0  0
   15.6086   23.9062   -0.5723 N   0  0  0  0  0  0  0  0  0  0  0  0
   15.8231   24.7183   -1.6573 C   0  0  0  0  0  0  0  0  0  0  0  0
   17.0834   24.9868   -1.9280 O   0  0  0  0  0  0  0  0  0  0  0  0
   16.5270   23.5794   -0.0778 H   0  0  0  0  0  0  0  0  0  0  0  0
   14.9447   25.3581   -2.5981 C   0  0  0  0  0  0  0  0  0  0  0  0
   15.3957   25.5611   -3.9228 C   0  0  0  0  0  0  0  0  0  0  0  0
   14.6531   26.1659   -4.8899 C   0  0  0  0  0  0  0  0  0  0  0  0
   13.3885   26.6001   -4.5454 C   0  0  0  0  0  0  0  0  0  0  0  0
   12.9119   26.4254   -3.2735 C   0  0  0  0  0  0  0  0  0  0  0  0
   13.6934   25.8013   -2.2863 C   0  0  0  0  0  0  0  0  0  0  0  0
   15.1752   26.4458   -6.2282 C   0  0  0  0  0  0  0  0  0  0  0  0
   16.1151   27.6445   -6.0933 C   0  0  0  0  0  0  0  0  0  0  0  0
   14.0540   26.7897   -7.1885 C   0  0  0  0  0  0  0  0  0  0  0  0
   15.9713   25.2993   -6.7533 C   0  0  0  0  0  0  0  0  0  0  0  0
 10 11  2  0  0  0
 11  1  1  0  0  0
  1  2  2  0  0  0
  2  3  1  0  0  0
  3  4  2  0  0  0
  4  5  1  0  0  0
  5  6  2  0  0  0
  4  7  1  0  0  0
  7  8  2  0  0  0
  8 26  1  0  0  0
 26 27  1  0  0  0
 27 28  2  0  0  0
 27 30  1  0  0  0
 30 31  2  0  0  0
 31 32  1  0  0  0
 32 36  1  0  0  0
 36 37  1  0  0  0
 36 38  1  0  0  0
 36 39  1  0  0  0
 32 33  2  0  0  0
 33 34  1  0  0  0
 34 35  2  0  0  0
  8  9  1  0  0  0
 11 12  1  0  0  0
 12 13  1  0  0  0
 13 14  2  0  0  0
 14 15  1  0  0  0
 15 16  2  0  0  0
 16 17  1  0  0  0
 16 18  1  0  0  0
 18 19  2  0  0  0
 14 20  1  0  0  0
 20 21  1  0  0  0
 21 22  1  0  0  0
 22 23  1  0  0  0
 23 24  1  0  0  0
 24 25  1  0  0  0
 19 10  1  0  0  0
 25 21  1  0  0  0
  6  1  1  0  0  0
 35 30  1  0  0  0
 19 13  1  0  0  0
  9  3  1  0  0  0
 26 29  1  0  0  0
M  END
> <minimizedAffinity>
-6.73121

> <CNNscore>
0.1580816060

> <CNNaffinity>
7.2664556503

> <CNN_VS>
1.1486929655

> <CNNaffinity_variance>
0.2523625791

$$$$
[H]c1c([H])c(C(=O)N([H])c2nc3c([H])nc(-c4oc5c(C([H])([H])N6C([H])([H])C([H])([H])C([H])([H])C6([H])[H])c([H])c(F)c([H])c5c4[H])nc3s2)c([H])c(C(C([H])([H])[H])(C([H])([H])[H])C([H])([H])[H])c1[H]


 39 44  0  0  0  0  0  0  0  0999 V2000
   10.0057   21.8542    1.3741 C   0  0  0  0  0  0  0  0  0  0  0  0
   10.3839   23.1152    1.1034 N   0  0  0  0  0  0  0  0  0  0  0  0
   11.7124   23.4146    0.9041 C   0  0  0  0  0  0  0  0  0  0  0  0
   12.7004   22.4797    0.9716 C   0  0  0  0  0  0  0  0  0  0  0  0
   12.2750   21.1603    1.2599 C   0  0  0  0  0  0  0  0  0  0  0  0
   10.9775   20.9494    1.4359 N   0  0  0  0  0  0  0  0  0  0  0  0
   13.9091   22.8757    0.7353 N   0  0  0  0  0  0  0  0  0  0  0  0
   14.2195   24.0984    0.4418 C   0  0  0  0  0  0  0  0  0  0  0  0
   12.6065   24.8120    0.4995 S   0  0  0  0  0  0  0  0  0  0  0  0
    8.1431   21.1318    2.8966 C   0  0  0  0  0  0  0  0  0  0  0  0
    8.6331   21.4402    1.6157 C   0  0  0  0  0  0  0  0  0  0  0  0
    7.6158   21.2686    0.8082 O   0  0  0  0  0  0  0  0  0  0  0  0
    6.5283   20.8850    1.4460 C   0  0  0  0  0  0  0  0  0  0  0  0
    5.2228   20.5922    0.9996 C   0  0  0  0  0  0  0  0  0  0  0  0
    4.2868   20.2163    1.9071 C   0  0  0  0  0  0  0  0  0  0  0  0
    4.5966   20.1208    3.2464 C   0  0  0  0  0  0  0  0  0  0  0  0
    3.6115   19.7378    4.1278 F   0  0  0  0  0  0  0  0  0  0  0  0
    5.8594   20.3993    3.7080 C   0  0  0  0  0  0  0  0  0  0  0  0
    6.8029   20.7805    2.7708 C   0  0  0  0  0  0  0  0  0  0  0  0
    5.0375   20.6420   -0.4506 C   0  0  0  0  0  0  0  0  0  0  0  0
    5.2195   19.6605   -1.3418 N   0  0  0  0  0  0  0  0  0  0  0  0
    6.0767   20.0681   -2.5095 C   0  0  0  0  0  0  0  0  0  0  0  0
    7.3924   19.3754   -2.1433 C   0  0  0  0  0  0  0  0  0  0  0  0
    6.9340   18.0815   -1.4696 C   0  0  0  0  0  0  0  0  0  0  0  0
    5.4095   18.2919   -1.2845 C   0  0  0  0  0  0  0  0  0  0  0  0
   15.4038   24.7787    0.1343 N   0  0  0  0  0  0  0  0  0  0  0  0
   16.0436   25.0378   -1.0516 C   0  0  0  0  0  0  0  0  0  0  0  0
   17.1554   25.7371   -0.9583 O   0  0  0  0  0  0  0  0  0  0  0  0
   15.9161   25.1857    1.0099 H   0  0  0  0  0  0  0  0  0  0  0  0
   15.7598   24.6979   -2.4190 C   0  0  0  0  0  0  0  0  0  0  0  0
   15.7200   25.7307   -3.3840 C   0  0  0  0  0  0  0  0  0  0  0  0
   15.4494   25.5240   -4.7018 C   0  0  0  0  0  0  0  0  0  0  0  0
   15.2031   24.2271   -5.1069 C   0  0  0  0  0  0  0  0  0  0  0  0
   15.2301   23.1964   -4.2057 C   0  0  0  0  0  0  0  0  0  0  0  0
   15.5083   23.4283   -2.8479 C   0  0  0  0  0  0  0  0  0  0  0  0
   15.3245   26.6193   -5.6645 C   0  0  0  0  0  0  0  0  0  0  0  0
   13.8674   27.0814   -5.6203 C   0  0  0  0  0  0  0  0  0  0  0  0
   15.6633   26.1528   -7.0662 C   0  0  0  0  0  0  0  0  0  0  0  0
   16.1820   27.7788   -5.2848 C   0  0  0  0  0  0  0  0  0  0  0  0
 10 11  2  0  0  0
 11  1  1  0  0  0
  1  2  2  0  0  0
  2  3  1  0  0  0
  3  4  2  0  0  0
  4  5  1  0  0  0
  5  6  2  0  0  0
  4  7  1  0  0  0
  7  8  2  0  0  0
  8 26  1  0  0  0
 26 27  1  0  0  0
 27 28  2  0  0  0
 27 30  1  0  0  0
 30 31  2  0  0  0
 31 32  1  0  0  0
 32 36  1  0  0  0
 36 37  1  0  0  0
 36 38  1  0  0  0
 36 39  1  0  0  0
 32 33  2  0  0  0
 33 34  1  0  0  0
 34 35  2  0  0  0
  8  9  1  0  0  0
 11 12  1  0  0  0
 12 13  1  0  0  0
 13 14  2  0  0  0
 14 15  1  0  0  0
 15 16  2  0  0  0
 16 17  1  0  0  0
 16 18  1  0  0  0
 18 19  2  0  0  0
 14 20  1  0  0  0
 20 21  1  0  0  0
 21 22  1  0  0  0
 22 23  1  0  0  0
 23 24  1  0  0  0
 24 25  1  0  0  0
 19 10  1  0  0  0
 25 21  1  0  0  0
  6  1  1  0  0  0
 35 30  1  0  0  0
 19 13  1  0  0  0
  9  3  1  0  0  0
 26 29  1  0  0  0
M  END
> <minimizedAffinity>
-9.12308

> <CNNscore>
0.1529244334

> <CNNaffinity>
7.2604537010

> <CNN_VS>
1.1103007793

> <CNNaffinity_variance>
0.5298734307

$$$$
[H]c1c([H])c(C(=O)N([H])c2nc3c([H])nc(-c4oc5c(C([H])([H])N6C([H])([H])C([H])([H])C([H])([H])C6([H])[H])c([H])c(F)c([H])c5c4[H])nc3s2)c([H])c(C(C([H])([H])[H])(C([H])([H])[H])C([H])([H])[H])c1[H]


 39 44  0  0  0  0  0  0  0  0999 V2000
   14.0703   22.7410    0.1412 C   0  0  0  0  0  0  0  0  0  0  0  0
   13.1055   23.0590    1.0212 N   0  0  0  0  0  0  0  0  0  0  0  0
   12.5249   22.0829    1.7986 C   0  0  0  0  0  0  0  0  0  0  0  0
   12.8776   20.7696    1.7241 C   0  0  0  0  0  0  0  0  0  0  0  0
   13.8945   20.4618    0.7882 C   0  0  0  0  0  0  0  0  0  0  0  0
   14.4082   21.4570    0.0777 N   0  0  0  0  0  0  0  0  0  0  0  0
   12.2825   19.9489    2.5277 N   0  0  0  0  0  0  0  0  0  0  0  0
   11.3826   20.3105    3.3863 C   0  0  0  0  0  0  0  0  0  0  0  0
   11.3489   22.0398    3.0360 S   0  0  0  0  0  0  0  0  0  0  0  0
   15.7270   24.5801   -0.2856 C   0  0  0  0  0  0  0  0  0  0  0  0
   14.7325   23.6940   -0.7346 C   0  0  0  0  0  0  0  0  0  0  0  0
   14.5985   23.9473   -2.0130 O   0  0  0  0  0  0  0  0  0  0  0  0
   15.4086   24.9025   -2.4227 C   0  0  0  0  0  0  0  0  0  0  0  0
   15.6143   25.4913   -3.6878 C   0  0  0  0  0  0  0  0  0  0  0  0
   16.5403   26.4752   -3.8120 C   0  0  0  0  0  0  0  0  0  0  0  0
   17.2747   26.8983   -2.7254 C   0  0  0  0  0  0  0  0  0  0  0  0
   18.2038   27.8978   -2.9035 F   0  0  0  0  0  0  0  0  0  0  0  0
   17.0942   26.3430   -1.4827 C   0  0  0  0  0  0  0  0  0  0  0  0
   16.1462   25.3417   -1.3718 C   0  0  0  0  0  0  0  0  0  0  0  0
   14.7161   25.0231   -4.7431 C   0  0  0  0  0  0  0  0  0  0  0  0
   14.6968   25.3818   -6.0323 N   0  0  0  0  0  0  0  0  0  0  0  0
   14.0941   26.7411   -6.2631 C   0  0  0  0  0  0  0  0  0  0  0  0
   15.3591   27.5673   -6.5121 C   0  0  0  0  0  0  0  0  0  0  0  0
   16.2767   26.5929   -7.2515 C   0  0  0  0  0  0  0  0  0  0  0  0
   15.5440   25.2337   -7.1153 C   0  0  0  0  0  0  0  0  0  0  0  0
   10.6129   19.6579    4.3566 N   0  0  0  0  0  0  0  0  0  0  0  0
    9.3454   19.8745    4.8352 C   0  0  0  0  0  0  0  0  0  0  0  0
    8.9330   19.0312    5.7586 O   0  0  0  0  0  0  0  0  0  0  0  0
   11.1200   18.8077    4.8202 H   0  0  0  0  0  0  0  0  0  0  0  0
    8.3364   20.8558    4.5437 C   0  0  0  0  0  0  0  0  0  0  0  0
    8.3811   22.0996    5.2148 C   0  0  0  0  0  0  0  0  0  0  0  0
    7.4716   23.0943    5.0248 C   0  0  0  0  0  0  0  0  0  0  0  0
    6.4532   22.8636    4.1214 C   0  0  0  0  0  0  0  0  0  0  0  0
    6.3707   21.6728    3.4502 C   0  0  0  0  0  0  0  0  0  0  0  0
    7.3168   20.6554    3.6608 C   0  0  0  0  0  0  0  0  0  0  0  0
    7.4866   24.3373    5.7972 C   0  0  0  0  0  0  0  0  0  0  0  0
    7.8712   25.4550    4.8270 C   0  0  0  0  0  0  0  0  0  0  0  0
    8.5052   24.2694    6.9175 C   0  0  0  0  0  0  0  0  0  0  0  0
    6.1364   24.6543    6.3455 C   0  0  0  0  0  0  0  0  0  0  0  0
 10 11  2  0  0  0
 11  1  1  0  0  0
  1  2  2  0  0  0
  2  3  1  0  0  0
  3  4  2  0  0  0
  4  5  1  0  0  0
  5  6  2  0  0  0
  4  7  1  0  0  0
  7  8  2  0  0  0
  8 26  1  0  0  0
 26 27  1  0  0  0
 27 28  2  0  0  0
 27 30  1  0  0  0
 30 31  2  0  0  0
 31 32  1  0  0  0
 32 36  1  0  0  0
 36 37  1  0  0  0
 36 38  1  0  0  0
 36 39  1  0  0  0
 32 33  2  0  0  0
 33 34  1  0  0  0
 34 35  2  0  0  0
  8  9  1  0  0  0
 11 12  1  0  0  0
 12 13  1  0  0  0
 13 14  2  0  0  0
 14 15  1  0  0  0
 15 16  2  0  0  0
 16 17  1  0  0  0
 16 18  1  0  0  0
 18 19  2  0  0  0
 14 20  1  0  0  0
 20 21  1  0  0  0
 21 22  1  0  0  0
 22 23  1  0  0  0
 23 24  1  0  0  0
 24 25  1  0  0  0
 19 10  1  0  0  0
 25 21  1  0  0  0
  6  1  1  0  0  0
 35 30  1  0  0  0
 19 13  1  0  0  0
  9  3  1  0  0  0
 26 29  1  0  0  0
M  END
> <minimizedAffinity>
-5.20344

> <CNNscore>
0.1464807689

> <CNNaffinity>
7.2481474876

> <CNN_VS>
1.0617141724

> <CNNaffinity_variance>
0.1897756904

$$$$
[H]c1c(C([H])([H])[H])c(OC([H])([H])[H])c(C([H])([H])[H])c([H])c1C([H])([H])N([H])[C@@]1([H])OC(C([H])([H])[H])(C([H])([H])[H])[C@@]1([H])Sc1c(C([H])([H])[H])n([H])c2c([H])c([H])c([H])c([H])c12


 31 34  0  0  0  0  0  0  0  0999 V2000
   14.9538   22.2038   -0.0624 C   0  0  0  0  0  0  0  0  0  0  0  0
   15.2198   23.6262    0.3576 C   0  0  0  0  0  0  0  0  0  0  0  0
   16.5926   23.8636    0.9044 C   0  0  0  0  0  0  0  0  0  0  0  0
   14.6762   24.6939   -0.5256 C   0  0  0  0  0  0  0  0  0  0  0  0
   13.4000   24.4835    0.2493 C   0  0  0  0  0  0  0  0  0  0  0  0
   14.2497   24.0685    1.3149 O   0  0  0  0  0  0  0  0  0  0  0  0
   12.4934   23.5017   -0.2236 N   0  0  0  0  0  0  0  0  0  0  0  0
   12.6735   23.1591   -1.1861 H   0  0  0  0  0  0  0  0  0  0  0  0
   11.1397   23.8564    0.0430 C   0  0  0  0  0  0  0  0  0  0  0  0
   10.6810   23.5182    1.3996 C   0  0  0  0  0  0  0  0  0  0  0  0
    9.8830   24.3747    2.1442 C   0  0  0  0  0  0  0  0  0  0  0  0
    9.4727   24.0325    3.4152 C   0  0  0  0  0  0  0  0  0  0  0  0
    8.6221   24.9685    4.1831 C   0  0  0  0  0  0  0  0  0  0  0  0
    9.8830   22.8098    3.9209 C   0  0  0  0  0  0  0  0  0  0  0  0
   10.6746   21.9324    3.2143 C   0  0  0  0  0  0  0  0  0  0  0  0
   11.1014   20.6121    3.7963 C   0  0  0  0  0  0  0  0  0  0  0  0
   11.0669   22.3118    1.9393 C   0  0  0  0  0  0  0  0  0  0  0  0
    9.4597   22.4820    5.2040 O   0  0  0  0  0  0  0  0  0  0  0  0
    8.3698   21.5884    5.4250 C   0  0  0  0  0  0  0  0  0  0  0  0
   14.6994   24.4541   -2.2650 S   0  0  0  0  0  0  0  0  0  0  0  0
   14.8548   25.9501   -3.2109 C   0  0  0  0  0  0  0  0  0  0  0  0
   13.9657   26.6746   -3.9584 C   0  0  0  0  0  0  0  0  0  0  0  0
   12.5248   26.3883   -4.1337 C   0  0  0  0  0  0  0  0  0  0  0  0
   14.5870   27.7560   -4.5282 N   0  0  0  0  0  0  0  0  0  0  0  0
   15.8638   27.7472   -4.1632 C   0  0  0  0  0  0  0  0  0  0  0  0
   16.8916   28.6327   -4.4838 C   0  0  0  0  0  0  0  0  0  0  0  0
   18.1471   28.4017   -3.9722 C   0  0  0  0  0  0  0  0  0  0  0  0
   18.3528   27.3086   -3.1625 C   0  0  0  0  0  0  0  0  0  0  0  0
   17.3177   26.4422   -2.8569 C   0  0  0  0  0  0  0  0  0  0  0  0
   16.0674   26.6603   -3.3582 C   0  0  0  0  0  0  0  0  0  0  0  0
   14.1121   28.4531   -5.1421 H   0  0  0  0  0  0  0  0  0  0  0  0
  1  2  1  0  0  0
  2  3  1  0  0  0
  2  4  1  0  0  0
  4 20  1  0  0  0
 20 21  1  0  0  0
 21 22  2  0  0  0
 22 23  1  0  0  0
 22 24  1  0  0  0
 24 25  1  0  0  0
 25 26  2  0  0  0
 26 27  1  0  0  0
 27 28  2  0  0  0
 28 29  1  0  0  0
 29 30  2  0  0  0
  4  5  1  0  0  0
  5  7  1  0  0  0
  7  9  1  0  0  0
  9 10  1  0  0  0
 10 11  2  0  0  0
 11 12  1  0  0  0
 12 13  1  0  0  0
 12 14  2  0  0  0
 14 18  1  0  0  0
 18 19  1  0  0  0
 14 15  1  0  0  0
 15 16  1  0  0  0
 15 17  2  0  0  0
  5  6  1  0  0  0
  6  2  1  0  0  0
 30 21  1  0  0  0
 17 10  1  0  0  0
 30 25  1  0  0  0
 24 31  1  0  0  0
  7  8  1  0  0  0
M  END
> <minimizedAffinity>
-4.55603

> <CNNscore>
0.4289248288

> <CNNaffinity>
7.1456704140

> <CNN_VS>
3.0649554729

> <CNNaffinity_variance>
0.1399835646

$$$$
[H]c1c(C([H])([H])[H])c(OC([H])([H])[H])c(C([H])([H])[H])c([H])c1C([H])([H])N([H])[C@@]1([H])OC(C([H])([H])[H])(C([H])([H])[H])[C@@]1([H])Sc1c(C([H])([H])[H])n([H])c2c([H])c([H])c([H])c([H])c12


 31 34  0  0  0  0  0  0  0  0999 V2000
   15.7606   26.8632   -3.3271 C   0  0  0  0  0  0  0  0  0  0  0  0
   14.9943   26.1747   -4.4267 C   0  0  0  0  0  0  0  0  0  0  0  0
   15.4676   26.5007   -5.8086 C   0  0  0  0  0  0  0  0  0  0  0  0
   14.6137   24.7561   -4.1856 C   0  0  0  0  0  0  0  0  0  0  0  0
   13.4373   25.3482   -3.4516 C   0  0  0  0  0  0  0  0  0  0  0  0
   13.5930   26.4583   -4.3308 O   0  0  0  0  0  0  0  0  0  0  0  0
   13.5955   25.6372   -2.0728 N   0  0  0  0  0  0  0  0  0  0  0  0
   14.1849   24.9668   -1.5442 H   0  0  0  0  0  0  0  0  0  0  0  0
   12.3550   25.9632   -1.4528 C   0  0  0  0  0  0  0  0  0  0  0  0
   11.6347   24.8076   -0.8952 C   0  0  0  0  0  0  0  0  0  0  0  0
   11.1930   23.7594   -1.6896 C   0  0  0  0  0  0  0  0  0  0  0  0
   10.5159   22.6920   -1.1392 C   0  0  0  0  0  0  0  0  0  0  0  0
   10.0580   21.5901   -2.0141 C   0  0  0  0  0  0  0  0  0  0  0  0
   10.2928   22.7021    0.2280 C   0  0  0  0  0  0  0  0  0  0  0  0
   10.7146   23.7228    1.0502 C   0  0  0  0  0  0  0  0  0  0  0  0
   10.4539   23.7000    2.5319 C   0  0  0  0  0  0  0  0  0  0  0  0
   11.3924   24.7790    0.4598 C   0  0  0  0  0  0  0  0  0  0  0  0
    9.6084   21.6175    0.7651 O   0  0  0  0  0  0  0  0  0  0  0  0
    8.1867   21.6164    0.8837 C   0  0  0  0  0  0  0  0  0  0  0  0
   15.7385   23.7041   -3.3421 S   0  0  0  0  0  0  0  0  0  0  0  0
   15.3241   23.3979   -1.6417 C   0  0  0  0  0  0  0  0  0  0  0  0
   15.6570   24.0313   -0.4746 C   0  0  0  0  0  0  0  0  0  0  0  0
   16.4724   25.2585   -0.3410 C   0  0  0  0  0  0  0  0  0  0  0  0
   15.1015   23.3831    0.5985 N   0  0  0  0  0  0  0  0  0  0  0  0
   14.4129   22.3403    0.1488 C   0  0  0  0  0  0  0  0  0  0  0  0
   13.6775   21.3853    0.8489 C   0  0  0  0  0  0  0  0  0  0  0  0
   13.0459   20.3886    0.1424 C   0  0  0  0  0  0  0  0  0  0  0  0
   13.1570   20.3619   -1.2286 C   0  0  0  0  0  0  0  0  0  0  0  0
   13.8925   21.3206   -1.9037 C   0  0  0  0  0  0  0  0  0  0  0  0
   14.5239   22.3147   -1.2142 C   0  0  0  0  0  0  0  0  0  0  0  0
   15.2170   23.6808    1.5917 H   0  0  0  0  0  0  0  0  0  0  0  0
  1  2  1  0  0  0
  2  3  1  0  0  0
  2  4  1  0  0  0
  4 20  1  0  0  0
 20 21  1  0  0  0
 21 22  2  0  0  0
 22 23  1  0  0  0
 22 24  1  0  0  0
 24 25  1  0  0  0
 25 26  2  0  0  0
 26 27  1  0  0  0
 27 28  2  0  0  0
 28 29  1  0  0  0
 29 30  2  0  0  0
  4  5  1  0  0  0
  5  7  1  0  0  0
  7  9  1  0  0  0
  9 10  1  0  0  0
 10 11  2  0  0  0
 11 12  1  0  0  0
 12 13  1  0  0  0
 12 14  2  0  0  0
 14 18  1  0  0  0
 18 19  1  0  0  0
 14 15  1  0  0  0
 15 16  1  0  0  0
 15 17  2  0  0  0
  5  6  1  0  0  0
  6  2  1  0  0  0
 30 21  1  0  0  0
 17 10  1  0  0  0
 30 25  1  0  0  0
 24 31  1  0  0  0
  7  8  1  0  0  0
M  END
> <minimizedAffinity>
-6.00501

> <CNNscore>
0.3688911796

> <CNNaffinity>
7.5305609703

> <CNN_VS>
2.7779574394

> <CNNaffinity_variance>
0.3007447124

$$$$
[H]c1c(C([H])([H])[H])c(OC([H])([H])[H])c(C([H])([H])[H])c([H])c1C([H])([H])N([H])[C@@]1([H])OC(C([H])([H])[H])(C([H])([H])[H])[C@@]1([H])Sc1c(C([H])([H])[H])n([H])c2c([H])c([H])c([H])c([H])c12


 31 34  0  0  0  0  0  0  0  0999 V2000
   14.5967   22.7692   -0.0091 C   0  0  0  0  0  0  0  0  0  0  0  0
   14.8049   24.2565    0.1128 C   0  0  0  0  0  0  0  0  0  0  0  0
   16.2279   24.6963   -0.0344 C   0  0  0  0  0  0  0  0  0  0  0  0
   13.7836   25.1268   -0.5314 C   0  0  0  0  0  0  0  0  0  0  0  0
   13.0114   24.9195    0.7469 C   0  0  0  0  0  0  0  0  0  0  0  0
   14.2877   24.7468    1.3559 O   0  0  0  0  0  0  0  0  0  0  0  0
   12.1450   23.8000    0.8220 N   0  0  0  0  0  0  0  0  0  0  0  0
   12.5277   22.9167    0.4351 H   0  0  0  0  0  0  0  0  0  0  0  0
   10.8250   24.1202    0.3928 C   0  0  0  0  0  0  0  0  0  0  0  0
    9.7868   23.9006    1.4121 C   0  0  0  0  0  0  0  0  0  0  0  0
    8.8619   22.8711    1.3142 C   0  0  0  0  0  0  0  0  0  0  0  0
    7.8971   22.6931    2.2828 C   0  0  0  0  0  0  0  0  0  0  0  0
    6.9252   21.5855    2.1485 C   0  0  0  0  0  0  0  0  0  0  0  0
    7.8829   23.5736    3.3522 C   0  0  0  0  0  0  0  0  0  0  0  0
    8.7826   24.6073    3.4858 C   0  0  0  0  0  0  0  0  0  0  0  0
    8.7367   25.5450    4.6617 C   0  0  0  0  0  0  0  0  0  0  0  0
    9.7382   24.7540    2.4914 C   0  0  0  0  0  0  0  0  0  0  0  0
    6.9028   23.3786    4.3190 O   0  0  0  0  0  0  0  0  0  0  0  0
    7.1094   22.5015    5.4250 C   0  0  0  0  0  0  0  0  0  0  0  0
   13.0912   24.6334   -2.0678 S   0  0  0  0  0  0  0  0  0  0  0  0
   14.2629   24.5172   -3.3984 C   0  0  0  0  0  0  0  0  0  0  0  0
   15.0611   23.5003   -3.8487 C   0  0  0  0  0  0  0  0  0  0  0  0
   15.1083   22.1190   -3.3209 C   0  0  0  0  0  0  0  0  0  0  0  0
   15.8246   23.9220   -4.9068 N   0  0  0  0  0  0  0  0  0  0  0  0
   15.5355   25.1947   -5.1523 C   0  0  0  0  0  0  0  0  0  0  0  0
   16.0460   26.0567   -6.1215 C   0  0  0  0  0  0  0  0  0  0  0  0
   15.5770   27.3487   -6.1705 C   0  0  0  0  0  0  0  0  0  0  0  0
   14.6221   27.7524   -5.2662 C   0  0  0  0  0  0  0  0  0  0  0  0
   14.1288   26.8795   -4.3120 C   0  0  0  0  0  0  0  0  0  0  0  0
   14.5860   25.5952   -4.2529 C   0  0  0  0  0  0  0  0  0  0  0  0
   16.5103   23.3223   -5.4153 H   0  0  0  0  0  0  0  0  0  0  0  0
  1  2  1  0  0  0
  2  3  1  0  0  0
  2  4  1  0  0  0
  4 20  1  0  0  0
 20 21  1  0  0  0
 21 22  2  0  0  0
 22 23  1  0  0  0
 22 24  1  0  0  0
 24 25  1  0  0  0
 25 26  2  0  0  0
 26 27  1  0  0  0
 27 28  2  0  0  0
 28 29  1  0  0  0
 29 30  2  0  0  0
  4  5  1  0  0  0
  5  7  1  0  0  0
  7  9  1  0  0  0
  9 10  1  0  0  0
 10 11  2  0  0  0
 11 12  1  0  0  0
 12 13  1  0  0  0
 12 14  2  0  0  0
 14 18  1  0  0  0
 18 19  1  0  0  0
 14 15  1  0  0  0
 15 16  1  0  0  0
 15 17  2  0  0  0
  5  6  1  0  0  0
  6  2  1  0  0  0
 30 21  1  0  0  0
 17 10  1  0  0  0
 30 25  1  0  0  0
 24 31  1  0  0  0
  7  8  1  0  0  0
M  END
> <minimizedAffinity>
-6.46946

> <CNNscore>
0.3659119010

> <CNNaffinity>
6.9915328026

> <CNN_VS>
2.5582849979

> <CNNaffinity_variance>
0.1816063821

$$$$
[H]c1c(C([H])([H])[H])c(OC([H])([H])[H])c(C([H])([H])[H])c([H])c1C([H])([H])N([H])[C@@]1([H])OC(C([H])([H])[H])(C([H])([H])[H])[C@@]1([H])Sc1c(C([H])([H])[H])n([H])c2c([H])c([H])c([H])c([H])c12


 31 34  0  0  0  0  0  0  0  0999 V2000
   13.1790   21.9741    1.6110 C   0  0  0  0  0  0  0  0  0  0  0  0
   13.5942   21.2360    0.3648 C   0  0  0  0  0  0  0  0  0  0  0  0
   14.5017   20.0711    0.6088 C   0  0  0  0  0  0  0  0  0  0  0  0
   12.5455   21.0392   -0.6730 C   0  0  0  0  0  0  0  0  0  0  0  0
   12.9291   22.4283   -1.1165 C   0  0  0  0  0  0  0  0  0  0  0  0
   14.2114   22.1236   -0.5756 O   0  0  0  0  0  0  0  0  0  0  0  0
   12.2594   23.5232   -0.5147 N   0  0  0  0  0  0  0  0  0  0  0  0
   11.5433   23.2705    0.1922 H   0  0  0  0  0  0  0  0  0  0  0  0
   11.8372   24.4828   -1.4792 C   0  0  0  0  0  0  0  0  0  0  0  0
   12.9381   25.1454   -2.1962 C   0  0  0  0  0  0  0  0  0  0  0  0
   14.2694   24.9095   -1.8855 C   0  0  0  0  0  0  0  0  0  0  0  0
   15.2796   25.5492   -2.5718 C   0  0  0  0  0  0  0  0  0  0  0  0
   16.6895   25.2757   -2.2156 C   0  0  0  0  0  0  0  0  0  0  0  0
   14.9212   26.4317   -3.5777 C   0  0  0  0  0  0  0  0  0  0  0  0
   13.6123   26.6931   -3.9161 C   0  0  0  0  0  0  0  0  0  0  0  0
   13.2603   27.6588   -5.0150 C   0  0  0  0  0  0  0  0  0  0  0  0
   12.6243   26.0303   -3.2033 C   0  0  0  0  0  0  0  0  0  0  0  0
   15.9532   27.0675   -4.2586 O   0  0  0  0  0  0  0  0  0  0  0  0
   16.1573   26.8710   -5.6568 C   0  0  0  0  0  0  0  0  0  0  0  0
   10.8987   20.7005   -0.1662 S   0  0  0  0  0  0  0  0  0  0  0  0
   10.4203   21.4890    1.3524 C   0  0  0  0  0  0  0  0  0  0  0  0
    9.7719   22.6631    1.6267 C   0  0  0  0  0  0  0  0  0  0  0  0
    9.2222   23.6166    0.6381 C   0  0  0  0  0  0  0  0  0  0  0  0
    9.6640   22.8466    2.9813 N   0  0  0  0  0  0  0  0  0  0  0  0
   10.2303   21.8119    3.5916 C   0  0  0  0  0  0  0  0  0  0  0  0
   10.3709   21.5438    4.9523 C   0  0  0  0  0  0  0  0  0  0  0  0
   11.0064   20.3860    5.3359 C   0  0  0  0  0  0  0  0  0  0  0  0
   11.4833   19.5291    4.3711 C   0  0  0  0  0  0  0  0  0  0  0  0
   11.3326   19.8150    3.0253 C   0  0  0  0  0  0  0  0  0  0  0  0
   10.7040   20.9605    2.6317 C   0  0  0  0  0  0  0  0  0  0  0  0
    9.2087   23.6708    3.4303 H   0  0  0  0  0  0  0  0  0  0  0  0
  1  2  1  0  0  0
  2  3  1  0  0  0
  2  4  1  0  0  0
  4 20  1  0  0  0
 20 21  1  0  0  0
 21 22  2  0  0  0
 22 23  1  0  0  0
 22 24  1  0  0  0
 24 25  1  0  0  0
 25 26  2  0  0  0
 26 27  1  0  0  0
 27 28  2  0  0  0
 28 29  1  0  0  0
 29 30  2  0  0  0
  4  5  1  0  0  0
  5  7  1  0  0  0
  7  9  1  0  0  0
  9 10  1  0  0  0
 10 11  2  0  0  0
 11 12  1  0  0  0
 12 13  1  0  0  0
 12 14  2  0  0  0
 14 18  1  0  0  0
 18 19  1  0  0  0
 14 15  1  0  0  0
 15 16  1  0  0  0
 15 17  2  0  0  0
  5  6  1  0  0  0
  6  2  1  0  0  0
 30 21  1  0  0  0
 17 10  1  0  0  0
 30 25  1  0  0  0
 24 31  1  0  0  0
  7  8  1  0  0  0
M  END
> <minimizedAffinity>
-6.34182

> <CNNscore>
0.3211171925

> <CNNaffinity>
7.0338020325

> <CNN_VS>
2.2586748600

> <CNNaffinity_variance>
0.0611067191

$$$$
[H]c1c(C([H])([H])[H])c(OC([H])([H])[H])c(C([H])([H])[H])c([H])c1C([H])([H])N([H])[C@@]1([H])OC(C([H])([H])[H])(C([H])([H])[H])[C@@]1([H])Sc1c(C([H])([H])[H])n([H])c2c([H])c([H])c([H])c([H])c12


 31 34  0  0  0  0  0  0  0  0999 V2000
   12.6624   21.1224   -0.9561 C   0  0  0  0  0  0  0  0  0  0  0  0
   13.8482   21.5707   -0.1416 C   0  0  0  0  0  0  0  0  0  0  0  0
   14.8677   20.5035    0.1065 C   0  0  0  0  0  0  0  0  0  0  0  0
   14.3836   22.9279   -0.4366 C   0  0  0  0  0  0  0  0  0  0  0  0
   13.2989   23.4004    0.4979 C   0  0  0  0  0  0  0  0  0  0  0  0
   13.4300   22.1220    1.1130 O   0  0  0  0  0  0  0  0  0  0  0  0
   12.0246   23.6811   -0.0561 N   0  0  0  0  0  0  0  0  0  0  0  0
   12.0024   23.7810   -1.0885 H   0  0  0  0  0  0  0  0  0  0  0  0
   11.3490   24.7104    0.6604 C   0  0  0  0  0  0  0  0  0  0  0  0
   10.1207   24.2693    1.3399 C   0  0  0  0  0  0  0  0  0  0  0  0
    9.7548   24.7493    2.5891 C   0  0  0  0  0  0  0  0  0  0  0  0
    8.6001   24.3134    3.2034 C   0  0  0  0  0  0  0  0  0  0  0  0
    8.2384   24.8449    4.5361 C   0  0  0  0  0  0  0  0  0  0  0  0
    7.8213   23.3840    2.5335 C   0  0  0  0  0  0  0  0  0  0  0  0
    8.1496   22.8834    1.2936 C   0  0  0  0  0  0  0  0  0  0  0  0
    7.2791   21.8738    0.5956 C   0  0  0  0  0  0  0  0  0  0  0  0
    9.3186   23.3459    0.7078 C   0  0  0  0  0  0  0  0  0  0  0  0
    6.6607   22.9561    3.1684 O   0  0  0  0  0  0  0  0  0  0  0  0
    6.6533   21.8088    4.0162 C   0  0  0  0  0  0  0  0  0  0  0  0
   14.4167   23.4871   -2.1008 S   0  0  0  0  0  0  0  0  0  0  0  0
   15.5165   24.8510   -2.3960 C   0  0  0  0  0  0  0  0  0  0  0  0
   16.5338   25.4010   -1.6633 C   0  0  0  0  0  0  0  0  0  0  0  0
   17.0383   24.9199   -0.3584 C   0  0  0  0  0  0  0  0  0  0  0  0
   17.0698   26.4789   -2.3198 N   0  0  0  0  0  0  0  0  0  0  0  0
   16.4191   26.6382   -3.4665 C   0  0  0  0  0  0  0  0  0  0  0  0
   16.5962   27.5888   -4.4705 C   0  0  0  0  0  0  0  0  0  0  0  0
   15.7817   27.5409   -5.5777 C   0  0  0  0  0  0  0  0  0  0  0  0
   14.8196   26.5612   -5.6630 C   0  0  0  0  0  0  0  0  0  0  0  0
   14.6612   25.6270   -4.6542 C   0  0  0  0  0  0  0  0  0  0  0  0
   15.4629   25.6638   -3.5506 C   0  0  0  0  0  0  0  0  0  0  0  0
   17.8566   27.0594   -1.9560 H   0  0  0  0  0  0  0  0  0  0  0  0
  1  2  1  0  0  0
  2  3  1  0  0  0
  2  4  1  0  0  0
  4 20  1  0  0  0
 20 21  1  0  0  0
 21 22  2  0  0  0
 22 23  1  0  0  0
 22 24  1  0  0  0
 24 25  1  0  0  0
 25 26  2  0  0  0
 26 27  1  0  0  0
 27 28  2  0  0  0
 28 29  1  0  0  0
 29 30  2  0  0  0
  4  5  1  0  0  0
  5  7  1  0  0  0
  7  9  1  0  0  0
  9 10  1  0  0  0
 10 11  2  0  0  0
 11 12  1  0  0  0
 12 13  1  0  0  0
 12 14  2  0  0  0
 14 18  1  0  0  0
 18 19  1  0  0  0
 14 15  1  0  0  0
 15 16  1  0  0  0
 15 17  2  0  0  0
  5  6  1  0  0  0
  6  2  1  0  0  0
 30 21  1  0  0  0
 17 10  1  0  0  0
 30 25  1  0  0  0
 24 31  1  0  0  0
  7  8  1  0  0  0
M  END
> <minimizedAffinity>
-9.68087

> <CNNscore>
0.3134125471

> <CNNaffinity>
7.1891961098

> <CNN_VS>
2.2531843185

> <CNNaffinity_variance>
0.0256991498

$$$$
[H]c1c(C([H])([H])[H])c(OC([H])([H])[H])c(C([H])([H])[H])c([H])c1C([H])([H])N([H])[C@@]1([H])OC(C([H])([H])[H])(C([H])([H])[H])[C@@]1([H])Sc1c(C([H])([H])[H])n([H])c2c([H])c([H])c([H])c([H])c12


 31 34  0  0  0  0  0  0  0  0999 V2000
   15.9335   27.2759   -3.3360 C   0  0  0  0  0  0  0  0  0  0  0  0
   15.2824   26.8089   -4.6120 C   0  0  0  0  0  0  0  0  0  0  0  0
   15.8536   27.4144   -5.8558 C   0  0  0  0  0  0  0  0  0  0  0  0
   14.9333   25.3641   -4.6912 C   0  0  0  0  0  0  0  0  0  0  0  0
   13.6819   25.7753   -3.9577 C   0  0  0  0  0  0  0  0  0  0  0  0
   13.8690   27.0421   -4.5821 O   0  0  0  0  0  0  0  0  0  0  0  0
   13.7186   25.7841   -2.5406 N   0  0  0  0  0  0  0  0  0  0  0  0
   14.1750   24.9611   -2.1039 H   0  0  0  0  0  0  0  0  0  0  0  0
   12.4586   26.1391   -1.9788 C   0  0  0  0  0  0  0  0  0  0  0  0
   11.7900   25.0476   -1.2532 C   0  0  0  0  0  0  0  0  0  0  0  0
   11.4702   23.8429   -1.8626 C   0  0  0  0  0  0  0  0  0  0  0  0
   10.8389   22.8400   -1.1581 C   0  0  0  0  0  0  0  0  0  0  0  0
   10.5114   21.5670   -1.8376 C   0  0  0  0  0  0  0  0  0  0  0  0
   10.5362   23.0754    0.1730 C   0  0  0  0  0  0  0  0  0  0  0  0
   10.8365   24.2564    0.8139 C   0  0  0  0  0  0  0  0  0  0  0  0
   10.4920   24.4770    2.2620 C   0  0  0  0  0  0  0  0  0  0  0  0
   11.4716   25.2414    0.0722 C   0  0  0  0  0  0  0  0  0  0  0  0
    9.8997   22.0527    0.8673 O   0  0  0  0  0  0  0  0  0  0  0  0
   10.6298   21.1347    1.6794 C   0  0  0  0  0  0  0  0  0  0  0  0
   16.0227   24.1845   -3.9804 S   0  0  0  0  0  0  0  0  0  0  0  0
   15.2123   22.8848   -3.0799 C   0  0  0  0  0  0  0  0  0  0  0  0
   14.6923   21.6760   -3.4573 C   0  0  0  0  0  0  0  0  0  0  0  0
   14.7269   21.0883   -4.8146 C   0  0  0  0  0  0  0  0  0  0  0  0
   14.1358   21.0356   -2.3801 N   0  0  0  0  0  0  0  0  0  0  0  0
   14.2859   21.8069   -1.3095 C   0  0  0  0  0  0  0  0  0  0  0  0
   13.8891   21.5927    0.0096 C   0  0  0  0  0  0  0  0  0  0  0  0
   14.1653   22.5592    0.9483 C   0  0  0  0  0  0  0  0  0  0  0  0
   14.8220   23.7045    0.5615 C   0  0  0  0  0  0  0  0  0  0  0  0
   15.2071   23.8965   -0.7540 C   0  0  0  0  0  0  0  0  0  0  0  0
   14.9389   22.9452   -1.6949 C   0  0  0  0  0  0  0  0  0  0  0  0
   13.6771   20.0996   -2.4229 H   0  0  0  0  0  0  0  0  0  0  0  0
  1  2  1  0  0  0
  2  3  1  0  0  0
  2  4  1  0  0  0
  4 20  1  0  0  0
 20 21  1  0  0  0
 21 22  2  0  0  0
 22 23  1  0  0  0
 22 24  1  0  0  0
 24 25  1  0  0  0
 25 26  2  0  0  0
 26 27  1  0  0  0
 27 28  2  0  0  0
 28 29  1  0  0  0
 29 30  2  0  0  0
  4  5  1  0  0  0
  5  7  1  0  0  0
  7  9  1  0  0  0
  9 10  1  0  0  0
 10 11  2  0  0  0
 11 12  1  0  0  0
 12 13  1  0  0  0
 12 14  2  0  0  0
 14 18  1  0  0  0
 18 19  1  0  0  0
 14 15  1  0  0  0
 15 16  1  0  0  0
 15 17  2  0  0  0
  5  6  1  0  0  0
  6  2  1  0  0  0
 30 21  1  0  0  0
 17 10  1  0  0  0
 30 25  1  0  0  0
 24 31  1  0  0  0
  7  8  1  0  0  0
M  END
> <minimizedAffinity>
-4.41172

> <CNNscore>
0.3012802303

> <CNNaffinity>
7.4125747681

> <CNN_VS>
2.2332623005

> <CNNaffinity_variance>
0.2831903398

$$$$
[H]c1c(C([H])([H])[H])c(OC([H])([H])[H])c(C([H])([H])[H])c([H])c1C([H])([H])N([H])[C@@]1([H])OC(C([H])([H])[H])(C([H])([H])[H])[C@@]1([H])Sc1c(C([H])([H])[H])n([H])c2c([H])c([H])c([H])c([H])c12


 31 34  0  0  0  0  0  0  0  0999 V2000
   14.2066   22.5091    0.1688 C   0  0  0  0  0  0  0  0  0  0  0  0
   13.2946   21.5860   -0.5971 C   0  0  0  0  0  0  0  0  0  0  0  0
   13.8771   20.2371   -0.8823 C   0  0  0  0  0  0  0  0  0  0  0  0
   11.8551   21.6079   -0.2191 C   0  0  0  0  0  0  0  0  0  0  0  0
   11.7789   22.7931   -1.1479 C   0  0  0  0  0  0  0  0  0  0  0  0
   12.8735   22.1859   -1.8282 O   0  0  0  0  0  0  0  0  0  0  0  0
   12.0368   24.0768   -0.6047 N   0  0  0  0  0  0  0  0  0  0  0  0
   11.6003   24.2635    0.3178 H   0  0  0  0  0  0  0  0  0  0  0  0
   11.8597   25.1080   -1.5714 C   0  0  0  0  0  0  0  0  0  0  0  0
   13.0935   25.5014   -2.2700 C   0  0  0  0  0  0  0  0  0  0  0  0
   13.0748   26.0965   -3.5232 C   0  0  0  0  0  0  0  0  0  0  0  0
   14.2478   26.4497   -4.1556 C   0  0  0  0  0  0  0  0  0  0  0  0
   14.1933   27.0825   -5.4920 C   0  0  0  0  0  0  0  0  0  0  0  0
   15.4403   26.1909   -3.4999 C   0  0  0  0  0  0  0  0  0  0  0  0
   15.5013   25.6023   -2.2566 C   0  0  0  0  0  0  0  0  0  0  0  0
   16.8158   25.3360   -1.5744 C   0  0  0  0  0  0  0  0  0  0  0  0
   14.3004   25.2614   -1.6524 C   0  0  0  0  0  0  0  0  0  0  0  0
   16.6129   26.5538   -4.1530 O   0  0  0  0  0  0  0  0  0  0  0  0
   17.2510   27.8047   -3.9014 C   0  0  0  0  0  0  0  0  0  0  0  0
   11.4215   21.7865    1.4731 S   0  0  0  0  0  0  0  0  0  0  0  0
    9.6776   21.9497    1.7714 C   0  0  0  0  0  0  0  0  0  0  0  0
    8.5724   21.5509    1.0689 C   0  0  0  0  0  0  0  0  0  0  0  0
    8.5632   20.7779   -0.1925 C   0  0  0  0  0  0  0  0  0  0  0  0
    7.4271   21.9456    1.7114 N   0  0  0  0  0  0  0  0  0  0  0  0
    7.7690   22.5930    2.8194 C   0  0  0  0  0  0  0  0  0  0  0  0
    6.9660   23.1796    3.7962 C   0  0  0  0  0  0  0  0  0  0  0  0
    7.5707   23.8001    4.8643 C   0  0  0  0  0  0  0  0  0  0  0  0
    8.9442   23.8247    4.9386 C   0  0  0  0  0  0  0  0  0  0  0  0
    9.7224   23.2356    3.9573 C   0  0  0  0  0  0  0  0  0  0  0  0
    9.1347   22.6168    2.8925 C   0  0  0  0  0  0  0  0  0  0  0  0
    6.4615   21.7560    1.3651 H   0  0  0  0  0  0  0  0  0  0  0  0
  1  2  1  0  0  0
  2  3  1  0  0  0
  2  4  1  0  0  0
  4 20  1  0  0  0
 20 21  1  0  0  0
 21 22  2  0  0  0
 22 23  1  0  0  0
 22 24  1  0  0  0
 24 25  1  0  0  0
 25 26  2  0  0  0
 26 27  1  0  0  0
 27 28  2  0  0  0
 28 29  1  0  0  0
 29 30  2  0  0  0
  4  5  1  0  0  0
  5  7  1  0  0  0
  7  9  1  0  0  0
  9 10  1  0  0  0
 10 11  2  0  0  0
 11 12  1  0  0  0
 12 13  1  0  0  0
 12 14  2  0  0  0
 14 18  1  0  0  0
 18 19  1  0  0  0
 14 15  1  0  0  0
 15 16  1  0  0  0
 15 17  2  0  0  0
  5  6  1  0  0  0
  6  2  1  0  0  0
 30 21  1  0  0  0
 17 10  1  0  0  0
 30 25  1  0  0  0
 24 31  1  0  0  0
  7  8  1  0  0  0
M  END
> <minimizedAffinity>
-8.01406

> <CNNscore>
0.2563234568

> <CNNaffinity>
6.9965486526

> <CNN_VS>
1.7933795452

> <CNNaffinity_variance>
0.3127638102

$$$$
[H]c1c(C([H])([H])[H])c(OC([H])([H])[H])c(C([H])([H])[H])c([H])c1C([H])([H])N([H])[C@@]1([H])OC(C([H])([H])[H])(C([H])([H])[H])[C@@]1([H])Sc1c(C([H])([H])[H])n([H])c2c([H])c([H])c([H])c([H])c12


 31 34  0  0  0  0  0  0  0  0999 V2000
   14.3426   22.6202    0.4875 C   0  0  0  0  0  0  0  0  0  0  0  0
   13.7385   21.6022   -0.4448 C   0  0  0  0  0  0  0  0  0  0  0  0
   14.5531   20.3582   -0.6143 C   0  0  0  0  0  0  0  0  0  0  0  0
   12.2652   21.4098   -0.3561 C   0  0  0  0  0  0  0  0  0  0  0  0
   12.2003   22.6008   -1.2784 C   0  0  0  0  0  0  0  0  0  0  0  0
   13.4816   22.1748   -1.7329 O   0  0  0  0  0  0  0  0  0  0  0  0
   12.1607   23.8905   -0.6914 N   0  0  0  0  0  0  0  0  0  0  0  0
   11.5498   23.9794    0.1424 H   0  0  0  0  0  0  0  0  0  0  0  0
   11.9942   24.9138   -1.6684 C   0  0  0  0  0  0  0  0  0  0  0  0
   13.2482   25.3659   -2.2915 C   0  0  0  0  0  0  0  0  0  0  0  0
   14.4783   25.2171   -1.6674 C   0  0  0  0  0  0  0  0  0  0  0  0
   15.6363   25.6552   -2.2740 C   0  0  0  0  0  0  0  0  0  0  0  0
   16.9324   25.4818   -1.5816 C   0  0  0  0  0  0  0  0  0  0  0  0
   15.5297   26.2465   -3.5223 C   0  0  0  0  0  0  0  0  0  0  0  0
   14.3284   26.4127   -4.1744 C   0  0  0  0  0  0  0  0  0  0  0  0
   14.2508   27.0602   -5.5304 C   0  0  0  0  0  0  0  0  0  0  0  0
   13.1858   25.9591   -3.5323 C   0  0  0  0  0  0  0  0  0  0  0  0
   16.7078   26.6822   -4.1184 O   0  0  0  0  0  0  0  0  0  0  0  0
   17.3016   27.9323   -3.7721 C   0  0  0  0  0  0  0  0  0  0  0  0
   11.4914   21.4731    1.2189 S   0  0  0  0  0  0  0  0  0  0  0  0
    9.7822   21.9571    1.1789 C   0  0  0  0  0  0  0  0  0  0  0  0
    9.0736   22.9242    1.8397 C   0  0  0  0  0  0  0  0  0  0  0  0
    9.6172   23.9174    2.7919 C   0  0  0  0  0  0  0  0  0  0  0  0
    7.7509   22.8796    1.4810 N   0  0  0  0  0  0  0  0  0  0  0  0
    7.5881   21.9009    0.5981 C   0  0  0  0  0  0  0  0  0  0  0  0
    6.4348   21.4680   -0.0542 C   0  0  0  0  0  0  0  0  0  0  0  0
    6.5291   20.4171   -0.9365 C   0  0  0  0  0  0  0  0  0  0  0  0
    7.7528   19.8255   -1.1496 C   0  0  0  0  0  0  0  0  0  0  0  0
    8.8854   20.2717   -0.4910 C   0  0  0  0  0  0  0  0  0  0  0  0
    8.8051   21.3134    0.3869 C   0  0  0  0  0  0  0  0  0  0  0  0
    7.0166   23.5192    1.8550 H   0  0  0  0  0  0  0  0  0  0  0  0
  1  2  1  0  0  0
  2  3  1  0  0  0
  2  4  1  0  0  0
  4 20  1  0  0  0
 20 21  1  0  0  0
 21 22  2  0  0  0
 22 23  1  0  0  0
 22 24  1  0  0  0
 24 25  1  0  0  0
 25 26  2  0  0  0
 26 27  1  0  0  0
 27 28  2  0  0  0
 28 29  1  0  0  0
 29 30  2  0  0  0
  4  5  1  0  0  0
  5  7  1  0  0  0
  7  9  1  0  0  0
  9 10  1  0  0  0
 10 11  2  0  0  0
 11 12  1  0  0  0
 12 13  1  0  0  0
 12 14  2  0  0  0
 14 18  1  0  0  0
 18 19  1  0  0  0
 14 15  1  0  0  0
 15 16  1  0  0  0
 15 17  2  0  0  0
  5  6  1  0  0  0
  6  2  1  0  0  0
 30 21  1  0  0  0
 17 10  1  0  0  0
 30 25  1  0  0  0
 24 31  1  0  0  0
  7  8  1  0  0  0
M  END
> <minimizedAffinity>
-8.03352

> <CNNscore>
0.2502982914

> <CNNaffinity>
7.1059646606

> <CNN_VS>
1.7786108255

> <CNNaffinity_variance>
0.1894849837

$$$$
[H]c1c(C([H])([H])[H])c(OC([H])([H])[H])c(C([H])([H])[H])c([H])c1C([H])([H])N([H])[C@@]1([H])OC(C([H])([H])[H])(C([H])([H])[H])[C@@]1([H])Sc1c(C([H])([H])[H])n([H])c2c([H])c([H])c([H])c([H])c12


 31 34  0  0  0  0  0  0  0  0999 V2000
   14.1530   22.1018   -0.6203 C   0  0  0  0  0  0  0  0  0  0  0  0
   12.8669   21.3446   -0.8282 C   0  0  0  0  0  0  0  0  0  0  0  0
   13.0479   19.9323   -1.2893 C   0  0  0  0  0  0  0  0  0  0  0  0
   11.7919   21.5697    0.1765 C   0  0  0  0  0  0  0  0  0  0  0  0
   11.4603   22.7773   -0.6632 C   0  0  0  0  0  0  0  0  0  0  0  0
   12.0091   22.0326   -1.7468 O   0  0  0  0  0  0  0  0  0  0  0  0
   12.1235   23.9937   -0.3634 N   0  0  0  0  0  0  0  0  0  0  0  0
   12.0017   24.3371    0.6080 H   0  0  0  0  0  0  0  0  0  0  0  0
   11.9182   24.9742   -1.3761 C   0  0  0  0  0  0  0  0  0  0  0  0
   13.1419   25.3745   -2.0884 C   0  0  0  0  0  0  0  0  0  0  0  0
   14.4066   25.1704   -1.5558 C   0  0  0  0  0  0  0  0  0  0  0  0
   15.5352   25.5608   -2.2446 C   0  0  0  0  0  0  0  0  0  0  0  0
   16.8695   25.3290   -1.6486 C   0  0  0  0  0  0  0  0  0  0  0  0
   15.3638   26.1613   -3.4812 C   0  0  0  0  0  0  0  0  0  0  0  0
   14.1266   26.3816   -4.0440 C   0  0  0  0  0  0  0  0  0  0  0  0
   13.9787   27.0374   -5.3901 C   0  0  0  0  0  0  0  0  0  0  0  0
   13.0151   25.9750   -3.3209 C   0  0  0  0  0  0  0  0  0  0  0  0
   16.5132   26.5483   -4.1611 O   0  0  0  0  0  0  0  0  0  0  0  0
   17.1188   27.8208   -3.9394 C   0  0  0  0  0  0  0  0  0  0  0  0
   12.2319   21.7659    1.8651 S   0  0  0  0  0  0  0  0  0  0  0  0
   10.8545   21.7715    2.9874 C   0  0  0  0  0  0  0  0  0  0  0  0
   10.4284   20.8869    3.9414 C   0  0  0  0  0  0  0  0  0  0  0  0
   11.0977   19.6277    4.3356 C   0  0  0  0  0  0  0  0  0  0  0  0
    9.2749   21.3359    4.5313 N   0  0  0  0  0  0  0  0  0  0  0  0
    8.9448   22.4972    3.9779 C   0  0  0  0  0  0  0  0  0  0  0  0
    7.8629   23.3365    4.2388 C   0  0  0  0  0  0  0  0  0  0  0  0
    7.7414   24.5019    3.5185 C   0  0  0  0  0  0  0  0  0  0  0  0
    8.6860   24.8052    2.5654 C   0  0  0  0  0  0  0  0  0  0  0  0
    9.7526   23.9571    2.3228 C   0  0  0  0  0  0  0  0  0  0  0  0
    9.8845   22.7980    3.0306 C   0  0  0  0  0  0  0  0  0  0  0  0
    8.7629   20.8297    5.2862 H   0  0  0  0  0  0  0  0  0  0  0  0
  1  2  1  0  0  0
  2  3  1  0  0  0
  2  4  1  0  0  0
  4 20  1  0  0  0
 20 21  1  0  0  0
 21 22  2  0  0  0
 22 23  1  0  0  0
 22 24  1  0  0  0
 24 25  1  0  0  0
 25 26  2  0  0  0
 26 27  1  0  0  0
 27 28  2  0  0  0
 28 29  1  0  0  0
 29 30  2  0  0  0
  4  5  1  0  0  0
  5  7  1  0  0  0
  7  9  1  0  0  0
  9 10  1  0  0  0
 10 11  2  0  0  0
 11 12  1  0  0  0
 12 13  1  0  0  0
 12 14  2  0  0  0
 14 18  1  0  0  0
 18 19  1  0  0  0
 14 15  1  0  0  0
 15 16  1  0  0  0
 15 17  2  0  0  0
  5  6  1  0  0  0
  6  2  1  0  0  0
 30 21  1  0  0  0
 17 10  1  0  0  0
 30 25  1  0  0  0
 24 31  1  0  0  0
  7  8  1  0  0  0
M  END
> <minimizedAffinity>
-7.98543

> <CNNscore>
0.2364283204

> <CNNaffinity>
6.8294725418

> <CNN_VS>
1.6146807671

> <CNNaffinity_variance>
0.1636491120

$$$$
[H]OC(=O)[C@@]1([H])N(C(=O)[C@@]([H])(N([H])C(=O)[C@@]([H])(N([H])C(=O)[C@@]([H])(N([H])[H])C([H])([H])C([H])(C([H])([H])[H])C([H])([H])[H])C([H])([H])c2c([H])c([H])c([H])c([H])c2[H])C([H])([H])c2c([H])c([H])c([H])c([H])c2[H])C([H])([H])C([H])([H])C1([H])[H]


 43 45  0  0  0  0  0  0  0  0999 V2000
    9.7564   23.2822   -0.0441 C   0  0  0  0  0  0  0  0  0  0  0  0
   10.0295   22.1142   -0.4089 O   0  0  0  0  0  0  0  0  0  0  0  0
   10.6164   24.3710   -0.3155 N   0  0  0  0  0  0  0  0  0  0  0  0
   10.3456   25.3139    0.0014 H   0  0  0  0  0  0  0  0  0  0  0  0
    8.4897   23.5006    0.6914 C   0  0  0  0  0  0  0  0  0  0  0  0
    7.5029   21.2484    1.1444 C   0  0  0  0  0  0  0  0  0  0  0  0
    8.3477   21.0517    2.0533 O   0  0  0  0  0  0  0  0  0  0  0  0
    7.5226   22.4597    0.4238 N   0  0  0  0  0  0  0  0  0  0  0  0
    6.8240   22.6152   -0.3230 H   0  0  0  0  0  0  0  0  0  0  0  0
    6.5033   20.2083    0.8455 C   0  0  0  0  0  0  0  0  0  0  0  0
    5.6231   19.9567    1.9661 N   0  0  0  0  0  0  0  0  0  0  0  0
    5.1537   20.8369    2.2427 H   0  0  0  0  0  0  0  0  0  0  0  0
    6.1841   19.5958    2.7775 H   0  0  0  0  0  0  0  0  0  0  0  0
    5.6578   20.5662   -0.3556 C   0  0  0  0  0  0  0  0  0  0  0  0
    6.8223   18.5622   -1.2920 C   0  0  0  0  0  0  0  0  0  0  0  0
    5.6430   19.4801   -1.3972 C   0  0  0  0  0  0  0  0  0  0  0  0
    5.6823   20.1693   -2.7493 C   0  0  0  0  0  0  0  0  0  0  0  0
    8.8515   23.4170    2.1689 C   0  0  0  0  0  0  0  0  0  0  0  0
    8.4482   24.5877    2.9415 C   0  0  0  0  0  0  0  0  0  0  0  0
    9.3306   25.6215    3.1474 C   0  0  0  0  0  0  0  0  0  0  0  0
    8.9288   26.7063    3.8712 C   0  0  0  0  0  0  0  0  0  0  0  0
    7.6726   26.7943    4.3980 C   0  0  0  0  0  0  0  0  0  0  0  0
    6.7710   25.7762    4.2077 C   0  0  0  0  0  0  0  0  0  0  0  0
    7.1696   24.6790    3.4785 C   0  0  0  0  0  0  0  0  0  0  0  0
   11.9036   24.1662   -1.0518 C   0  0  0  0  0  0  0  0  0  0  0  0
   12.8936   23.5956   -0.1334 C   0  0  0  0  0  0  0  0  0  0  0  0
   13.2102   24.3713    0.8493 O   0  0  0  0  0  0  0  0  0  0  0  0
   13.5148   22.3377   -0.1946 N   0  0  0  0  0  0  0  0  0  0  0  0
   13.2915   21.3307   -1.2024 C   0  0  0  0  0  0  0  0  0  0  0  0
   14.6588   20.6335   -1.2683 C   0  0  0  0  0  0  0  0  0  0  0  0
   14.8507   20.4265    0.2382 C   0  0  0  0  0  0  0  0  0  0  0  0
   14.4562   21.7999    0.7469 C   0  0  0  0  0  0  0  0  0  0  0  0
   15.6703   22.5636    0.9785 C   0  0  0  0  0  0  0  0  0  0  0  0
   15.8214   23.7876    0.3447 O   0  0  0  0  0  0  0  0  0  0  0  0
   16.5756   22.1575    1.7239 O   0  0  0  0  0  0  0  0  0  0  0  0
   16.5307   23.9017   -0.3797 H   0  0  0  0  0  0  0  0  0  0  0  0
   12.2032   25.4790   -1.6659 C   0  0  0  0  0  0  0  0  0  0  0  0
   13.1820   25.5275   -2.7498 C   0  0  0  0  0  0  0  0  0  0  0  0
   13.1338   26.5652   -3.6521 C   0  0  0  0  0  0  0  0  0  0  0  0
   14.0318   26.6515   -4.6936 C   0  0  0  0  0  0  0  0  0  0  0  0
   15.0233   25.7139   -4.8939 C   0  0  0  0  0  0  0  0  0  0  0  0
   15.0594   24.6761   -3.9777 C   0  0  0  0  0  0  0  0  0  0  0  0
   14.1698   24.5790   -2.9359 C   0  0  0  0  0  0  0  0  0  0  0  0
 15 16  1  0  0  0
 16 17  1  0  0  0
 16 14  1  0  0  0
 14 10  1  0  0  0
 10 11  1  0  0  0
 10  6  1  0  0  0
  6  7  2  0  0  0
  6  8  1  0  0  0
  8  5  1  0  0  0
  5 18  1  0  0  0
 18 19  1  0  0  0
 19 20  2  0  0  0
 20 21  1  0  0  0
 21 22  2  0  0  0
 22 23  1  0  0  0
 23 24  2  0  0  0
  5  1  1  0  0  0
  1  2  2  0  0  0
  1  3  1  0  0  0
  3 25  1  0  0  0
 25 37  1  0  0  0
 37 38  1  0  0  0
 38 39  2  0  0  0
 39 40  1  0  0  0
 40 41  2  0  0  0
 41 42  1  0  0  0
 42 43  2  0  0  0
 25 26  1  0  0  0
 26 27  2  0  0  0
 26 28  1  0  0  0
 28 29  1  0  0  0
 29 30  1  0  0  0
 30 31  1  0  0  0
 31 32  1  0  0  0
 32 33  1  0  0  0
 33 34  1  0  0  0
 33 35  2  0  0  0
 24 19  1  0  0  0
 43 38  1  0  0  0
 32 28  1  0  0  0
 11 12  1  0  0  0
 11 13  1  0  0  0
  8  9  1  0  0  0
  3  4  1  0  0  0
 34 36  1  0  0  0
M  END
> <minimizedAffinity>
-8.88472

> <CNNscore>
0.4516876042

> <CNNaffinity>
7.3104376793

> <CNN_VS>
3.3020341396

> <CNNaffinity_variance>
0.2068258226

$$$$
[H]OC(=O)[C@@]1([H])N(C(=O)[C@@]([H])(N([H])C(=O)[C@@]([H])(N([H])C(=O)[C@@]([H])(N([H])[H])C([H])([H])C([H])(C([H])([H])[H])C([H])([H])[H])C([H])([H])c2c([H])c([H])c([H])c([H])c2[H])C([H])([H])c2c([H])c([H])c([H])c([H])c2[H])C([H])([H])C([H])([H])C1([H])[H]


 43 45  0  0  0  0  0  0  0  0999 V2000
   12.2258   24.7127    0.6041 C   0  0  0  0  0  0  0  0  0  0  0  0
   12.3174   25.7734    1.2664 O   0  0  0  0  0  0  0  0  0  0  0  0
   11.2843   23.7086    0.9265 N   0  0  0  0  0  0  0  0  0  0  0  0
   11.2444   22.8556    0.3488 H   0  0  0  0  0  0  0  0  0  0  0  0
   13.1424   24.5313   -0.5449 C   0  0  0  0  0  0  0  0  0  0  0  0
   14.3830   22.4093   -0.0875 C   0  0  0  0  0  0  0  0  0  0  0  0
   15.0451   22.9808    0.8144 O   0  0  0  0  0  0  0  0  0  0  0  0
   13.4118   23.1351   -0.8065 N   0  0  0  0  0  0  0  0  0  0  0  0
   12.8701   22.6583   -1.5475 H   0  0  0  0  0  0  0  0  0  0  0  0
   14.6324   20.9871   -0.3801 C   0  0  0  0  0  0  0  0  0  0  0  0
   15.3547   20.3273    0.6861 N   0  0  0  0  0  0  0  0  0  0  0  0
   14.8294   20.4247    1.5727 H   0  0  0  0  0  0  0  0  0  0  0  0
   16.3003   20.7716    0.7954 H   0  0  0  0  0  0  0  0  0  0  0  0
   13.3488   20.2282   -0.6290 C   0  0  0  0  0  0  0  0  0  0  0  0
   12.1845   20.2497    1.5831 C   0  0  0  0  0  0  0  0  0  0  0  0
   12.1950   20.7632    0.1757 C   0  0  0  0  0  0  0  0  0  0  0  0
   10.9259   20.3035   -0.5191 C   0  0  0  0  0  0  0  0  0  0  0  0
   12.4015   25.0866   -1.7547 C   0  0  0  0  0  0  0  0  0  0  0  0
   13.2745   25.4376   -2.8703 C   0  0  0  0  0  0  0  0  0  0  0  0
   14.3372   24.6308   -3.2010 C   0  0  0  0  0  0  0  0  0  0  0  0
   15.1374   24.9795   -4.2498 C   0  0  0  0  0  0  0  0  0  0  0  0
   14.9122   26.1094   -4.9819 C   0  0  0  0  0  0  0  0  0  0  0  0
   13.8579   26.9333   -4.6735 C   0  0  0  0  0  0  0  0  0  0  0  0
   13.0466   26.5877   -3.6167 C   0  0  0  0  0  0  0  0  0  0  0  0
   10.3553   23.8734    2.0887 C   0  0  0  0  0  0  0  0  0  0  0  0
    9.4910   22.6929    2.1804 C   0  0  0  0  0  0  0  0  0  0  0  0
    9.1428   22.2040    1.0370 O   0  0  0  0  0  0  0  0  0  0  0  0
    9.0166   22.0484    3.3344 N   0  0  0  0  0  0  0  0  0  0  0  0
    9.2975   22.4330    4.6956 C   0  0  0  0  0  0  0  0  0  0  0  0
    8.0182   21.9939    5.4239 C   0  0  0  0  0  0  0  0  0  0  0  0
    7.9365   20.5760    4.8476 C   0  0  0  0  0  0  0  0  0  0  0  0
    8.1979   20.8698    3.3827 C   0  0  0  0  0  0  0  0  0  0  0  0
    6.9187   20.9238    2.6959 C   0  0  0  0  0  0  0  0  0  0  0  0
    6.3549   22.1622    2.4290 O   0  0  0  0  0  0  0  0  0  0  0  0
    6.3146   19.8998    2.3403 O   0  0  0  0  0  0  0  0  0  0  0  0
    5.4998   22.4460    2.9077 H   0  0  0  0  0  0  0  0  0  0  0  0
    9.7118   25.1892    1.8772 C   0  0  0  0  0  0  0  0  0  0  0  0
    8.8153   25.6946    2.9147 C   0  0  0  0  0  0  0  0  0  0  0  0
    9.3518   26.2289    4.0636 C   0  0  0  0  0  0  0  0  0  0  0  0
    8.5475   26.7135    5.0720 C   0  0  0  0  0  0  0  0  0  0  0  0
    7.1707   26.6935    4.9931 C   0  0  0  0  0  0  0  0  0  0  0  0
    6.6458   26.1534    3.8309 C   0  0  0  0  0  0  0  0  0  0  0  0
    7.4369   25.6669    2.8192 C   0  0  0  0  0  0  0  0  0  0  0  0
 15 16  1  0  0  0
 16 17  1  0  0  0
 16 14  1  0  0  0
 14 10  1  0  0  0
 10 11  1  0  0  0
 10  6  1  0  0  0
  6  7  2  0  0  0
  6  8  1  0  0  0
  8  5  1  0  0  0
  5 18  1  0  0  0
 18 19  1  0  0  0
 19 20  2  0  0  0
 20 21  1  0  0  0
 21 22  2  0  0  0
 22 23  1  0  0  0
 23 24  2  0  0  0
  5  1  1  0  0  0
  1  2  2  0  0  0
  1  3  1  0  0  0
  3 25  1  0  0  0
 25 37  1  0  0  0
 37 38  1  0  0  0
 38 39  2  0  0  0
 39 40  1  0  0  0
 40 41  2  0  0  0
 41 42  1  0  0  0
 42 43  2  0  0  0
 25 26  1  0  0  0
 26 27  2  0  0  0
 26 28  1  0  0  0
 28 29  1  0  0  0
 29 30  1  0  0  0
 30 31  1  0  0  0
 31 32  1  0  0  0
 32 33  1  0  0  0
 33 34  1  0  0  0
 33 35  2  0  0  0
 24 19  1  0  0  0
 43 38  1  0  0  0
 32 28  1  0  0  0
 11 12  1  0  0  0
 11 13  1  0  0  0
  8  9  1  0  0  0
  3  4  1  0  0  0
 34 36  1  0  0  0
M  END
> <minimizedAffinity>
-8.12898

> <CNNscore>
0.4048874676

> <CNNaffinity>
7.3243775368

> <CNN_VS>
2.9655487537

> <CNNaffinity_variance>
0.1179024354

$$$$
[H]OC(=O)[C@@]1([H])N(C(=O)[C@@]([H])(N([H])C(=O)[C@@]([H])(N([H])C(=O)[C@@]([H])(N([H])[H])C([H])([H])C([H])(C([H])([H])[H])C([H])([H])[H])C([H])([H])c2c([H])c([H])c([H])c([H])c2[H])C([H])([H])c2c([H])c([H])c([H])c([H])c2[H])C([H])([H])C([H])([H])C1([H])[H]


 43 45  0  0  0  0  0  0  0  0999 V2000
    9.3410   23.6492    0.7153 C   0  0  0  0  0  0  0  0  0  0  0  0
    9.2072   22.6127    0.0227 O   0  0  0  0  0  0  0  0  0  0  0  0
   10.4697   24.4914    0.5909 N   0  0  0  0  0  0  0  0  0  0  0  0
   10.5319   25.3353    1.1797 H   0  0  0  0  0  0  0  0  0  0  0  0
    8.2709   23.9784    1.6847 C   0  0  0  0  0  0  0  0  0  0  0  0
    9.0867   22.6782    3.6583 C   0  0  0  0  0  0  0  0  0  0  0  0
   10.1445   23.3558    3.6782 O   0  0  0  0  0  0  0  0  0  0  0  0
    8.1064   22.9433    2.6807 N   0  0  0  0  0  0  0  0  0  0  0  0
    7.2378   22.3819    2.6703 H   0  0  0  0  0  0  0  0  0  0  0  0
    8.8869   21.6154    4.6588 C   0  0  0  0  0  0  0  0  0  0  0  0
    8.0086   20.5702    4.1793 N   0  0  0  0  0  0  0  0  0  0  0  0
    8.3899   20.1717    3.3033 H   0  0  0  0  0  0  0  0  0  0  0  0
    7.0571   20.9726    3.9891 H   0  0  0  0  0  0  0  0  0  0  0  0
   10.1943   20.9847    5.0814 C   0  0  0  0  0  0  0  0  0  0  0  0
   11.2015   18.7298    4.6938 C   0  0  0  0  0  0  0  0  0  0  0  0
   10.7169   20.0021    4.0684 C   0  0  0  0  0  0  0  0  0  0  0  0
   11.8835   20.6744    3.3672 C   0  0  0  0  0  0  0  0  0  0  0  0
    8.7413   25.2347    2.4068 C   0  0  0  0  0  0  0  0  0  0  0  0
    7.6594   26.0114    3.0035 C   0  0  0  0  0  0  0  0  0  0  0  0
    6.8854   25.4706    4.0026 C   0  0  0  0  0  0  0  0  0  0  0  0
    5.8814   26.2179    4.5460 C   0  0  0  0  0  0  0  0  0  0  0  0
    5.6230   27.4904    4.1250 C   0  0  0  0  0  0  0  0  0  0  0  0
    6.3806   28.0554    3.1288 C   0  0  0  0  0  0  0  0  0  0  0  0
    7.3951   27.3072    2.5761 C   0  0  0  0  0  0  0  0  0  0  0  0
   11.5634   24.1693   -0.3792 C   0  0  0  0  0  0  0  0  0  0  0  0
   12.5965   23.3885    0.3077 C   0  0  0  0  0  0  0  0  0  0  0  0
   12.9595   23.8796    1.4456 O   0  0  0  0  0  0  0  0  0  0  0  0
   13.2148   22.2003   -0.1142 N   0  0  0  0  0  0  0  0  0  0  0  0
   12.9440   21.4943   -1.3422 C   0  0  0  0  0  0  0  0  0  0  0  0
   14.3069   20.8578   -1.6540 C   0  0  0  0  0  0  0  0  0  0  0  0
   14.5709   20.2607   -0.2673 C   0  0  0  0  0  0  0  0  0  0  0  0
   14.2005   21.4445    0.6059 C   0  0  0  0  0  0  0  0  0  0  0  0
   15.4240   22.1352    0.9759 C   0  0  0  0  0  0  0  0  0  0  0  0
   16.3590   21.4688    1.7534 O   0  0  0  0  0  0  0  0  0  0  0  0
   15.6600   23.3003    0.6197 O   0  0  0  0  0  0  0  0  0  0  0  0
   16.5351   21.7738    2.7109 H   0  0  0  0  0  0  0  0  0  0  0  0
   11.9519   25.4737   -0.9607 C   0  0  0  0  0  0  0  0  0  0  0  0
   12.8737   25.4776   -2.0945 C   0  0  0  0  0  0  0  0  0  0  0  0
   12.6932   26.3954   -3.1035 C   0  0  0  0  0  0  0  0  0  0  0  0
   13.5331   26.4350   -4.1951 C   0  0  0  0  0  0  0  0  0  0  0  0
   14.5948   25.5670   -4.3422 C   0  0  0  0  0  0  0  0  0  0  0  0
   14.7640   24.6497   -3.3186 C   0  0  0  0  0  0  0  0  0  0  0  0
   13.9334   24.6001   -2.2260 C   0  0  0  0  0  0  0  0  0  0  0  0
 15 16  1  0  0  0
 16 17  1  0  0  0
 16 14  1  0  0  0
 14 10  1  0  0  0
 10 11  1  0  0  0
 10  6  1  0  0  0
  6  7  2  0  0  0
  6  8  1  0  0  0
  8  5  1  0  0  0
  5 18  1  0  0  0
 18 19  1  0  0  0
 19 20  2  0  0  0
 20 21  1  0  0  0
 21 22  2  0  0  0
 22 23  1  0  0  0
 23 24  2  0  0  0
  5  1  1  0  0  0
  1  2  2  0  0  0
  1  3  1  0  0  0
  3 25  1  0  0  0
 25 37  1  0  0  0
 37 38  1  0  0  0
 38 39  2  0  0  0
 39 40  1  0  0  0
 40 41  2  0  0  0
 41 42  1  0  0  0
 42 43  2  0  0  0
 25 26  1  0  0  0
 26 27  2  0  0  0
 26 28  1  0  0  0
 28 29  1  0  0  0
 29 30  1  0  0  0
 30 31  1  0  0  0
 31 32  1  0  0  0
 32 33  1  0  0  0
 33 34  1  0  0  0
 33 35  2  0  0  0
 24 19  1  0  0  0
 43 38  1  0  0  0
 32 28  1  0  0  0
 11 12  1  0  0  0
 11 13  1  0  0  0
  8  9  1  0  0  0
  3  4  1  0  0  0
 34 36  1  0  0  0
M  END
> <minimizedAffinity>
-8.03624

> <CNNscore>
0.3960689306

> <CNNaffinity>
7.2468771935

> <CNN_VS>
2.8702628613

> <CNNaffinity_variance>
0.1744732112

$$$$
[H]OC(=O)[C@@]1([H])N(C(=O)[C@@]([H])(N([H])C(=O)[C@@]([H])(N([H])C(=O)[C@@]([H])(N([H])[H])C([H])([H])C([H])(C([H])([H])[H])C([H])([H])[H])C([H])([H])c2c([H])c([H])c([H])c([H])c2[H])C([H])([H])c2c([H])c([H])c([H])c([H])c2[H])C([H])([H])C([H])([H])C1([H])[H]


 43 45  0  0  0  0  0  0  0  0999 V2000
   11.2910   22.2956   -0.2325 C   0  0  0  0  0  0  0  0  0  0  0  0
   10.9350   21.4042   -1.0391 O   0  0  0  0  0  0  0  0  0  0  0  0
   12.0902   22.0063    0.8971 N   0  0  0  0  0  0  0  0  0  0  0  0
   12.3608   22.7747    1.5290 H   0  0  0  0  0  0  0  0  0  0  0  0
   10.8475   23.6843   -0.4937 C   0  0  0  0  0  0  0  0  0  0  0  0
   12.3206   25.2843   -1.7270 C   0  0  0  0  0  0  0  0  0  0  0  0
   12.6681   25.8139   -0.6421 O   0  0  0  0  0  0  0  0  0  0  0  0
   11.4083   24.2098   -1.7183 N   0  0  0  0  0  0  0  0  0  0  0  0
   11.1267   23.7782   -2.6152 H   0  0  0  0  0  0  0  0  0  0  0  0
   12.8729   25.7954   -2.9936 C   0  0  0  0  0  0  0  0  0  0  0  0
   12.2205   27.0134   -3.4233 N   0  0  0  0  0  0  0  0  0  0  0  0
   12.3013   27.7304   -2.6810 H   0  0  0  0  0  0  0  0  0  0  0  0
   11.2044   26.8203   -3.6064 H   0  0  0  0  0  0  0  0  0  0  0  0
   14.3587   26.0574   -2.8968 C   0  0  0  0  0  0  0  0  0  0  0  0
   15.2511   25.2618   -5.0922 C   0  0  0  0  0  0  0  0  0  0  0  0
   14.9652   26.4448   -4.2185 C   0  0  0  0  0  0  0  0  0  0  0  0
   16.2742   27.1491   -3.9101 C   0  0  0  0  0  0  0  0  0  0  0  0
    9.3376   23.6061   -0.6810 C   0  0  0  0  0  0  0  0  0  0  0  0
    8.5905   23.5496    0.5715 C   0  0  0  0  0  0  0  0  0  0  0  0
    8.5904   24.6239    1.4291 C   0  0  0  0  0  0  0  0  0  0  0  0
    7.8822   24.5472    2.5930 C   0  0  0  0  0  0  0  0  0  0  0  0
    7.1721   23.4315    2.9308 C   0  0  0  0  0  0  0  0  0  0  0  0
    7.1548   22.3439    2.0927 C   0  0  0  0  0  0  0  0  0  0  0  0
    7.8669   22.4143    0.9169 C   0  0  0  0  0  0  0  0  0  0  0  0
   12.5411   20.6070    1.1792 C   0  0  0  0  0  0  0  0  0  0  0  0
   12.1601   20.2493    2.5488 C   0  0  0  0  0  0  0  0  0  0  0  0
   12.5522   19.0748    2.9158 O   0  0  0  0  0  0  0  0  0  0  0  0
   11.4436   21.0161    3.4819 N   0  0  0  0  0  0  0  0  0  0  0  0
   10.9292   22.3464    3.2685 C   0  0  0  0  0  0  0  0  0  0  0  0
    9.6750   22.3519    4.1556 C   0  0  0  0  0  0  0  0  0  0  0  0
   10.3251   21.7899    5.4248 C   0  0  0  0  0  0  0  0  0  0  0  0
   11.1198   20.6429    4.8300 C   0  0  0  0  0  0  0  0  0  0  0  0
   10.3570   19.4200    5.0131 C   0  0  0  0  0  0  0  0  0  0  0  0
   11.0366   18.2143    5.0967 O   0  0  0  0  0  0  0  0  0  0  0  0
    9.1188   19.4185    5.0974 O   0  0  0  0  0  0  0  0  0  0  0  0
   10.9417   17.5237    4.3517 H   0  0  0  0  0  0  0  0  0  0  0  0
   13.9803   20.5947    0.8342 C   0  0  0  0  0  0  0  0  0  0  0  0
   14.4782   21.6124   -0.0887 C   0  0  0  0  0  0  0  0  0  0  0  0
   15.0324   22.7652    0.4185 C   0  0  0  0  0  0  0  0  0  0  0  0
   15.5109   23.7556   -0.4114 C   0  0  0  0  0  0  0  0  0  0  0  0
   15.4648   23.6539   -1.7860 C   0  0  0  0  0  0  0  0  0  0  0  0
   14.9049   22.4882   -2.2813 C   0  0  0  0  0  0  0  0  0  0  0  0
   14.4242   21.4942   -1.4646 C   0  0  0  0  0  0  0  0  0  0  0  0
 15 16  1  0  0  0
 16 17  1  0  0  0
 16 14  1  0  0  0
 14 10  1  0  0  0
 10 11  1  0  0  0
 10  6  1  0  0  0
  6  7  2  0  0  0
  6  8  1  0  0  0
  8  5  1  0  0  0
  5 18  1  0  0  0
 18 19  1  0  0  0
 19 20  2  0  0  0
 20 21  1  0  0  0
 21 22  2  0  0  0
 22 23  1  0  0  0
 23 24  2  0  0  0
  5  1  1  0  0  0
  1  2  2  0  0  0
  1  3  1  0  0  0
  3 25  1  0  0  0
 25 37  1  0  0  0
 37 38  1  0  0  0
 38 39  2  0  0  0
 39 40  1  0  0  0
 40 41  2  0  0  0
 41 42  1  0  0  0
 42 43  2  0  0  0
 25 26  1  0  0  0
 26 27  2  0  0  0
 26 28  1  0  0  0
 28 29  1  0  0  0
 29 30  1  0  0  0
 30 31  1  0  0  0
 31 32  1  0  0  0
 32 33  1  0  0  0
 33 34  1  0  0  0
 33 35  2  0  0  0
 24 19  1  0  0  0
 43 38  1  0  0  0
 32 28  1  0  0  0
 11 12  1  0  0  0
 11 13  1  0  0  0
  8  9  1  0  0  0
  3  4  1  0  0  0
 34 36  1  0  0  0
M  END
> <minimizedAffinity>
-6.13806

> <CNNscore>
0.3775143921

> <CNNaffinity>
7.3739495277

> <CNN_VS>
2.7837719917

> <CNNaffinity_variance>
0.1735477149

$$$$
[H]OC(=O)[C@@]1([H])N(C(=O)[C@@]([H])(N([H])C(=O)[C@@]([H])(N([H])C(=O)[C@@]([H])(N([H])[H])C([H])([H])C([H])(C([H])([H])[H])C([H])([H])[H])C([H])([H])c2c([H])c([H])c([H])c([H])c2[H])C([H])([H])c2c([H])c([H])c([H])c([H])c2[H])C([H])([H])C([H])([H])C1([H])[H]


 43 45  0  0  0  0  0  0  0  0999 V2000
   10.1495   24.0530    0.6998 C   0  0  0  0  0  0  0  0  0  0  0  0
   10.9922   24.6971    1.3684 O   0  0  0  0  0  0  0  0  0  0  0  0
   10.4503   23.5312   -0.5792 N   0  0  0  0  0  0  0  0  0  0  0  0
    9.7248   23.0044   -1.0882 H   0  0  0  0  0  0  0  0  0  0  0  0
    8.8070   23.8468    1.2902 C   0  0  0  0  0  0  0  0  0  0  0  0
    6.9235   22.2129    1.1069 C   0  0  0  0  0  0  0  0  0  0  0  0
    6.5848   22.4573    2.2917 O   0  0  0  0  0  0  0  0  0  0  0  0
    8.0320   22.8792    0.5463 N   0  0  0  0  0  0  0  0  0  0  0  0
    8.3051   22.6733   -0.4298 H   0  0  0  0  0  0  0  0  0  0  0  0
    6.1555   21.2318    0.3205 C   0  0  0  0  0  0  0  0  0  0  0  0
    5.6230   21.8030   -0.8976 N   0  0  0  0  0  0  0  0  0  0  0  0
    6.3965   22.1918   -1.4653 H   0  0  0  0  0  0  0  0  0  0  0  0
    4.9505   22.5736   -0.6580 H   0  0  0  0  0  0  0  0  0  0  0  0
    6.9879   20.0230   -0.0423 C   0  0  0  0  0  0  0  0  0  0  0  0
    6.9554   18.5813   -2.0842 C   0  0  0  0  0  0  0  0  0  0  0  0
    7.2655   19.9335   -1.5187 C   0  0  0  0  0  0  0  0  0  0  0  0
    8.7467   20.2099   -1.7034 C   0  0  0  0  0  0  0  0  0  0  0  0
    9.0516   23.2654    2.6769 C   0  0  0  0  0  0  0  0  0  0  0  0
    9.9983   22.1547    2.6916 C   0  0  0  0  0  0  0  0  0  0  0  0
   10.1180   21.3298    1.5984 C   0  0  0  0  0  0  0  0  0  0  0  0
   11.0121   20.2997    1.6358 C   0  0  0  0  0  0  0  0  0  0  0  0
   11.7929   20.0642    2.7305 C   0  0  0  0  0  0  0  0  0  0  0  0
   11.6939   20.8726    3.8361 C   0  0  0  0  0  0  0  0  0  0  0  0
   10.7941   21.9137    3.8052 C   0  0  0  0  0  0  0  0  0  0  0  0
   11.8001   23.7366   -1.1930 C   0  0  0  0  0  0  0  0  0  0  0  0
   12.8291   23.3359   -0.2290 C   0  0  0  0  0  0  0  0  0  0  0  0
   13.1428   24.2564    0.6208 O   0  0  0  0  0  0  0  0  0  0  0  0
   13.4896   22.1012   -0.1229 N   0  0  0  0  0  0  0  0  0  0  0  0
   13.2761   20.9511   -0.9664 C   0  0  0  0  0  0  0  0  0  0  0  0
   14.6636   20.2917   -0.9676 C   0  0  0  0  0  0  0  0  0  0  0  0
   14.8969   20.3137    0.5471 C   0  0  0  0  0  0  0  0  0  0  0  0
   14.4696   21.7350    0.8605 C   0  0  0  0  0  0  0  0  0  0  0  0
   15.6631   22.5592    0.9444 C   0  0  0  0  0  0  0  0  0  0  0  0
   15.7432   23.7015    0.1624 O   0  0  0  0  0  0  0  0  0  0  0  0
   16.6122   22.2755    1.6919 O   0  0  0  0  0  0  0  0  0  0  0  0
   16.4178   23.7492   -0.6014 H   0  0  0  0  0  0  0  0  0  0  0  0
   11.7959   25.1413   -1.6591 C   0  0  0  0  0  0  0  0  0  0  0  0
   12.8087   25.5500   -2.6300 C   0  0  0  0  0  0  0  0  0  0  0  0
   12.5943   26.6771   -3.3896 C   0  0  0  0  0  0  0  0  0  0  0  0
   13.5174   27.0996   -4.3213 C   0  0  0  0  0  0  0  0  0  0  0  0
   14.7000   26.4268   -4.5474 C   0  0  0  0  0  0  0  0  0  0  0  0
   14.9016   25.2951   -3.7751 C   0  0  0  0  0  0  0  0  0  0  0  0
   13.9891   24.8638   -2.8439 C   0  0  0  0  0  0  0  0  0  0  0  0
 15 16  1  0  0  0
 16 17  1  0  0  0
 16 14  1  0  0  0
 14 10  1  0  0  0
 10 11  1  0  0  0
 10  6  1  0  0  0
  6  7  2  0  0  0
  6  8  1  0  0  0
  8  5  1  0  0  0
  5 18  1  0  0  0
 18 19  1  0  0  0
 19 20  2  0  0  0
 20 21  1  0  0  0
 21 22  2  0  0  0
 22 23  1  0  0  0
 23 24  2  0  0  0
  5  1  1  0  0  0
  1  2  2  0  0  0
  1  3  1  0  0  0
  3 25  1  0  0  0
 25 37  1  0  0  0
 37 38  1  0  0  0
 38 39  2  0  0  0
 39 40  1  0  0  0
 40 41  2  0  0  0
 41 42  1  0  0  0
 42 43  2  0  0  0
 25 26  1  0  0  0
 26 27  2  0  0  0
 26 28  1  0  0  0
 28 29  1  0  0  0
 29 30  1  0  0  0
 30 31  1  0  0  0
 31 32  1  0  0  0
 32 33  1  0  0  0
 33 34  1  0  0  0
 33 35  2  0  0  0
 24 19  1  0  0  0
 43 38  1  0  0  0
 32 28  1  0  0  0
 11 12  1  0  0  0
 11 13  1  0  0  0
  8  9  1  0  0  0
  3  4  1  0  0  0
 34 36  1  0  0  0
M  END
> <minimizedAffinity>
-7.76938

> <CNNscore>
0.3320225775

> <CNNaffinity>
7.2817101479

> <CNN_VS>
2.4176921844

> <CNNaffinity_variance>
0.1758635044

$$$$
[H]OC(=O)[C@@]1([H])N(C(=O)[C@@]([H])(N([H])C(=O)[C@@]([H])(N([H])C(=O)[C@@]([H])(N([H])[H])C([H])([H])C([H])(C([H])([H])[H])C([H])([H])[H])C([H])([H])c2c([H])c([H])c([H])c([H])c2[H])C([H])([H])c2c([H])c([H])c([H])c([H])c2[H])C([H])([H])C([H])([H])C1([H])[H]


 43 45  0  0  0  0  0  0  0  0999 V2000
   11.4205   24.1842    0.0995 C   0  0  0  0  0  0  0  0  0  0  0  0
   12.0278   25.1332    0.6496 O   0  0  0  0  0  0  0  0  0  0  0  0
   10.4625   23.4081    0.7913 N   0  0  0  0  0  0  0  0  0  0  0  0
    9.9863   22.6407    0.2939 H   0  0  0  0  0  0  0  0  0  0  0  0
   11.7346   23.8884   -1.3172 C   0  0  0  0  0  0  0  0  0  0  0  0
   13.3302   25.3563   -2.5623 C   0  0  0  0  0  0  0  0  0  0  0  0
   12.3685   25.9799   -3.0767 O   0  0  0  0  0  0  0  0  0  0  0  0
   13.0764   24.2951   -1.6700 N   0  0  0  0  0  0  0  0  0  0  0  0
   13.8729   23.7862   -1.2498 H   0  0  0  0  0  0  0  0  0  0  0  0
   14.7106   25.7447   -2.9003 C   0  0  0  0  0  0  0  0  0  0  0  0
   15.6862   25.0856   -2.0592 N   0  0  0  0  0  0  0  0  0  0  0  0
   15.5730   24.0595   -2.1356 H   0  0  0  0  0  0  0  0  0  0  0  0
   15.5394   25.3750   -1.0602 H   0  0  0  0  0  0  0  0  0  0  0  0
   15.0440   25.4453   -4.3442 C   0  0  0  0  0  0  0  0  0  0  0  0
   15.3340   26.3784   -6.6451 C   0  0  0  0  0  0  0  0  0  0  0  0
   15.0252   26.6763   -5.2097 C   0  0  0  0  0  0  0  0  0  0  0  0
   16.0918   27.6100   -4.6665 C   0  0  0  0  0  0  0  0  0  0  0  0
   11.6698   22.3717   -1.4455 C   0  0  0  0  0  0  0  0  0  0  0  0
   12.8382   21.6842   -0.9046 C   0  0  0  0  0  0  0  0  0  0  0  0
   13.9759   21.5463   -1.6638 C   0  0  0  0  0  0  0  0  0  0  0  0
   15.0558   20.9016   -1.1346 C   0  0  0  0  0  0  0  0  0  0  0  0
   15.0386   20.3883    0.1302 C   0  0  0  0  0  0  0  0  0  0  0  0
   13.9154   20.5118    0.9103 C   0  0  0  0  0  0  0  0  0  0  0  0
   12.8223   21.1611    0.3829 C   0  0  0  0  0  0  0  0  0  0  0  0
   10.1385   23.6896    2.2254 C   0  0  0  0  0  0  0  0  0  0  0  0
   10.5950   22.5653    3.0478 C   0  0  0  0  0  0  0  0  0  0  0  0
   11.8624   22.3315    2.9649 O   0  0  0  0  0  0  0  0  0  0  0  0
    9.8362   21.7410    3.8944 N   0  0  0  0  0  0  0  0  0  0  0  0
    8.4169   21.8446    4.1283 C   0  0  0  0  0  0  0  0  0  0  0  0
    8.0291   20.3836    4.4022 C   0  0  0  0  0  0  0  0  0  0  0  0
    9.1280   20.0731    5.4245 C   0  0  0  0  0  0  0  0  0  0  0  0
   10.3279   20.6688    4.7130 C   0  0  0  0  0  0  0  0  0  0  0  0
   11.0358   19.5932    4.0400 C   0  0  0  0  0  0  0  0  0  0  0  0
   11.6075   18.5878    4.8048 O   0  0  0  0  0  0  0  0  0  0  0  0
   11.1455   19.5442    2.8048 O   0  0  0  0  0  0  0  0  0  0  0  0
   12.6228   18.4999    4.8533 H   0  0  0  0  0  0  0  0  0  0  0  0
    8.6941   24.0124    2.2324 C   0  0  0  0  0  0  0  0  0  0  0  0
    8.2384   25.1225    3.0662 C   0  0  0  0  0  0  0  0  0  0  0  0
    6.9363   25.1378    3.5107 C   0  0  0  0  0  0  0  0  0  0  0  0
    6.4588   26.1653    4.2950 C   0  0  0  0  0  0  0  0  0  0  0  0
    7.2475   27.2296    4.6789 C   0  0  0  0  0  0  0  0  0  0  0  0
    8.5553   27.1998    4.2243 C   0  0  0  0  0  0  0  0  0  0  0  0
    9.0426   26.1818    3.4419 C   0  0  0  0  0  0  0  0  0  0  0  0
 15 16  1  0  0  0
 16 17  1  0  0  0
 16 14  1  0  0  0
 14 10  1  0  0  0
 10 11  1  0  0  0
 10  6  1  0  0  0
  6  7  2  0  0  0
  6  8  1  0  0  0
  8  5  1  0  0  0
  5 18  1  0  0  0
 18 19  1  0  0  0
 19 20  2  0  0  0
 20 21  1  0  0  0
 21 22  2  0  0  0
 22 23  1  0  0  0
 23 24  2  0  0  0
  5  1  1  0  0  0
  1  2  2  0  0  0
  1  3  1  0  0  0
  3 25  1  0  0  0
 25 37  1  0  0  0
 37 38  1  0  0  0
 38 39  2  0  0  0
 39 40  1  0  0  0
 40 41  2  0  0  0
 41 42  1  0  0  0
 42 43  2  0  0  0
 25 26  1  0  0  0
 26 27  2  0  0  0
 26 28  1  0  0  0
 28 29  1  0  0  0
 29 30  1  0  0  0
 30 31  1  0  0  0
 31 32  1  0  0  0
 32 33  1  0  0  0
 33 34  1  0  0  0
 33 35  2  0  0  0
 24 19  1  0  0  0
 43 38  1  0  0  0
 32 28  1  0  0  0
 11 12  1  0  0  0
 11 13  1  0  0  0
  8  9  1  0  0  0
  3  4  1  0  0  0
 34 36  1  0  0  0
M  END
> <minimizedAffinity>
-8.60825

> <CNNscore>
0.3062359393

> <CNNaffinity>
7.1036901474

> <CNN_VS>
2.1754052639

> <CNNaffinity_variance>
0.0998047441

$$$$
[H]OC(=O)[C@@]1([H])N(C(=O)[C@@]([H])(N([H])C(=O)[C@@]([H])(N([H])C(=O)[C@@]([H])(N([H])[H])C([H])([H])C([H])(C([H])([H])[H])C([H])([H])[H])C([H])([H])c2c([H])c([H])c([H])c([H])c2[H])C([H])([H])c2c([H])c([H])c([H])c([H])c2[H])C([H])([H])C([H])([H])C1([H])[H]


 43 45  0  0  0  0  0  0  0  0999 V2000
   12.3798   24.7369   -1.0143 C   0  0  0  0  0  0  0  0  0  0  0  0
   11.5729   25.2006   -1.8546 O   0  0  0  0  0  0  0  0  0  0  0  0
   11.9541   24.2561    0.2451 N   0  0  0  0  0  0  0  0  0  0  0  0
   12.6555   23.8800    0.9005 H   0  0  0  0  0  0  0  0  0  0  0  0
   13.8153   24.7035   -1.3767 C   0  0  0  0  0  0  0  0  0  0  0  0
   14.9366   23.0678    0.1459 C   0  0  0  0  0  0  0  0  0  0  0  0
   14.8968   23.9015    1.0849 O   0  0  0  0  0  0  0  0  0  0  0  0
   14.4091   23.4114   -1.1152 N   0  0  0  0  0  0  0  0  0  0  0  0
   14.4448   22.7201   -1.8837 H   0  0  0  0  0  0  0  0  0  0  0  0
   15.5350   21.7416    0.3780 C   0  0  0  0  0  0  0  0  0  0  0  0
   16.0676   21.6081    1.7168 N   0  0  0  0  0  0  0  0  0  0  0  0
   15.3184   21.7898    2.4077 H   0  0  0  0  0  0  0  0  0  0  0  0
   16.8414   22.3045    1.8566 H   0  0  0  0  0  0  0  0  0  0  0  0
   14.5423   20.6255    0.1448 C   0  0  0  0  0  0  0  0  0  0  0  0
   12.7287   20.3074    1.8356 C   0  0  0  0  0  0  0  0  0  0  0  0
   13.1468   20.9938    0.5713 C   0  0  0  0  0  0  0  0  0  0  0  0
   12.2177   20.5593   -0.5480 C   0  0  0  0  0  0  0  0  0  0  0  0
   13.8656   24.9316   -2.8821 C   0  0  0  0  0  0  0  0  0  0  0  0
   14.8922   25.8809   -3.3003 C   0  0  0  0  0  0  0  0  0  0  0  0
   14.7093   26.6514   -4.4240 C   0  0  0  0  0  0  0  0  0  0  0  0
   15.6829   27.5333   -4.7929 C   0  0  0  0  0  0  0  0  0  0  0  0
   16.8363   27.6728   -4.0762 C   0  0  0  0  0  0  0  0  0  0  0  0
   17.0451   26.9160   -2.9496 C   0  0  0  0  0  0  0  0  0  0  0  0
   16.0670   26.0242   -2.5717 C   0  0  0  0  0  0  0  0  0  0  0  0
   10.5077   24.2891    0.6296 C   0  0  0  0  0  0  0  0  0  0  0  0
   10.3730   23.8469    2.0207 C   0  0  0  0  0  0  0  0  0  0  0  0
   11.1489   22.8649    2.3395 O   0  0  0  0  0  0  0  0  0  0  0  0
    9.5264   24.3564    3.0184 N   0  0  0  0  0  0  0  0  0  0  0  0
    8.5976   25.4489    2.8646 C   0  0  0  0  0  0  0  0  0  0  0  0
    7.4835   25.0644    3.8500 C   0  0  0  0  0  0  0  0  0  0  0  0
    8.3794   24.7575    5.0551 C   0  0  0  0  0  0  0  0  0  0  0  0
    9.4489   23.9175    4.3833 C   0  0  0  0  0  0  0  0  0  0  0  0
    9.1353   22.5172    4.6114 C   0  0  0  0  0  0  0  0  0  0  0  0
   10.1769   21.6093    4.7279 O   0  0  0  0  0  0  0  0  0  0  0  0
    7.9679   22.1072    4.7057 O   0  0  0  0  0  0  0  0  0  0  0  0
   10.3191   20.9024    4.0061 H   0  0  0  0  0  0  0  0  0  0  0  0
    9.8181   23.5031   -0.4178 C   0  0  0  0  0  0  0  0  0  0  0  0
    8.8394   22.5023    0.0015 C   0  0  0  0  0  0  0  0  0  0  0  0
    9.0209   21.1895   -0.3686 C   0  0  0  0  0  0  0  0  0  0  0  0
    8.1230   20.2108   -0.0017 C   0  0  0  0  0  0  0  0  0  0  0  0
    6.9998   20.4833    0.7508 C   0  0  0  0  0  0  0  0  0  0  0  0
    6.8311   21.8084    1.1159 C   0  0  0  0  0  0  0  0  0  0  0  0
    7.7186   22.7927    0.7561 C   0  0  0  0  0  0  0  0  0  0  0  0
 15 16  1  0  0  0
 16 17  1  0  0  0
 16 14  1  0  0  0
 14 10  1  0  0  0
 10 11  1  0  0  0
 10  6  1  0  0  0
  6  7  2  0  0  0
  6  8  1  0  0  0
  8  5  1  0  0  0
  5 18  1  0  0  0
 18 19  1  0  0  0
 19 20  2  0  0  0
 20 21  1  0  0  0
 21 22  2  0  0  0
 22 23  1  0  0  0
 23 24  2  0  0  0
  5  1  1  0  0  0
  1  2  2  0  0  0
  1  3  1  0  0  0
  3 25  1  0  0  0
 25 37  1  0  0  0
 37 38  1  0  0  0
 38 39  2  0  0  0
 39 40  1  0  0  0
 40 41  2  0  0  0
 41 42  1  0  0  0
 42 43  2  0  0  0
 25 26  1  0  0  0
 26 27  2  0  0  0
 26 28  1  0  0  0
 28 29  1  0  0  0
 29 30  1  0  0  0
 30 31  1  0  0  0
 31 32  1  0  0  0
 32 33  1  0  0  0
 33 34  1  0  0  0
 33 35  2  0  0  0
 24 19  1  0  0  0
 43 38  1  0  0  0
 32 28  1  0  0  0
 11 12  1  0  0  0
 11 13  1  0  0  0
  8  9  1  0  0  0
  3  4  1  0  0  0
 34 36  1  0  0  0
M  END
> <minimizedAffinity>
-8.14466

> <CNNscore>
0.2893987000

> <CNNaffinity>
7.2989854813

> <CNN_VS>
2.1123168468

> <CNNaffinity_variance>
0.2658467889

$$$$
[H]OC(=O)[C@@]1([H])N(C(=O)[C@@]([H])(N([H])C(=O)[C@@]([H])(N([H])C(=O)[C@@]([H])(N([H])[H])C([H])([H])C([H])(C([H])([H])[H])C([H])([H])[H])C([H])([H])c2c([H])c([H])c([H])c([H])c2[H])C([H])([H])c2c([H])c([H])c([H])c([H])c2[H])C([H])([H])C([H])([H])C1([H])[H]


 43 45  0  0  0  0  0  0  0  0999 V2000
   10.6360   24.0182    0.7364 C   0  0  0  0  0  0  0  0  0  0  0  0
   11.3203   23.3575    1.5532 O   0  0  0  0  0  0  0  0  0  0  0  0
   11.1721   24.4794   -0.4878 N   0  0  0  0  0  0  0  0  0  0  0  0
   10.5679   25.0153   -1.1287 H   0  0  0  0  0  0  0  0  0  0  0  0
    9.2275   24.3107    1.0885 C   0  0  0  0  0  0  0  0  0  0  0  0
    8.0203   22.1222    1.0241 C   0  0  0  0  0  0  0  0  0  0  0  0
    8.5690   21.7781    2.1006 O   0  0  0  0  0  0  0  0  0  0  0  0
    8.3104   23.3831    0.4648 N   0  0  0  0  0  0  0  0  0  0  0  0
    7.8549   23.6601   -0.4215 H   0  0  0  0  0  0  0  0  0  0  0  0
    7.0806   21.2008    0.3618 C   0  0  0  0  0  0  0  0  0  0  0  0
    6.0519   21.9035   -0.3741 N   0  0  0  0  0  0  0  0  0  0  0  0
    6.4912   22.5305   -1.0710 H   0  0  0  0  0  0  0  0  0  0  0  0
    5.4760   22.4774    0.2909 H   0  0  0  0  0  0  0  0  0  0  0  0
    7.7872   20.2583   -0.5858 C   0  0  0  0  0  0  0  0  0  0  0  0
    7.2858   17.8499   -1.0301 C   0  0  0  0  0  0  0  0  0  0  0  0
    6.8496   19.2698   -1.2250 C   0  0  0  0  0  0  0  0  0  0  0  0
    6.8383   19.5753   -2.7121 C   0  0  0  0  0  0  0  0  0  0  0  0
    9.1284   24.1057    2.5949 C   0  0  0  0  0  0  0  0  0  0  0  0
    8.3629   25.1414    3.2814 C   0  0  0  0  0  0  0  0  0  0  0  0
    8.9187   26.3771    3.5133 C   0  0  0  0  0  0  0  0  0  0  0  0
    8.1816   27.3294    4.1550 C   0  0  0  0  0  0  0  0  0  0  0  0
    6.9049   27.0894    4.5743 C   0  0  0  0  0  0  0  0  0  0  0  0
    6.3251   25.8640    4.3557 C   0  0  0  0  0  0  0  0  0  0  0  0
    7.0629   24.8987    3.7089 C   0  0  0  0  0  0  0  0  0  0  0  0
   12.5957   24.1983   -0.8556 C   0  0  0  0  0  0  0  0  0  0  0  0
   13.0341   25.1794   -1.8527 C   0  0  0  0  0  0  0  0  0  0  0  0
   12.0687   25.8263   -2.4161 O   0  0  0  0  0  0  0  0  0  0  0  0
   14.3443   25.4914   -2.2501 N   0  0  0  0  0  0  0  0  0  0  0  0
   15.5508   24.8903   -1.7374 C   0  0  0  0  0  0  0  0  0  0  0  0
   16.4861   24.9594   -2.9542 C   0  0  0  0  0  0  0  0  0  0  0  0
   16.2481   26.4320   -3.3062 C   0  0  0  0  0  0  0  0  0  0  0  0
   14.7355   26.4870   -3.2079 C   0  0  0  0  0  0  0  0  0  0  0  0
   14.1894   26.3660   -4.5488 C   0  0  0  0  0  0  0  0  0  0  0  0
   13.0312   27.0601   -4.8642 O   0  0  0  0  0  0  0  0  0  0  0  0
   14.7244   25.6631   -5.4205 O   0  0  0  0  0  0  0  0  0  0  0  0
   12.1666   26.5507   -5.0482 H   0  0  0  0  0  0  0  0  0  0  0  0
   12.6147   22.7679   -1.2353 C   0  0  0  0  0  0  0  0  0  0  0  0
   13.6199   21.9034   -0.6208 C   0  0  0  0  0  0  0  0  0  0  0  0
   14.4694   22.4289    0.3256 C   0  0  0  0  0  0  0  0  0  0  0  0
   15.4364   21.6549    0.9293 C   0  0  0  0  0  0  0  0  0  0  0  0
   15.6106   20.3208    0.6261 C   0  0  0  0  0  0  0  0  0  0  0  0
   14.7481   19.8063   -0.3274 C   0  0  0  0  0  0  0  0  0  0  0  0
   13.7809   20.5676   -0.9364 C   0  0  0  0  0  0  0  0  0  0  0  0
 15 16  1  0  0  0
 16 17  1  0  0  0
 16 14  1  0  0  0
 14 10  1  0  0  0
 10 11  1  0  0  0
 10  6  1  0  0  0
  6  7  2  0  0  0
  6  8  1  0  0  0
  8  5  1  0  0  0
  5 18  1  0  0  0
 18 19  1  0  0  0
 19 20  2  0  0  0
 20 21  1  0  0  0
 21 22  2  0  0  0
 22 23  1  0  0  0
 23 24  2  0  0  0
  5  1  1  0  0  0
  1  2  2  0  0  0
  1  3  1  0  0  0
  3 25  1  0  0  0
 25 37  1  0  0  0
 37 38  1  0  0  0
 38 39  2  0  0  0
 39 40  1  0  0  0
 40 41  2  0  0  0
 41 42  1  0  0  0
 42 43  2  0  0  0
 25 26  1  0  0  0
 26 27  2  0  0  0
 26 28  1  0  0  0
 28 29  1  0  0  0
 29 30  1  0  0  0
 30 31  1  0  0  0
 31 32  1  0  0  0
 32 33  1  0  0  0
 33 34  1  0  0  0
 33 35  2  0  0  0
 24 19  1  0  0  0
 43 38  1  0  0  0
 32 28  1  0  0  0
 11 12  1  0  0  0
 11 13  1  0  0  0
  8  9  1  0  0  0
  3  4  1  0  0  0
 34 36  1  0  0  0
M  END
> <minimizedAffinity>
-7.63949

> <CNNscore>
0.2691651583

> <CNNaffinity>
7.2212462425

> <CNN_VS>
1.9437079430

> <CNNaffinity_variance>
0.0422158130

$$$$
[H]OC(=O)[C@@]1([H])N(C(=O)[C@@]([H])(N([H])C(=O)[C@@]([H])(N([H])C(=O)[C@@]([H])(N([H])[H])C([H])([H])C([H])(C([H])([H])[H])C([H])([H])[H])C([H])([H])c2c([H])c([H])c([H])c([H])c2[H])C([H])([H])c2c([H])c([H])c([H])c([H])c2[H])C([H])([H])C([H])([H])C1([H])[H]


 43 45  0  0  0  0  0  0  0  0999 V2000
   11.3388   23.4219    1.2525 C   0  0  0  0  0  0  0  0  0  0  0  0
   12.2651   22.9172    1.9301 O   0  0  0  0  0  0  0  0  0  0  0  0
   11.5073   23.7604   -0.1098 N   0  0  0  0  0  0  0  0  0  0  0  0
   10.7139   24.1691   -0.6259 H   0  0  0  0  0  0  0  0  0  0  0  0
   10.0398   23.6603    1.9227 C   0  0  0  0  0  0  0  0  0  0  0  0
    9.1823   21.8479    3.4163 C   0  0  0  0  0  0  0  0  0  0  0  0
    8.5213   21.3639    2.4638 O   0  0  0  0  0  0  0  0  0  0  0  0
    9.9652   23.0012    3.2074 N   0  0  0  0  0  0  0  0  0  0  0  0
   10.5071   23.3942    3.9959 H   0  0  0  0  0  0  0  0  0  0  0  0
    9.1287   21.2012    4.7390 C   0  0  0  0  0  0  0  0  0  0  0  0
    8.5649   19.8701    4.6752 N   0  0  0  0  0  0  0  0  0  0  0  0
    9.1143   19.2922    4.0151 H   0  0  0  0  0  0  0  0  0  0  0  0
    7.5714   19.9267    4.3390 H   0  0  0  0  0  0  0  0  0  0  0  0
   10.4952   21.1115    5.3795 C   0  0  0  0  0  0  0  0  0  0  0  0
   11.6028   19.8602    3.5203 C   0  0  0  0  0  0  0  0  0  0  0  0
   11.2436   19.8702    4.9748 C   0  0  0  0  0  0  0  0  0  0  0  0
   10.3263   18.6940    5.2572 C   0  0  0  0  0  0  0  0  0  0  0  0
    9.9765   25.1612    2.1764 C   0  0  0  0  0  0  0  0  0  0  0  0
    8.9350   25.5560    3.1194 C   0  0  0  0  0  0  0  0  0  0  0  0
    9.2281   26.3988    4.1651 C   0  0  0  0  0  0  0  0  0  0  0  0
    8.2362   26.7551    5.0319 C   0  0  0  0  0  0  0  0  0  0  0  0
    6.9581   26.2973    4.8899 C   0  0  0  0  0  0  0  0  0  0  0  0
    6.6375   25.4544    3.8545 C   0  0  0  0  0  0  0  0  0  0  0  0
    7.6331   25.0909    2.9763 C   0  0  0  0  0  0  0  0  0  0  0  0
   12.8158   23.5323   -0.8002 C   0  0  0  0  0  0  0  0  0  0  0  0
   13.1360   24.7067   -1.6170 C   0  0  0  0  0  0  0  0  0  0  0  0
   12.1287   25.4825   -1.8431 O   0  0  0  0  0  0  0  0  0  0  0  0
   14.3765   25.0770   -2.1612 N   0  0  0  0  0  0  0  0  0  0  0  0
   15.6152   24.3529   -2.0165 C   0  0  0  0  0  0  0  0  0  0  0  0
   16.3345   24.6804   -3.3337 C   0  0  0  0  0  0  0  0  0  0  0  0
   16.1264   26.1986   -3.3034 C   0  0  0  0  0  0  0  0  0  0  0  0
   14.6577   26.2574   -2.9289 C   0  0  0  0  0  0  0  0  0  0  0  0
   13.8874   26.4553   -4.1448 C   0  0  0  0  0  0  0  0  0  0  0  0
   12.6507   27.0765   -4.0591 O   0  0  0  0  0  0  0  0  0  0  0  0
   14.2989   26.0875   -5.2563 O   0  0  0  0  0  0  0  0  0  0  0  0
   11.8002   26.5458   -4.2486 H   0  0  0  0  0  0  0  0  0  0  0  0
   12.6609   22.2308   -1.4877 C   0  0  0  0  0  0  0  0  0  0  0  0
   11.4658   21.4386   -1.2057 C   0  0  0  0  0  0  0  0  0  0  0  0
   11.5397   20.4151   -0.2891 C   0  0  0  0  0  0  0  0  0  0  0  0
   10.4414   19.6372    0.0066 C   0  0  0  0  0  0  0  0  0  0  0  0
    9.2141   19.8342   -0.5909 C   0  0  0  0  0  0  0  0  0  0  0  0
    9.1553   20.8680   -1.5105 C   0  0  0  0  0  0  0  0  0  0  0  0
   10.2429   21.6497   -1.8139 C   0  0  0  0  0  0  0  0  0  0  0  0
 15 16  1  0  0  0
 16 17  1  0  0  0
 16 14  1  0  0  0
 14 10  1  0  0  0
 10 11  1  0  0  0
 10  6  1  0  0  0
  6  7  2  0  0  0
  6  8  1  0  0  0
  8  5  1  0  0  0
  5 18  1  0  0  0
 18 19  1  0  0  0
 19 20  2  0  0  0
 20 21  1  0  0  0
 21 22  2  0  0  0
 22 23  1  0  0  0
 23 24  2  0  0  0
  5  1  1  0  0  0
  1  2  2  0  0  0
  1  3  1  0  0  0
  3 25  1  0  0  0
 25 37  1  0  0  0
 37 38  1  0  0  0
 38 39  2  0  0  0
 39 40  1  0  0  0
 40 41  2  0  0  0
 41 42  1  0  0  0
 42 43  2  0  0  0
 25 26  1  0  0  0
 26 27  2  0  0  0
 26 28  1  0  0  0
 28 29  1  0  0  0
 29 30  1  0  0  0
 30 31  1  0  0  0
 31 32  1  0  0  0
 32 33  1  0  0  0
 33 34  1  0  0  0
 33 35  2  0  0  0
 24 19  1  0  0  0
 43 38  1  0  0  0
 32 28  1  0  0  0
 11 12  1  0  0  0
 11 13  1  0  0  0
  8  9  1  0  0  0
  3  4  1  0  0  0
 34 36  1  0  0  0
M  END
> <minimizedAffinity>
-7.31727

> <CNNscore>
0.2495162040

> <CNNaffinity>
6.8103041649

> <CNN_VS>
1.6992812157

> <CNNaffinity_variance>
0.1921149343

$$$$
[H]O[C@@]1([H])[C@]([H])(O[H])[C@@]([H])(O[H])[C@]([H])(n2c([H])nc3c(N([H])[H])nc([H])nc32)O[C@]1([H])C([H])([H])OP(=O)(O[H])O[H]


 32 34  0  0  0  0  0  0  0  0999 V2000
   13.7859   23.8405   -2.2088 C   0  0  0  0  0  0  0  0  0  0  0  0
   12.9137   24.3061   -1.2802 O   0  0  0  0  0  0  0  0  0  0  0  0
   11.9943   23.4801   -0.7546 C   0  0  0  0  0  0  0  0  0  0  0  0
   12.3346   22.0354   -0.6522 C   0  0  0  0  0  0  0  0  0  0  0  0
   11.1747   21.2313   -0.6467 O   0  0  0  0  0  0  0  0  0  0  0  0
   13.2324   21.5140   -1.7138 C   0  0  0  0  0  0  0  0  0  0  0  0
   13.8025   20.2971   -1.2780 O   0  0  0  0  0  0  0  0  0  0  0  0
   14.3394   22.4716   -1.9516 C   0  0  0  0  0  0  0  0  0  0  0  0
   15.0035   22.0739   -3.1335 O   0  0  0  0  0  0  0  0  0  0  0  0
   11.3872   20.3999   -0.1715 H   0  0  0  0  0  0  0  0  0  0  0  0
   14.6829   20.1566   -1.7012 H   0  0  0  0  0  0  0  0  0  0  0  0
   15.9808   22.1291   -3.0165 H   0  0  0  0  0  0  0  0  0  0  0  0
   17.9564   28.0162   -3.7768 N   0  0  0  0  0  0  0  0  0  0  0  0
   16.7356   27.3210   -4.0055 C   0  0  0  0  0  0  0  0  0  0  0  0
   15.9597   27.5854   -5.0722 N   0  0  0  0  0  0  0  0  0  0  0  0
   14.7965   26.9102   -5.2733 C   0  0  0  0  0  0  0  0  0  0  0  0
   14.3702   25.9565   -4.4257 N   0  0  0  0  0  0  0  0  0  0  0  0
   15.1103   25.6503   -3.3378 C   0  0  0  0  0  0  0  0  0  0  0  0
   14.9102   24.7530   -2.3535 N   0  0  0  0  0  0  0  0  0  0  0  0
   15.9769   24.8887   -1.5383 C   0  0  0  0  0  0  0  0  0  0  0  0
   16.8070   25.8419   -2.0095 N   0  0  0  0  0  0  0  0  0  0  0  0
   16.2887   26.3388   -3.1400 C   0  0  0  0  0  0  0  0  0  0  0  0
   18.8646   27.5065   -3.7041 H   0  0  0  0  0  0  0  0  0  0  0  0
   18.0049   29.0504   -3.6724 H   0  0  0  0  0  0  0  0  0  0  0  0
   11.5479   24.0116    0.5931 C   0  0  0  0  0  0  0  0  0  0  0  0
   11.7081   23.0555    1.5863 O   0  0  0  0  0  0  0  0  0  0  0  0
   10.3610   22.8014    2.5124 P   0  0  0  0  0  0  0  0  0  0  0  0
   10.6385   21.9070    3.9047 O   0  0  0  0  0  0  0  0  0  0  0  0
    9.7334   24.3057    2.9799 O   0  0  0  0  0  0  0  0  0  0  0  0
    9.2819   22.1125    1.7032 O   0  0  0  0  0  0  0  0  0  0  0  0
   11.5500   22.0079    4.2625 H   0  0  0  0  0  0  0  0  0  0  0  0
   10.5319   24.8835    3.1920 H   0  0  0  0  0  0  0  0  0  0  0  0
 13 14  1  0  0  0
 14 15  2  0  0  0
 15 16  1  0  0  0
 16 17  2  0  0  0
 17 18  1  0  0  0
 18 19  1  0  0  0
 19 20  1  0  0  0
 20 21  2  0  0  0
 21 22  1  0  0  0
 19  1  1  0  0  0
  1  2  1  0  0  0
  2  3  1  0  0  0
  3 25  1  0  0  0
 25 26  1  0  0  0
 26 27  1  0  0  0
 27 28  1  0  0  0
 27 29  1  0  0  0
 27 30  2  0  0  0
  3  4  1  0  0  0
  4  5  1  0  0  0
  4  6  1  0  0  0
  6  7  1  0  0  0
  6  8  1  0  0  0
  8  9  1  0  0  0
 22 14  1  0  0  0
  8  1  1  0  0  0
 22 18  2  0  0  0
 13 23  1  0  0  0
 13 24  1  0  0  0
 28 31  1  0  0  0
 29 32  1  0  0  0
  5 10  1  0  0  0
  7 11  1  0  0  0
  9 12  1  0  0  0
M  END
> <minimizedAffinity>
-8.36318

> <CNNscore>
0.5735417604

> <CNNaffinity>
5.9473948479

> <CNN_VS>
3.4110794067

> <CNNaffinity_variance>
0.4736923575

$$$$
[H]O[C@@]1([H])[C@]([H])(O[H])[C@@]([H])(O[H])[C@]([H])(n2c([H])nc3c(N([H])[H])nc([H])nc32)O[C@]1([H])C([H])([H])OP(=O)(O[H])O[H]


 32 34  0  0  0  0  0  0  0  0999 V2000
   13.1525   25.4057   -1.6501 C   0  0  0  0  0  0  0  0  0  0  0  0
   14.2038   24.8709   -0.9804 O   0  0  0  0  0  0  0  0  0  0  0  0
   13.9957   24.2094    0.1699 C   0  0  0  0  0  0  0  0  0  0  0  0
   12.6962   23.5060    0.3426 C   0  0  0  0  0  0  0  0  0  0  0  0
   12.3648   23.3620    1.7069 O   0  0  0  0  0  0  0  0  0  0  0  0
   11.5341   24.1364   -0.3334 C   0  0  0  0  0  0  0  0  0  0  0  0
   10.4976   23.1838   -0.4514 O   0  0  0  0  0  0  0  0  0  0  0  0
   11.9167   24.5591   -1.7023 C   0  0  0  0  0  0  0  0  0  0  0  0
   10.8824   25.3817   -2.2017 O   0  0  0  0  0  0  0  0  0  0  0  0
   11.7845   22.5759    1.7943 H   0  0  0  0  0  0  0  0  0  0  0  0
    9.9320   23.3835   -1.2351 H   0  0  0  0  0  0  0  0  0  0  0  0
   10.6788   25.1513   -3.1383 H   0  0  0  0  0  0  0  0  0  0  0  0
   15.4246   25.8118   -7.3035 N   0  0  0  0  0  0  0  0  0  0  0  0
   15.3410   25.1775   -6.0320 C   0  0  0  0  0  0  0  0  0  0  0  0
   16.0670   24.0838   -5.7375 N   0  0  0  0  0  0  0  0  0  0  0  0
   15.9731   23.4921   -4.5167 C   0  0  0  0  0  0  0  0  0  0  0  0
   15.1596   23.9657   -3.5556 N   0  0  0  0  0  0  0  0  0  0  0  0
   14.4076   25.0617   -3.7972 C   0  0  0  0  0  0  0  0  0  0  0  0
   13.5299   25.7236   -3.0191 N   0  0  0  0  0  0  0  0  0  0  0  0
   13.0826   26.7391   -3.7869 C   0  0  0  0  0  0  0  0  0  0  0  0
   13.6694   26.7006   -5.0009 N   0  0  0  0  0  0  0  0  0  0  0  0
   14.5078   25.6567   -5.0372 C   0  0  0  0  0  0  0  0  0  0  0  0
   15.7060   26.8133   -7.3918 H   0  0  0  0  0  0  0  0  0  0  0  0
   15.2132   25.3178   -8.1946 H   0  0  0  0  0  0  0  0  0  0  0  0
   15.1469   23.2554    0.4204 C   0  0  0  0  0  0  0  0  0  0  0  0
   14.9256   22.0313   -0.1948 O   0  0  0  0  0  0  0  0  0  0  0  0
   15.1648   20.7211    0.7866 P   0  0  0  0  0  0  0  0  0  0  0  0
   15.7013   19.3473   -0.0136 O   0  0  0  0  0  0  0  0  0  0  0  0
   16.3244   21.1250    1.9560 O   0  0  0  0  0  0  0  0  0  0  0  0
   13.8935   20.3784    1.5349 O   0  0  0  0  0  0  0  0  0  0  0  0
   16.2295   19.5428   -0.8210 H   0  0  0  0  0  0  0  0  0  0  0  0
   17.0193   21.6757    1.4764 H   0  0  0  0  0  0  0  0  0  0  0  0
 13 14  1  0  0  0
 14 15  2  0  0  0
 15 16  1  0  0  0
 16 17  2  0  0  0
 17 18  1  0  0  0
 18 19  1  0  0  0
 19 20  1  0  0  0
 20 21  2  0  0  0
 21 22  1  0  0  0
 19  1  1  0  0  0
  1  2  1  0  0  0
  2  3  1  0  0  0
  3 25  1  0  0  0
 25 26  1  0  0  0
 26 27  1  0  0  0
 27 28  1  0  0  0
 27 29  1  0  0  0
 27 30  2  0  0  0
  3  4  1  0  0  0
  4  5  1  0  0  0
  4  6  1  0  0  0
  6  7  1  0  0  0
  6  8  1  0  0  0
  8  9  1  0  0  0
 22 14  1  0  0  0
  8  1  1  0  0  0
 22 18  2  0  0  0
 13 23  1  0  0  0
 13 24  1  0  0  0
 28 31  1  0  0  0
 29 32  1  0  0  0
  5 10  1  0  0  0
  7 11  1  0  0  0
  9 12  1  0  0  0
M  END
> <minimizedAffinity>
-2.38531

> <CNNscore>
0.5145061612

> <CNNaffinity>
5.5325975418

> <CNN_VS>
2.8465554714

> <CNNaffinity_variance>
0.3003371954

$$$$
[H]O[C@@]1([H])[C@]([H])(O[H])[C@@]([H])(O[H])[C@]([H])(n2c([H])nc3c(N([H])[H])nc([H])nc32)O[C@]1([H])C([H])([H])OP(=O)(O[H])O[H]


 32 34  0  0  0  0  0  0  0  0999 V2000
   13.6086   21.3717   -1.2094 C   0  0  0  0  0  0  0  0  0  0  0  0
   12.3008   21.4963   -1.5471 O   0  0  0  0  0  0  0  0  0  0  0  0
   11.3604   20.8777   -0.8145 C   0  0  0  0  0  0  0  0  0  0  0  0
   11.6350   20.6625    0.6317 C   0  0  0  0  0  0  0  0  0  0  0  0
   10.9086   19.5629    1.1369 O   0  0  0  0  0  0  0  0  0  0  0  0
   13.0617   20.4541    0.9867 C   0  0  0  0  0  0  0  0  0  0  0  0
   13.2309   20.6870    2.3698 O   0  0  0  0  0  0  0  0  0  0  0  0
   13.9091   21.4287    0.2579 C   0  0  0  0  0  0  0  0  0  0  0  0
   15.2545   21.0264    0.4123 O   0  0  0  0  0  0  0  0  0  0  0  0
   10.7745   19.7068    2.0979 H   0  0  0  0  0  0  0  0  0  0  0  0
   14.1491   20.9953    2.5588 H   0  0  0  0  0  0  0  0  0  0  0  0
   15.8288   21.8049    0.6022 H   0  0  0  0  0  0  0  0  0  0  0  0
   17.0398   26.1335   -2.8948 N   0  0  0  0  0  0  0  0  0  0  0  0
   16.3570   25.3724   -1.9046 C   0  0  0  0  0  0  0  0  0  0  0  0
   16.3541   25.7364   -0.6094 N   0  0  0  0  0  0  0  0  0  0  0  0
   15.6958   24.9957    0.3219 C   0  0  0  0  0  0  0  0  0  0  0  0
   15.0236   23.8766   -0.0024 N   0  0  0  0  0  0  0  0  0  0  0  0
   14.9934   23.4645   -1.2887 C   0  0  0  0  0  0  0  0  0  0  0  0
   14.4035   22.3995   -1.8647 N   0  0  0  0  0  0  0  0  0  0  0  0
   14.7121   22.4983   -3.1746 C   0  0  0  0  0  0  0  0  0  0  0  0
   15.4696   23.5925   -3.3951 N   0  0  0  0  0  0  0  0  0  0  0  0
   15.6631   24.2203   -2.2279 C   0  0  0  0  0  0  0  0  0  0  0  0
   16.5334   26.5322   -3.7161 H   0  0  0  0  0  0  0  0  0  0  0  0
   18.0611   26.3280   -2.8511 H   0  0  0  0  0  0  0  0  0  0  0  0
   10.0310   21.5828   -0.9977 C   0  0  0  0  0  0  0  0  0  0  0  0
    9.8173   22.5169    0.0062 O   0  0  0  0  0  0  0  0  0  0  0  0
    8.4823   22.2235    0.9382 P   0  0  0  0  0  0  0  0  0  0  0  0
    8.5854   22.8247    2.5013 O   0  0  0  0  0  0  0  0  0  0  0  0
    7.1359   22.9390    0.1962 O   0  0  0  0  0  0  0  0  0  0  0  0
    8.2005   20.7372    1.0102 O   0  0  0  0  0  0  0  0  0  0  0  0
    9.1549   23.6238    2.5793 H   0  0  0  0  0  0  0  0  0  0  0  0
    7.4579   23.8234   -0.1652 H   0  0  0  0  0  0  0  0  0  0  0  0
 13 14  1  0  0  0
 14 15  2  0  0  0
 15 16  1  0  0  0
 16 17  2  0  0  0
 17 18  1  0  0  0
 18 19  1  0  0  0
 19 20  1  0  0  0
 20 21  2  0  0  0
 21 22  1  0  0  0
 19  1  1  0  0  0
  1  2  1  0  0  0
  2  3  1  0  0  0
  3 25  1  0  0  0
 25 26  1  0  0  0
 26 27  1  0  0  0
 27 28  1  0  0  0
 27 29  1  0  0  0
 27 30  2  0  0  0
  3  4  1  0  0  0
  4  5  1  0  0  0
  4  6  1  0  0  0
  6  7  1  0  0  0
  6  8  1  0  0  0
  8  9  1  0  0  0
 22 14  1  0  0  0
  8  1  1  0  0  0
 22 18  2  0  0  0
 13 23  1  0  0  0
 13 24  1  0  0  0
 28 31  1  0  0  0
 29 32  1  0  0  0
  5 10  1  0  0  0
  7 11  1  0  0  0
  9 12  1  0  0  0
M  END
> <minimizedAffinity>
-6.41277

> <CNNscore>
0.3793450594

> <CNNaffinity>
5.7594261169

> <CNN_VS>
2.1848099232

> <CNNaffinity_variance>
0.3493173718

$$$$
[H]O[C@@]1([H])[C@]([H])(O[H])[C@@]([H])(O[H])[C@]([H])(n2c([H])nc3c(N([H])[H])nc([H])nc32)O[C@]1([H])C([H])([H])OP(=O)(O[H])O[H]


 32 34  0  0  0  0  0  0  0  0999 V2000
   13.8555   22.6754   -1.2337 C   0  0  0  0  0  0  0  0  0  0  0  0
   12.7936   21.9039   -0.8913 O   0  0  0  0  0  0  0  0  0  0  0  0
   12.9675   20.8557   -0.0698 C   0  0  0  0  0  0  0  0  0  0  0  0
   14.0581   20.9357    0.9390 C   0  0  0  0  0  0  0  0  0  0  0  0
   14.5074   19.6520    1.3161 O   0  0  0  0  0  0  0  0  0  0  0  0
   15.2496   21.7219    0.5302 C   0  0  0  0  0  0  0  0  0  0  0  0
   15.9890   22.0701    1.6825 O   0  0  0  0  0  0  0  0  0  0  0  0
   14.8209   22.9795   -0.1283 C   0  0  0  0  0  0  0  0  0  0  0  0
   15.9602   23.5568   -0.7323 O   0  0  0  0  0  0  0  0  0  0  0  0
   14.8763   19.7167    2.2227 H   0  0  0  0  0  0  0  0  0  0  0  0
   16.4859   22.9097    1.5339 H   0  0  0  0  0  0  0  0  0  0  0  0
   15.9822   24.5291   -0.5707 H   0  0  0  0  0  0  0  0  0  0  0  0
   12.8097   27.8244   -4.3453 N   0  0  0  0  0  0  0  0  0  0  0  0
   13.5318   26.6163   -4.1332 C   0  0  0  0  0  0  0  0  0  0  0  0
   14.5482   26.2492   -4.9346 N   0  0  0  0  0  0  0  0  0  0  0  0
   15.2260   25.0909   -4.7155 C   0  0  0  0  0  0  0  0  0  0  0  0
   14.9171   24.2655   -3.6990 N   0  0  0  0  0  0  0  0  0  0  0  0
   13.9050   24.5850   -2.8630 C   0  0  0  0  0  0  0  0  0  0  0  0
   13.4054   23.9425   -1.7900 N   0  0  0  0  0  0  0  0  0  0  0  0
   12.4022   24.7304   -1.3500 C   0  0  0  0  0  0  0  0  0  0  0  0
   12.2902   25.8245   -2.1310 N   0  0  0  0  0  0  0  0  0  0  0  0
   13.2220   25.7611   -3.0910 C   0  0  0  0  0  0  0  0  0  0  0  0
   12.7557   28.5600   -3.6065 H   0  0  0  0  0  0  0  0  0  0  0  0
   12.3075   28.0324   -5.2327 H   0  0  0  0  0  0  0  0  0  0  0  0
   11.6524   20.5171    0.6039 C   0  0  0  0  0  0  0  0  0  0  0  0
   11.0251   21.6598    1.0802 O   0  0  0  0  0  0  0  0  0  0  0  0
   10.6695   21.6200    2.6954 P   0  0  0  0  0  0  0  0  0  0  0  0
   11.9580   21.1798    3.6759 O   0  0  0  0  0  0  0  0  0  0  0  0
   10.1575   23.1636    3.1754 O   0  0  0  0  0  0  0  0  0  0  0  0
    9.5153   20.6765    2.9624 O   0  0  0  0  0  0  0  0  0  0  0  0
   12.8367   21.4229    3.3044 H   0  0  0  0  0  0  0  0  0  0  0  0
   10.7518   23.8153    2.6870 H   0  0  0  0  0  0  0  0  0  0  0  0
 13 14  1  0  0  0
 14 15  2  0  0  0
 15 16  1  0  0  0
 16 17  2  0  0  0
 17 18  1  0  0  0
 18 19  1  0  0  0
 19 20  1  0  0  0
 20 21  2  0  0  0
 21 22  1  0  0  0
 19  1  1  0  0  0
  1  2  1  0  0  0
  2  3  1  0  0  0
  3 25  1  0  0  0
 25 26  1  0  0  0
 26 27  1  0  0  0
 27 28  1  0  0  0
 27 29  1  0  0  0
 27 30  2  0  0  0
  3  4  1  0  0  0
  4  5  1  0  0  0
  4  6  1  0  0  0
  6  7  1  0  0  0
  6  8  1  0  0  0
  8  9  1  0  0  0
 22 14  1  0  0  0
  8  1  1  0  0  0
 22 18  2  0  0  0
 13 23  1  0  0  0
 13 24  1  0  0  0
 28 31  1  0  0  0
 29 32  1  0  0  0
  5 10  1  0  0  0
  7 11  1  0  0  0
  9 12  1  0  0  0
M  END
> <minimizedAffinity>
-6.06180

> <CNNscore>
0.3774420917

> <CNNaffinity>
5.4900927544

> <CNN_VS>
2.0721921921

> <CNNaffinity_variance>
0.1183915362

$$$$
[H]O[C@@]1([H])[C@]([H])(O[H])[C@@]([H])(O[H])[C@]([H])(n2c([H])nc3c(N([H])[H])nc([H])nc32)O[C@]1([H])C([H])([H])OP(=O)(O[H])O[H]


 32 34  0  0  0  0  0  0  0  0999 V2000
   14.4941   25.4135   -2.3853 C   0  0  0  0  0  0  0  0  0  0  0  0
   15.2267   24.6782   -1.5120 O   0  0  0  0  0  0  0  0  0  0  0  0
   14.7847   24.4974   -0.2567 C   0  0  0  0  0  0  0  0  0  0  0  0
   13.3141   24.4891   -0.0314 C   0  0  0  0  0  0  0  0  0  0  0  0
   12.9926   24.8650    1.2905 O   0  0  0  0  0  0  0  0  0  0  0  0
   12.5233   25.3528   -0.9443 C   0  0  0  0  0  0  0  0  0  0  0  0
   11.1726   24.9401   -0.9137 O   0  0  0  0  0  0  0  0  0  0  0  0
   13.0122   25.1949   -2.3354 C   0  0  0  0  0  0  0  0  0  0  0  0
   12.4250   26.2167   -3.1145 O   0  0  0  0  0  0  0  0  0  0  0  0
   12.1308   24.4557    1.5185 H   0  0  0  0  0  0  0  0  0  0  0  0
   10.7279   25.1481   -1.7698 H   0  0  0  0  0  0  0  0  0  0  0  0
   12.1145   25.8579   -3.9787 H   0  0  0  0  0  0  0  0  0  0  0  0
   16.3260   25.5350   -8.2092 N   0  0  0  0  0  0  0  0  0  0  0  0
   15.9264   26.1896   -7.0101 C   0  0  0  0  0  0  0  0  0  0  0  0
   15.8558   27.5304   -6.9255 N   0  0  0  0  0  0  0  0  0  0  0  0
   15.4719   28.1373   -5.7706 C   0  0  0  0  0  0  0  0  0  0  0  0
   15.1479   27.4351   -4.6699 N   0  0  0  0  0  0  0  0  0  0  0  0
   15.2014   26.0854   -4.6988 C   0  0  0  0  0  0  0  0  0  0  0  0
   14.9326   25.1672   -3.7508 N   0  0  0  0  0  0  0  0  0  0  0  0
   15.1593   23.9776   -4.3460 C   0  0  0  0  0  0  0  0  0  0  0  0
   15.5556   24.1615   -5.6222 N   0  0  0  0  0  0  0  0  0  0  0  0
   15.5914   25.4766   -5.8730 C   0  0  0  0  0  0  0  0  0  0  0  0
   15.7005   24.8482   -8.6856 H   0  0  0  0  0  0  0  0  0  0  0  0
   17.2462   25.7050   -8.6643 H   0  0  0  0  0  0  0  0  0  0  0  0
   15.4125   23.2465    0.3257 C   0  0  0  0  0  0  0  0  0  0  0  0
   14.4533   22.4284    0.9058 O   0  0  0  0  0  0  0  0  0  0  0  0
   14.2772   20.9565    0.1714 P   0  0  0  0  0  0  0  0  0  0  0  0
   15.1448   19.7156    0.8942 O   0  0  0  0  0  0  0  0  0  0  0  0
   12.6368   20.5281    0.2032 O   0  0  0  0  0  0  0  0  0  0  0  0
   14.6768   21.0391   -1.2872 O   0  0  0  0  0  0  0  0  0  0  0  0
   15.2844   19.8433    1.8603 H   0  0  0  0  0  0  0  0  0  0  0  0
   12.2946   20.8152    1.1070 H   0  0  0  0  0  0  0  0  0  0  0  0
 13 14  1  0  0  0
 14 15  2  0  0  0
 15 16  1  0  0  0
 16 17  2  0  0  0
 17 18  1  0  0  0
 18 19  1  0  0  0
 19 20  1  0  0  0
 20 21  2  0  0  0
 21 22  1  0  0  0
 19  1  1  0  0  0
  1  2  1  0  0  0
  2  3  1  0  0  0
  3 25  1  0  0  0
 25 26  1  0  0  0
 26 27  1  0  0  0
 27 28  1  0  0  0
 27 29  1  0  0  0
 27 30  2  0  0  0
  3  4  1  0  0  0
  4  5  1  0  0  0
  4  6  1  0  0  0
  6  7  1  0  0  0
  6  8  1  0  0  0
  8  9  1  0  0  0
 22 14  1  0  0  0
  8  1  1  0  0  0
 22 18  2  0  0  0
 13 23  1  0  0  0
 13 24  1  0  0  0
 28 31  1  0  0  0
 29 32  1  0  0  0
  5 10  1  0  0  0
  7 11  1  0  0  0
  9 12  1  0  0  0
M  END
> <minimizedAffinity>
-5.47944

> <CNNscore>
0.3573297560

> <CNNaffinity>
5.4739370346

> <CNN_VS>
1.9560005665

> <CNNaffinity_variance>
0.0494146980

$$$$
[H]O[C@@]1([H])[C@]([H])(O[H])[C@@]([H])(O[H])[C@]([H])(n2c([H])nc3c(N([H])[H])nc([H])nc32)O[C@]1([H])C([H])([H])OP(=O)(O[H])O[H]


 32 34  0  0  0  0  0  0  0  0999 V2000
   13.1074   24.1200   -2.2986 C   0  0  0  0  0  0  0  0  0  0  0  0
   12.3332   24.5835   -1.2858 O   0  0  0  0  0  0  0  0  0  0  0  0
   11.8849   23.7349   -0.3462 C   0  0  0  0  0  0  0  0  0  0  0  0
   12.7204   22.5461   -0.0269 C   0  0  0  0  0  0  0  0  0  0  0  0
   11.9398   21.4915    0.4933 O   0  0  0  0  0  0  0  0  0  0  0  0
   13.5107   21.9984   -1.1584 C   0  0  0  0  0  0  0  0  0  0  0  0
   14.5443   21.1829   -0.6460 O   0  0  0  0  0  0  0  0  0  0  0  0
   14.1428   23.1070   -1.9137 C   0  0  0  0  0  0  0  0  0  0  0  0
   14.6518   22.5699   -3.1172 O   0  0  0  0  0  0  0  0  0  0  0  0
   12.5196   20.9391    1.0598 H   0  0  0  0  0  0  0  0  0  0  0  0
   15.3143   21.1719   -1.2632 H   0  0  0  0  0  0  0  0  0  0  0  0
   15.5509   22.9290   -3.3034 H   0  0  0  0  0  0  0  0  0  0  0  0
   16.8757   28.4262   -4.4305 N   0  0  0  0  0  0  0  0  0  0  0  0
   16.5974   27.3143   -3.5866 C   0  0  0  0  0  0  0  0  0  0  0  0
   17.5257   26.8066   -2.7556 N   0  0  0  0  0  0  0  0  0  0  0  0
   17.2405   25.7436   -1.9570 C   0  0  0  0  0  0  0  0  0  0  0  0
   16.0309   25.1549   -1.9588 N   0  0  0  0  0  0  0  0  0  0  0  0
   15.0609   25.6239   -2.7739 C   0  0  0  0  0  0  0  0  0  0  0  0
   13.7897   25.2208   -2.9622 N   0  0  0  0  0  0  0  0  0  0  0  0
   13.2946   26.0594   -3.8963 C   0  0  0  0  0  0  0  0  0  0  0  0
   14.2356   26.9509   -4.2698 N   0  0  0  0  0  0  0  0  0  0  0  0
   15.3570   26.7021   -3.5811 C   0  0  0  0  0  0  0  0  0  0  0  0
   16.3151   29.3050   -4.3711 H   0  0  0  0  0  0  0  0  0  0  0  0
   17.6391   28.4199   -5.1376 H   0  0  0  0  0  0  0  0  0  0  0  0
   11.5619   24.5053    0.9188 C   0  0  0  0  0  0  0  0  0  0  0  0
   10.1919   24.5649    1.1325 O   0  0  0  0  0  0  0  0  0  0  0  0
    9.6796   23.7830    2.4974 P   0  0  0  0  0  0  0  0  0  0  0  0
   10.6733   22.5222    2.9855 O   0  0  0  0  0  0  0  0  0  0  0  0
    9.6038   24.9038    3.7676 O   0  0  0  0  0  0  0  0  0  0  0  0
    8.2764   23.2458    2.3071 O   0  0  0  0  0  0  0  0  0  0  0  0
   11.6173   22.6448    2.7345 H   0  0  0  0  0  0  0  0  0  0  0  0
   10.4109   25.4980    3.6593 H   0  0  0  0  0  0  0  0  0  0  0  0
 13 14  1  0  0  0
 14 15  2  0  0  0
 15 16  1  0  0  0
 16 17  2  0  0  0
 17 18  1  0  0  0
 18 19  1  0  0  0
 19 20  1  0  0  0
 20 21  2  0  0  0
 21 22  1  0  0  0
 19  1  1  0  0  0
  1  2  1  0  0  0
  2  3  1  0  0  0
  3 25  1  0  0  0
 25 26  1  0  0  0
 26 27  1  0  0  0
 27 28  1  0  0  0
 27 29  1  0  0  0
 27 30  2  0  0  0
  3  4  1  0  0  0
  4  5  1  0  0  0
  4  6  1  0  0  0
  6  7  1  0  0  0
  6  8  1  0  0  0
  8  9  1  0  0  0
 22 14  1  0  0  0
  8  1  1  0  0  0
 22 18  2  0  0  0
 13 23  1  0  0  0
 13 24  1  0  0  0
 28 31  1  0  0  0
 29 32  1  0  0  0
  5 10  1  0  0  0
  7 11  1  0  0  0
  9 12  1  0  0  0
M  END
> <minimizedAffinity>
-7.49230

> <CNNscore>
0.3561119139

> <CNNaffinity>
5.5227661133

> <CNN_VS>
1.9667228460

> <CNNaffinity_variance>
0.3353886902

$$$$
[H]O[C@@]1([H])[C@]([H])(O[H])[C@@]([H])(O[H])[C@]([H])(n2c([H])nc3c(N([H])[H])nc([H])nc32)O[C@]1([H])C([H])([H])OP(=O)(O[H])O[H]


 32 34  0  0  0  0  0  0  0  0999 V2000
   13.5575   23.3342   -1.0800 C   0  0  0  0  0  0  0  0  0  0  0  0
   14.5402   23.2516   -0.1487 O   0  0  0  0  0  0  0  0  0  0  0  0
   14.3345   22.5505    0.9783 C   0  0  0  0  0  0  0  0  0  0  0  0
   13.4065   21.3894    0.9157 C   0  0  0  0  0  0  0  0  0  0  0  0
   12.8402   21.1128    2.1785 O   0  0  0  0  0  0  0  0  0  0  0  0
   12.2897   21.5161   -0.0547 C   0  0  0  0  0  0  0  0  0  0  0  0
   11.7618   20.2327   -0.3193 O   0  0  0  0  0  0  0  0  0  0  0  0
   12.7954   22.0689   -1.3344 C   0  0  0  0  0  0  0  0  0  0  0  0
   11.6760   22.4208   -2.1212 O   0  0  0  0  0  0  0  0  0  0  0  0
   12.6053   20.1606    2.2010 H   0  0  0  0  0  0  0  0  0  0  0  0
   11.3684   20.2004   -1.2238 H   0  0  0  0  0  0  0  0  0  0  0  0
   11.8077   22.1380   -3.0564 H   0  0  0  0  0  0  0  0  0  0  0  0
   15.1648   26.1744   -6.2412 N   0  0  0  0  0  0  0  0  0  0  0  0
   14.4269   26.1125   -5.0256 C   0  0  0  0  0  0  0  0  0  0  0  0
   13.5996   27.1041   -4.6485 N   0  0  0  0  0  0  0  0  0  0  0  0
   12.9031   27.0264   -3.4832 C   0  0  0  0  0  0  0  0  0  0  0  0
   13.0061   25.9669   -2.6605 N   0  0  0  0  0  0  0  0  0  0  0  0
   13.8226   24.9422   -2.9899 C   0  0  0  0  0  0  0  0  0  0  0  0
   14.0989   23.7887   -2.3520 N   0  0  0  0  0  0  0  0  0  0  0  0
   14.9829   23.1542   -3.1499 C   0  0  0  0  0  0  0  0  0  0  0  0
   15.2410   23.8976   -4.2455 N   0  0  0  0  0  0  0  0  0  0  0  0
   14.5258   25.0277   -4.1730 C   0  0  0  0  0  0  0  0  0  0  0  0
   15.0592   25.4413   -6.9769 H   0  0  0  0  0  0  0  0  0  0  0  0
   15.8357   26.9407   -6.4547 H   0  0  0  0  0  0  0  0  0  0  0  0
   15.6682   22.1263    1.5609 C   0  0  0  0  0  0  0  0  0  0  0  0
   16.7138   22.4558    0.7099 O   0  0  0  0  0  0  0  0  0  0  0  0
   17.1007   24.0642    0.6951 P   0  0  0  0  0  0  0  0  0  0  0  0
   18.5682   24.4285    1.4224 O   0  0  0  0  0  0  0  0  0  0  0  0
   17.1771   24.5881   -0.9158 O   0  0  0  0  0  0  0  0  0  0  0  0
   16.0141   24.8784    1.3661 O   0  0  0  0  0  0  0  0  0  0  0  0
   19.2248   23.6968    1.3727 H   0  0  0  0  0  0  0  0  0  0  0  0
   17.6170   23.8396   -1.4284 H   0  0  0  0  0  0  0  0  0  0  0  0
 13 14  1  0  0  0
 14 15  2  0  0  0
 15 16  1  0  0  0
 16 17  2  0  0  0
 17 18  1  0  0  0
 18 19  1  0  0  0
 19 20  1  0  0  0
 20 21  2  0  0  0
 21 22  1  0  0  0
 19  1  1  0  0  0
  1  2  1  0  0  0
  2  3  1  0  0  0
  3 25  1  0  0  0
 25 26  1  0  0  0
 26 27  1  0  0  0
 27 28  1  0  0  0
 27 29  1  0  0  0
 27 30  2  0  0  0
  3  4  1  0  0  0
  4  5  1  0  0  0
  4  6  1  0  0  0
  6  7  1  0  0  0
  6  8  1  0  0  0
  8  9  1  0  0  0
 22 14  1  0  0  0
  8  1  1  0  0  0
 22 18  2  0  0  0
 13 23  1  0  0  0
 13 24  1  0  0  0
 28 31  1  0  0  0
 29 32  1  0  0  0
  5 10  1  0  0  0
  7 11  1  0  0  0
  9 12  1  0  0  0
M  END
> <minimizedAffinity>
-2.40129

> <CNNscore>
0.3538853228

> <CNNaffinity>
5.2390561104

> <CNN_VS>
1.8540250063

> <CNNaffinity_variance>
0.3285575807

$$$$
[H]O[C@@]1([H])[C@]([H])(O[H])[C@@]([H])(O[H])[C@]([H])(n2c([H])nc3c(N([H])[H])nc([H])nc32)O[C@]1([H])C([H])([H])OP(=O)(O[H])O[H]


 32 34  0  0  0  0  0  0  0  0999 V2000
   13.7755   23.8178   -2.1110 C   0  0  0  0  0  0  0  0  0  0  0  0
   12.9810   24.2504   -1.1003 O   0  0  0  0  0  0  0  0  0  0  0  0
   12.1423   23.3926   -0.4966 C   0  0  0  0  0  0  0  0  0  0  0  0
   12.5363   21.9591   -0.4383 C   0  0  0  0  0  0  0  0  0  0  0  0
   11.4082   21.1180   -0.3294 O   0  0  0  0  0  0  0  0  0  0  0  0
   13.3454   21.4722   -1.5842 C   0  0  0  0  0  0  0  0  0  0  0  0
   13.9926   20.2722   -1.2140 O   0  0  0  0  0  0  0  0  0  0  0  0
   14.3940   22.4662   -1.9182 C   0  0  0  0  0  0  0  0  0  0  0  0
   14.9552   22.0959   -3.1607 O   0  0  0  0  0  0  0  0  0  0  0  0
   11.6911   20.2915    0.1170 H   0  0  0  0  0  0  0  0  0  0  0  0
   14.8329   20.1623   -1.7197 H   0  0  0  0  0  0  0  0  0  0  0  0
   15.9370   22.1821   -3.1364 H   0  0  0  0  0  0  0  0  0  0  0  0
   17.6507   28.1239   -4.0419 N   0  0  0  0  0  0  0  0  0  0  0  0
   16.4388   27.3871   -4.1626 C   0  0  0  0  0  0  0  0  0  0  0  0
   15.5647   27.6206   -5.1582 N   0  0  0  0  0  0  0  0  0  0  0  0
   14.4120   26.9059   -5.2564 C   0  0  0  0  0  0  0  0  0  0  0  0
   14.0933   25.9422   -4.3735 N   0  0  0  0  0  0  0  0  0  0  0  0
   14.9350   25.6659   -3.3535 C   0  0  0  0  0  0  0  0  0  0  0  0
   14.8515   24.7668   -2.3542 N   0  0  0  0  0  0  0  0  0  0  0  0
   15.9798   24.9418   -1.6350 C   0  0  0  0  0  0  0  0  0  0  0  0
   16.7332   25.9201   -2.1780 N   0  0  0  0  0  0  0  0  0  0  0  0
   16.1021   26.3944   -3.2600 C   0  0  0  0  0  0  0  0  0  0  0  0
   18.5785   27.6452   -4.0476 H   0  0  0  0  0  0  0  0  0  0  0  0
   17.6731   29.1596   -3.9436 H   0  0  0  0  0  0  0  0  0  0  0  0
   11.8092   23.9028    0.8915 C   0  0  0  0  0  0  0  0  0  0  0  0
   10.5552   24.4967    0.9190 O   0  0  0  0  0  0  0  0  0  0  0  0
    9.3114   23.4509    1.2289 P   0  0  0  0  0  0  0  0  0  0  0  0
    7.9672   24.1657    1.9343 O   0  0  0  0  0  0  0  0  0  0  0  0
    8.8169   22.7489   -0.2333 O   0  0  0  0  0  0  0  0  0  0  0  0
    9.7787   22.3182    2.1190 O   0  0  0  0  0  0  0  0  0  0  0  0
    7.8518   25.1127    1.6916 H   0  0  0  0  0  0  0  0  0  0  0  0
    8.8500   23.4875   -0.9186 H   0  0  0  0  0  0  0  0  0  0  0  0
 13 14  1  0  0  0
 14 15  2  0  0  0
 15 16  1  0  0  0
 16 17  2  0  0  0
 17 18  1  0  0  0
 18 19  1  0  0  0
 19 20  1  0  0  0
 20 21  2  0  0  0
 21 22  1  0  0  0
 19  1  1  0  0  0
  1  2  1  0  0  0
  2  3  1  0  0  0
  3 25  1  0  0  0
 25 26  1  0  0  0
 26 27  1  0  0  0
 27 28  1  0  0  0
 27 29  1  0  0  0
 27 30  2  0  0  0
  3  4  1  0  0  0
  4  5  1  0  0  0
  4  6  1  0  0  0
  6  7  1  0  0  0
  6  8  1  0  0  0
  8  9  1  0  0  0
 22 14  1  0  0  0
  8  1  1  0  0  0
 22 18  2  0  0  0
 13 23  1  0  0  0
 13 24  1  0  0  0
 28 31  1  0  0  0
 29 32  1  0  0  0
  5 10  1  0  0  0
  7 11  1  0  0  0
  9 12  1  0  0  0
M  END
> <minimizedAffinity>
-8.74487

> <CNNscore>
0.3512224555

> <CNNaffinity>
5.6829004288

> <CNN_VS>
1.9959622622

> <CNNaffinity_variance>
0.4919860363

$$$$
[H]O[C@@]1([H])[C@]([H])(O[H])[C@@]([H])(O[H])[C@]([H])(n2c([H])nc3c(N([H])[H])nc([H])nc32)O[C@]1([H])C([H])([H])OP(=O)(O[H])O[H]


 32 34  0  0  0  0  0  0  0  0999 V2000
   13.8015   23.3379   -2.5010 C   0  0  0  0  0  0  0  0  0  0  0  0
   12.6520   23.8805   -2.0274 O   0  0  0  0  0  0  0  0  0  0  0  0
   11.6915   23.0825   -1.5328 C   0  0  0  0  0  0  0  0  0  0  0  0
   12.1083   21.8019   -0.9005 C   0  0  0  0  0  0  0  0  0  0  0  0
   11.0753   20.8415   -0.9509 O   0  0  0  0  0  0  0  0  0  0  0  0
   13.3271   21.1748   -1.4713 C   0  0  0  0  0  0  0  0  0  0  0  0
   13.8413   20.2404   -0.5449 O   0  0  0  0  0  0  0  0  0  0  0  0
   14.3671   22.2081   -1.6947 C   0  0  0  0  0  0  0  0  0  0  0  0
   15.3899   21.6249   -2.4754 O   0  0  0  0  0  0  0  0  0  0  0  0
   11.2048   20.2207   -0.2025 H   0  0  0  0  0  0  0  0  0  0  0  0
   14.8172   20.1446   -0.6558 H   0  0  0  0  0  0  0  0  0  0  0  0
   16.2772   21.8782   -2.1284 H   0  0  0  0  0  0  0  0  0  0  0  0
   17.4722   28.0238   -3.8634 N   0  0  0  0  0  0  0  0  0  0  0  0
   16.2928   27.2561   -4.0769 C   0  0  0  0  0  0  0  0  0  0  0  0
   15.4026   27.5774   -5.0330 N   0  0  0  0  0  0  0  0  0  0  0  0
   14.2814   26.8313   -5.2215 C   0  0  0  0  0  0  0  0  0  0  0  0
   14.0111   25.7486   -4.4702 N   0  0  0  0  0  0  0  0  0  0  0  0
   14.8709   25.3802   -3.4955 C   0  0  0  0  0  0  0  0  0  0  0  0
   14.8335   24.3569   -2.6207 N   0  0  0  0  0  0  0  0  0  0  0  0
   15.9579   24.4871   -1.8861 C   0  0  0  0  0  0  0  0  0  0  0  0
   16.6642   25.5596   -2.2990 N   0  0  0  0  0  0  0  0  0  0  0  0
   16.0058   26.1413   -3.3099 C   0  0  0  0  0  0  0  0  0  0  0  0
   18.4199   27.5913   -3.9319 H   0  0  0  0  0  0  0  0  0  0  0  0
   17.4502   29.0382   -3.6320 H   0  0  0  0  0  0  0  0  0  0  0  0
   10.8135   23.8753   -0.5848 C   0  0  0  0  0  0  0  0  0  0  0  0
   11.4721   24.1345    0.6090 O   0  0  0  0  0  0  0  0  0  0  0  0
   12.6013   25.3400    0.5175 P   0  0  0  0  0  0  0  0  0  0  0  0
   14.1855   24.8180    0.6995 O   0  0  0  0  0  0  0  0  0  0  0  0
   12.4737   26.0878   -0.9991 O   0  0  0  0  0  0  0  0  0  0  0  0
   12.3230   26.4087    1.5540 O   0  0  0  0  0  0  0  0  0  0  0  0
   14.3324   23.8926    0.3977 H   0  0  0  0  0  0  0  0  0  0  0  0
   12.3047   25.3448   -1.6593 H   0  0  0  0  0  0  0  0  0  0  0  0
 13 14  1  0  0  0
 14 15  2  0  0  0
 15 16  1  0  0  0
 16 17  2  0  0  0
 17 18  1  0  0  0
 18 19  1  0  0  0
 19 20  1  0  0  0
 20 21  2  0  0  0
 21 22  1  0  0  0
 19  1  1  0  0  0
  1  2  1  0  0  0
  2  3  1  0  0  0
  3 25  1  0  0  0
 25 26  1  0  0  0
 26 27  1  0  0  0
 27 28  1  0  0  0
 27 29  1  0  0  0
 27 30  2  0  0  0
  3  4  1  0  0  0
  4  5  1  0  0  0
  4  6  1  0  0  0
  6  7  1  0  0  0
  6  8  1  0  0  0
  8  9  1  0  0  0
 22 14  1  0  0  0
  8  1  1  0  0  0
 22 18  2  0  0  0
 13 23  1  0  0  0
 13 24  1  0  0  0
 28 31  1  0  0  0
 29 32  1  0  0  0
  5 10  1  0  0  0
  7 11  1  0  0  0
  9 12  1  0  0  0
M  END
> <minimizedAffinity>
-5.45405

> <CNNscore>
0.3176728189

> <CNNaffinity>
5.4728603363

> <CNN_VS>
1.7385789156

> <CNNaffinity_variance>
0.4310052395

$$$$
[H]c1nc(-c2c([H])c([H])c([H])c([H])c2N2C([H])([H])C([H])([H])N(C([H])([H])[H])C([H])([H])C2([H])[H])c2nc([H])c(N([H])C(=O)c3c([H])c([H])c(F)c(C(F)(F)F)c3[H])c([H])c2n1


 38 42  0  0  0  0  0  0  0  0999 V2000
   10.2939   22.3800    1.5546 C   0  0  0  0  0  0  0  0  0  0  0  0
   11.0113   22.8665    0.4790 C   0  0  0  0  0  0  0  0  0  0  0  0
   12.2449   23.4433    0.6797 C   0  0  0  0  0  0  0  0  0  0  0  0
   12.9559   23.9192   -0.3852 C   0  0  0  0  0  0  0  0  0  0  0  0
   12.4933   23.8552   -1.7215 C   0  0  0  0  0  0  0  0  0  0  0  0
   11.2627   23.2721   -1.8563 C   0  0  0  0  0  0  0  0  0  0  0  0
   10.5663   22.8027   -0.7837 N   0  0  0  0  0  0  0  0  0  0  0  0
   12.6937   23.5022    1.9488 N   0  0  0  0  0  0  0  0  0  0  0  0
   11.9851   23.0256    2.9841 C   0  0  0  0  0  0  0  0  0  0  0  0
   10.7856   22.4661    2.7735 N   0  0  0  0  0  0  0  0  0  0  0  0
    8.8254   20.7785    0.3984 C   0  0  0  0  0  0  0  0  0  0  0  0
    9.0115   21.7721    1.2922 C   0  0  0  0  0  0  0  0  0  0  0  0
    7.9216   22.2749    2.0530 C   0  0  0  0  0  0  0  0  0  0  0  0
    6.6719   21.7688    1.8993 C   0  0  0  0  0  0  0  0  0  0  0  0
    6.4542   20.7545    0.9948 C   0  0  0  0  0  0  0  0  0  0  0  0
    7.5125   20.2782    0.2671 C   0  0  0  0  0  0  0  0  0  0  0  0
    9.8345   20.2351   -0.4070 N   0  0  0  0  0  0  0  0  0  0  0  0
   10.1779   20.4855   -1.7598 C   0  0  0  0  0  0  0  0  0  0  0  0
   11.6679   20.7677   -1.9438 C   0  0  0  0  0  0  0  0  0  0  0  0
   12.5102   19.8543   -1.2397 N   0  0  0  0  0  0  0  0  0  0  0  0
   13.8621   20.3822   -1.2775 C   0  0  0  0  0  0  0  0  0  0  0  0
   12.1030   19.8287    0.1685 C   0  0  0  0  0  0  0  0  0  0  0  0
   10.7027   19.2306    0.2691 C   0  0  0  0  0  0  0  0  0  0  0  0
   13.3090   24.3941   -2.7265 N   0  0  0  0  0  0  0  0  0  0  0  0
   13.1056   25.6086   -3.3849 C   0  0  0  0  0  0  0  0  0  0  0  0
   12.1431   26.3725   -3.1514 O   0  0  0  0  0  0  0  0  0  0  0  0
   14.1617   23.8259   -3.0181 H   0  0  0  0  0  0  0  0  0  0  0  0
   14.0227   26.1003   -4.4287 C   0  0  0  0  0  0  0  0  0  0  0  0
   14.3295   27.4250   -4.4479 C   0  0  0  0  0  0  0  0  0  0  0  0
   15.1797   27.9851   -5.3658 C   0  0  0  0  0  0  0  0  0  0  0  0
   15.7523   27.1502   -6.3202 C   0  0  0  0  0  0  0  0  0  0  0  0
   16.5961   27.6572   -7.2442 F   0  0  0  0  0  0  0  0  0  0  0  0
   15.4559   25.8066   -6.3196 C   0  0  0  0  0  0  0  0  0  0  0  0
   14.5877   25.2740   -5.3722 C   0  0  0  0  0  0  0  0  0  0  0  0
   15.4947   29.4501   -5.3582 C   0  0  0  0  0  0  0  0  0  0  0  0
   16.6450   29.7068   -4.6402 F   0  0  0  0  0  0  0  0  0  0  0  0
   14.4291   30.1769   -4.8976 F   0  0  0  0  0  0  0  0  0  0  0  0
   15.7981   29.8030   -6.6813 F   0  0  0  0  0  0  0  0  0  0  0  0
 11 17  1  0  0  0
 17 18  1  0  0  0
 18 19  1  0  0  0
 19 20  1  0  0  0
 20 21  1  0  0  0
 20 22  1  0  0  0
 22 23  1  0  0  0
 11 12  1  0  0  0
 12  1  1  0  0  0
  1  2  1  0  0  0
  2  3  1  0  0  0
  3  4  2  0  0  0
  4  5  1  0  0  0
  5 24  1  0  0  0
 24 25  1  0  0  0
 25 26  2  0  0  0
 25 28  1  0  0  0
 28 29  2  0  0  0
 29 30  1  0  0  0
 30 35  1  0  0  0
 35 36  1  0  0  0
 35 37  1  0  0  0
 35 38  1  0  0  0
 30 31  2  0  0  0
 31 32  1  0  0  0
 31 33  1  0  0  0
 33 34  2  0  0  0
  5  6  2  0  0  0
  6  7  1  0  0  0
  3  8  1  0  0  0
  8  9  2  0  0  0
  9 10  1  0  0  0
 12 13  2  0  0  0
 13 14  1  0  0  0
 14 15  2  0  0  0
 15 16  1  0  0  0
 16 11  2  0  0  0
 23 17  1  0  0  0
 10  1  2  0  0  0
  7  2  2  0  0  0
 34 28  1  0  0  0
 24 27  1  0  0  0
M  END
> <minimizedAffinity>
6.17839

> <CNNscore>
0.3940646946

> <CNNaffinity>
7.4772491455

> <CNN_VS>
2.9465198517

> <CNNaffinity_variance>
0.9289994240

$$$$
[H]c1nc(-c2c([H])c([H])c([H])c([H])c2N2C([H])([H])C([H])([H])N(C([H])([H])[H])C([H])([H])C2([H])[H])c2nc([H])c(N([H])C(=O)c3c([H])c([H])c(F)c(C(F)(F)F)c3[H])c([H])c2n1


 38 42  0  0  0  0  0  0  0  0999 V2000
   11.8236   21.8839    0.2395 C   0  0  0  0  0  0  0  0  0  0  0  0
   12.5067   22.8699   -0.4456 C   0  0  0  0  0  0  0  0  0  0  0  0
   13.8586   22.7405   -0.6700 C   0  0  0  0  0  0  0  0  0  0  0  0
   14.5321   23.7136   -1.3523 C   0  0  0  0  0  0  0  0  0  0  0  0
   13.9119   24.8807   -1.8592 C   0  0  0  0  0  0  0  0  0  0  0  0
   12.5693   24.9518   -1.6045 C   0  0  0  0  0  0  0  0  0  0  0  0
   11.9124   23.9727   -0.9223 N   0  0  0  0  0  0  0  0  0  0  0  0
   14.4541   21.6291   -0.1951 N   0  0  0  0  0  0  0  0  0  0  0  0
   13.7773   20.6796    0.4692 C   0  0  0  0  0  0  0  0  0  0  0  0
   12.4612   20.8188    0.6799 N   0  0  0  0  0  0  0  0  0  0  0  0
    9.7366   21.5789    1.5082 C   0  0  0  0  0  0  0  0  0  0  0  0
   10.4048   22.0583    0.4384 C   0  0  0  0  0  0  0  0  0  0  0  0
    9.7249   22.7938   -0.5698 C   0  0  0  0  0  0  0  0  0  0  0  0
    8.3918   23.0309   -0.4804 C   0  0  0  0  0  0  0  0  0  0  0  0
    7.6860   22.5538    0.6006 C   0  0  0  0  0  0  0  0  0  0  0  0
    8.3522   21.8461    1.5659 C   0  0  0  0  0  0  0  0  0  0  0  0
   10.3191   20.8291    2.5381 N   0  0  0  0  0  0  0  0  0  0  0  0
   10.7362   21.2071    3.8395 C   0  0  0  0  0  0  0  0  0  0  0  0
   10.1949   20.2754    4.9223 C   0  0  0  0  0  0  0  0  0  0  0  0
   10.3250   18.8908    4.5974 N   0  0  0  0  0  0  0  0  0  0  0  0
    9.5472   18.1361    5.5635 C   0  0  0  0  0  0  0  0  0  0  0  0
    9.7156   18.6564    3.2847 C   0  0  0  0  0  0  0  0  0  0  0  0
   10.5300   19.3885    2.2219 C   0  0  0  0  0  0  0  0  0  0  0  0
   14.7152   25.8147   -2.5285 N   0  0  0  0  0  0  0  0  0  0  0  0
   16.1003   25.9430   -2.4055 C   0  0  0  0  0  0  0  0  0  0  0  0
   16.8009   25.2237   -1.6596 O   0  0  0  0  0  0  0  0  0  0  0  0
   14.2265   26.4915   -3.1904 H   0  0  0  0  0  0  0  0  0  0  0  0
   16.8660   26.9544   -3.1561 C   0  0  0  0  0  0  0  0  0  0  0  0
   16.2699   27.5597   -4.2180 C   0  0  0  0  0  0  0  0  0  0  0  0
   16.8857   28.5211   -4.9765 C   0  0  0  0  0  0  0  0  0  0  0  0
   18.1835   28.8896   -4.6361 C   0  0  0  0  0  0  0  0  0  0  0  0
   18.8299   29.8326   -5.3543 F   0  0  0  0  0  0  0  0  0  0  0  0
   18.8060   28.2901   -3.5654 C   0  0  0  0  0  0  0  0  0  0  0  0
   18.1492   27.3174   -2.8189 C   0  0  0  0  0  0  0  0  0  0  0  0
   16.1989   29.1668   -6.1414 C   0  0  0  0  0  0  0  0  0  0  0  0
   16.2129   28.3402   -7.2465 F   0  0  0  0  0  0  0  0  0  0  0  0
   16.7438   30.3940   -6.4112 F   0  0  0  0  0  0  0  0  0  0  0  0
   14.8466   29.2932   -5.7913 F   0  0  0  0  0  0  0  0  0  0  0  0
 11 17  1  0  0  0
 17 18  1  0  0  0
 18 19  1  0  0  0
 19 20  1  0  0  0
 20 21  1  0  0  0
 20 22  1  0  0  0
 22 23  1  0  0  0
 11 12  1  0  0  0
 12  1  1  0  0  0
  1  2  1  0  0  0
  2  3  1  0  0  0
  3  4  2  0  0  0
  4  5  1  0  0  0
  5 24  1  0  0  0
 24 25  1  0  0  0
 25 26  2  0  0  0
 25 28  1  0  0  0
 28 29  2  0  0  0
 29 30  1  0  0  0
 30 35  1  0  0  0
 35 36  1  0  0  0
 35 37  1  0  0  0
 35 38  1  0  0  0
 30 31  2  0  0  0
 31 32  1  0  0  0
 31 33  1  0  0  0
 33 34  2  0  0  0
  5  6  2  0  0  0
  6  7  1  0  0  0
  3  8  1  0  0  0
  8  9  2  0  0  0
  9 10  1  0  0  0
 12 13  2  0  0  0
 13 14  1  0  0  0
 14 15  2  0  0  0
 15 16  1  0  0  0
 16 11  2  0  0  0
 23 17  1  0  0  0
 10  1  2  0  0  0
  7  2  2  0  0  0
 34 28  1  0  0  0
 24 27  1  0  0  0
M  END
> <minimizedAffinity>
11.61588

> <CNNscore>
0.3858835995

> <CNNaffinity>
7.1908340454

> <CNN_VS>
2.7748248577

> <CNNaffinity_variance>
0.9779722095

$$$$
[H]c1nc(-c2c([H])c([H])c([H])c([H])c2N2C([H])([H])C([H])([H])N(C([H])([H])[H])C([H])([H])C2([H])[H])c2nc([H])c(N([H])C(=O)c3c([H])c([H])c(F)c(C(F)(F)F)c3[H])c([H])c2n1


 38 42  0  0  0  0  0  0  0  0999 V2000
   15.3000   24.1141   -3.0723 C   0  0  0  0  0  0  0  0  0  0  0  0
   14.1182   24.8269   -3.1323 C   0  0  0  0  0  0  0  0  0  0  0  0
   14.0758   26.0333   -3.7937 C   0  0  0  0  0  0  0  0  0  0  0  0
   12.9054   26.7348   -3.8571 C   0  0  0  0  0  0  0  0  0  0  0  0
   11.6972   26.2883   -3.2699 C   0  0  0  0  0  0  0  0  0  0  0  0
   11.8030   25.0847   -2.6276 C   0  0  0  0  0  0  0  0  0  0  0  0
   12.9781   24.3977   -2.5733 N   0  0  0  0  0  0  0  0  0  0  0  0
   15.2212   26.4614   -4.3598 N   0  0  0  0  0  0  0  0  0  0  0  0
   16.3621   25.7579   -4.2930 C   0  0  0  0  0  0  0  0  0  0  0  0
   16.3883   24.5846   -3.6459 N   0  0  0  0  0  0  0  0  0  0  0  0
   15.2888   22.7337   -1.0345 C   0  0  0  0  0  0  0  0  0  0  0  0
   15.2912   22.8483   -2.3790 C   0  0  0  0  0  0  0  0  0  0  0  0
   15.2706   21.6915   -3.2042 C   0  0  0  0  0  0  0  0  0  0  0  0
   15.2476   20.4481   -2.6610 C   0  0  0  0  0  0  0  0  0  0  0  0
   15.2440   20.3026   -1.2924 C   0  0  0  0  0  0  0  0  0  0  0  0
   15.2642   21.4250   -0.5073 C   0  0  0  0  0  0  0  0  0  0  0  0
   15.3273   23.8151   -0.1449 N   0  0  0  0  0  0  0  0  0  0  0  0
   16.0929   25.0084   -0.1674 C   0  0  0  0  0  0  0  0  0  0  0  0
   15.2374   26.2576    0.0355 C   0  0  0  0  0  0  0  0  0  0  0  0
   14.2960   26.1342    1.1024 N   0  0  0  0  0  0  0  0  0  0  0  0
   13.3838   27.2605    1.0181 C   0  0  0  0  0  0  0  0  0  0  0  0
   13.4977   24.9234    0.8876 C   0  0  0  0  0  0  0  0  0  0  0  0
   14.4035   23.7023    1.0185 C   0  0  0  0  0  0  0  0  0  0  0  0
   10.5657   27.1075   -3.3896 N   0  0  0  0  0  0  0  0  0  0  0  0
   10.3617   28.0876   -4.3631 C   0  0  0  0  0  0  0  0  0  0  0  0
   11.1901   28.3582   -5.2605 O   0  0  0  0  0  0  0  0  0  0  0  0
    9.7898   26.9738   -2.6719 H   0  0  0  0  0  0  0  0  0  0  0  0
    9.1330   28.9001   -4.4156 C   0  0  0  0  0  0  0  0  0  0  0  0
    8.4837   29.1661   -3.2507 C   0  0  0  0  0  0  0  0  0  0  0  0
    7.3412   29.9204   -3.1839 C   0  0  0  0  0  0  0  0  0  0  0  0
    6.8281   30.4353   -4.3703 C   0  0  0  0  0  0  0  0  0  0  0  0
    5.7049   31.1843   -4.3534 F   0  0  0  0  0  0  0  0  0  0  0  0
    7.4688   30.1786   -5.5607 C   0  0  0  0  0  0  0  0  0  0  0  0
    8.6264   29.4080   -5.5892 C   0  0  0  0  0  0  0  0  0  0  0  0
    6.6507   30.1929   -1.8821 C   0  0  0  0  0  0  0  0  0  0  0  0
    7.0905   31.3765   -1.3251 F   0  0  0  0  0  0  0  0  0  0  0  0
    6.7939   29.1365   -1.0223 F   0  0  0  0  0  0  0  0  0  0  0  0
    5.2971   30.4057   -2.1818 F   0  0  0  0  0  0  0  0  0  0  0  0
 11 17  1  0  0  0
 17 18  1  0  0  0
 18 19  1  0  0  0
 19 20  1  0  0  0
 20 21  1  0  0  0
 20 22  1  0  0  0
 22 23  1  0  0  0
 11 12  1  0  0  0
 12  1  1  0  0  0
  1  2  1  0  0  0
  2  3  1  0  0  0
  3  4  2  0  0  0
  4  5  1  0  0  0
  5 24  1  0  0  0
 24 25  1  0  0  0
 25 26  2  0  0  0
 25 28  1  0  0  0
 28 29  2  0  0  0
 29 30  1  0  0  0
 30 35  1  0  0  0
 35 36  1  0  0  0
 35 37  1  0  0  0
 35 38  1  0  0  0
 30 31  2  0  0  0
 31 32  1  0  0  0
 31 33  1  0  0  0
 33 34  2  0  0  0
  5  6  2  0  0  0
  6  7  1  0  0  0
  3  8  1  0  0  0
  8  9  2  0  0  0
  9 10  1  0  0  0
 12 13  2  0  0  0
 13 14  1  0  0  0
 14 15  2  0  0  0
 15 16  1  0  0  0
 16 11  2  0  0  0
 23 17  1  0  0  0
 10  1  2  0  0  0
  7  2  2  0  0  0
 34 28  1  0  0  0
 24 27  1  0  0  0
M  END
> <minimizedAffinity>
41.95868

> <CNNscore>
0.3490001559

> <CNNaffinity>
6.8926339149

> <CNN_VS>
2.4055302143

> <CNNaffinity_variance>
1.1962947845

$$$$
[H]c1nc(-c2c([H])c([H])c([H])c([H])c2N2C([H])([H])C([H])([H])N(C([H])([H])[H])C([H])([H])C2([H])[H])c2nc([H])c(N([H])C(=O)c3c([H])c([H])c(F)c(C(F)(F)F)c3[H])c([H])c2n1


 38 42  0  0  0  0  0  0  0  0999 V2000
   10.7147   22.8065    1.4330 C   0  0  0  0  0  0  0  0  0  0  0  0
   11.2925   23.4671    0.3662 C   0  0  0  0  0  0  0  0  0  0  0  0
   12.2821   22.8536   -0.3680 C   0  0  0  0  0  0  0  0  0  0  0  0
   12.8490   23.5057   -1.4260 C   0  0  0  0  0  0  0  0  0  0  0  0
   12.4735   24.8097   -1.8289 C   0  0  0  0  0  0  0  0  0  0  0  0
   11.4868   25.3660   -1.0613 C   0  0  0  0  0  0  0  0  0  0  0  0
   10.9319   24.7023   -0.0091 N   0  0  0  0  0  0  0  0  0  0  0  0
   12.6402   21.6099    0.0067 N   0  0  0  0  0  0  0  0  0  0  0  0
   12.0700   20.9806    1.0458 C   0  0  0  0  0  0  0  0  0  0  0  0
   11.1073   21.5902    1.7514 N   0  0  0  0  0  0  0  0  0  0  0  0
    8.4835   22.9227    2.4656 C   0  0  0  0  0  0  0  0  0  0  0  0
    9.6721   23.4858    2.1640 C   0  0  0  0  0  0  0  0  0  0  0  0
    9.9700   24.8127    2.5766 C   0  0  0  0  0  0  0  0  0  0  0  0
    9.0691   25.5423    3.2819 C   0  0  0  0  0  0  0  0  0  0  0  0
    7.8492   24.9920    3.6035 C   0  0  0  0  0  0  0  0  0  0  0  0
    7.5734   23.7122    3.2002 C   0  0  0  0  0  0  0  0  0  0  0  0
    8.0967   21.6314    2.0848 N   0  0  0  0  0  0  0  0  0  0  0  0
    7.7540   20.4975    2.8642 C   0  0  0  0  0  0  0  0  0  0  0  0
    6.4363   19.8612    2.4255 C   0  0  0  0  0  0  0  0  0  0  0  0
    6.3225   19.7092    1.0101 N   0  0  0  0  0  0  0  0  0  0  0  0
    4.9471   19.3505    0.7143 C   0  0  0  0  0  0  0  0  0  0  0  0
    6.5689   21.0080    0.3761 C   0  0  0  0  0  0  0  0  0  0  0  0
    8.0223   21.4081    0.6136 C   0  0  0  0  0  0  0  0  0  0  0  0
   13.1426   25.3787   -2.9219 N   0  0  0  0  0  0  0  0  0  0  0  0
   14.4750   25.7958   -2.9415 C   0  0  0  0  0  0  0  0  0  0  0  0
   15.2433   25.7129   -1.9579 O   0  0  0  0  0  0  0  0  0  0  0  0
   12.5850   25.5079   -3.8204 H   0  0  0  0  0  0  0  0  0  0  0  0
   15.0985   26.3797   -4.1426 C   0  0  0  0  0  0  0  0  0  0  0  0
   15.0836   25.6575   -5.2948 C   0  0  0  0  0  0  0  0  0  0  0  0
   15.6231   26.1097   -6.4709 C   0  0  0  0  0  0  0  0  0  0  0  0
   16.2122   27.3702   -6.4772 C   0  0  0  0  0  0  0  0  0  0  0  0
   16.7562   27.8575   -7.6128 F   0  0  0  0  0  0  0  0  0  0  0  0
   16.2387   28.1184   -5.3228 C   0  0  0  0  0  0  0  0  0  0  0  0
   15.6812   27.6258   -4.1475 C   0  0  0  0  0  0  0  0  0  0  0  0
   15.5898   25.2861   -7.7223 C   0  0  0  0  0  0  0  0  0  0  0  0
   16.8443   24.8001   -8.0303 F   0  0  0  0  0  0  0  0  0  0  0  0
   15.0450   25.9950   -8.7598 F   0  0  0  0  0  0  0  0  0  0  0  0
   14.8140   24.1529   -7.4374 F   0  0  0  0  0  0  0  0  0  0  0  0
 11 17  1  0  0  0
 17 18  1  0  0  0
 18 19  1  0  0  0
 19 20  1  0  0  0
 20 21  1  0  0  0
 20 22  1  0  0  0
 22 23  1  0  0  0
 11 12  1  0  0  0
 12  1  1  0  0  0
  1  2  1  0  0  0
  2  3  1  0  0  0
  3  4  2  0  0  0
  4  5  1  0  0  0
  5 24  1  0  0  0
 24 25  1  0  0  0
 25 26  2  0  0  0
 25 28  1  0  0  0
 28 29  2  0  0  0
 29 30  1  0  0  0
 30 35  1  0  0  0
 35 36  1  0  0  0
 35 37  1  0  0  0
 35 38  1  0  0  0
 30 31  2  0  0  0
 31 32  1  0  0  0
 31 33  1  0  0  0
 33 34  2  0  0  0
  5  6  2  0  0  0
  6  7  1  0  0  0
  3  8  1  0  0  0
  8  9  2  0  0  0
  9 10  1  0  0  0
 12 13  2  0  0  0
 13 14  1  0  0  0
 14 15  2  0  0  0
 15 16  1  0  0  0
 16 11  2  0  0  0
 23 17  1  0  0  0
 10  1  2  0  0  0
  7  2  2  0  0  0
 34 28  1  0  0  0
 24 27  1  0  0  0
M  END
> <minimizedAffinity>
-5.23138

> <CNNscore>
0.3083471656

> <CNNaffinity>
7.1512804031

> <CNN_VS>
2.2050769329

> <CNNaffinity_variance>
0.2315841913

$$$$
[H]c1nc(-c2c([H])c([H])c([H])c([H])c2N2C([H])([H])C([H])([H])N(C([H])([H])[H])C([H])([H])C2([H])[H])c2nc([H])c(N([H])C(=O)c3c([H])c([H])c(F)c(C(F)(F)F)c3[H])c([H])c2n1


 38 42  0  0  0  0  0  0  0  0999 V2000
   10.4900   22.8638    2.7704 C   0  0  0  0  0  0  0  0  0  0  0  0
   11.2976   23.4789    1.8335 C   0  0  0  0  0  0  0  0  0  0  0  0
   11.0592   24.7856    1.4723 C   0  0  0  0  0  0  0  0  0  0  0  0
   11.8617   25.3947    0.5498 C   0  0  0  0  0  0  0  0  0  0  0  0
   12.9552   24.7506   -0.0772 C   0  0  0  0  0  0  0  0  0  0  0  0
   13.1408   23.4552    0.3224 C   0  0  0  0  0  0  0  0  0  0  0  0
   12.3312   22.8622    1.2436 N   0  0  0  0  0  0  0  0  0  0  0  0
   10.0232   25.4064    2.0697 N   0  0  0  0  0  0  0  0  0  0  0  0
    9.2470   24.7956    2.9782 C   0  0  0  0  0  0  0  0  0  0  0  0
    9.4912   23.5230    3.3204 N   0  0  0  0  0  0  0  0  0  0  0  0
   10.6160   20.4534    2.2883 C   0  0  0  0  0  0  0  0  0  0  0  0
   10.7878   21.4971    3.1261 C   0  0  0  0  0  0  0  0  0  0  0  0
   11.2998   21.2968    4.4366 C   0  0  0  0  0  0  0  0  0  0  0  0
   11.6274   20.0549    4.8748 C   0  0  0  0  0  0  0  0  0  0  0  0
   11.4626   18.9727    4.0404 C   0  0  0  0  0  0  0  0  0  0  0  0
   10.9681   19.1783    2.7796 C   0  0  0  0  0  0  0  0  0  0  0  0
   10.1009   20.5537    0.9895 N   0  0  0  0  0  0  0  0  0  0  0  0
   10.5564   20.0020   -0.2347 C   0  0  0  0  0  0  0  0  0  0  0  0
    9.4475   19.2862   -1.0038 C   0  0  0  0  0  0  0  0  0  0  0  0
    8.2279   20.0270   -1.0629 N   0  0  0  0  0  0  0  0  0  0  0  0
    7.1983   19.1413   -1.5759 C   0  0  0  0  0  0  0  0  0  0  0  0
    7.8332   20.3930    0.3008 C   0  0  0  0  0  0  0  0  0  0  0  0
    8.8595   21.3688    0.8693 C   0  0  0  0  0  0  0  0  0  0  0  0
   13.6939   25.4781   -1.0212 N   0  0  0  0  0  0  0  0  0  0  0  0
   14.6528   24.9561   -1.8917 C   0  0  0  0  0  0  0  0  0  0  0  0
   14.9755   23.7480   -1.9259 O   0  0  0  0  0  0  0  0  0  0  0  0
   13.5105   26.5259   -1.0802 H   0  0  0  0  0  0  0  0  0  0  0  0
   15.3783   25.7987   -2.8591 C   0  0  0  0  0  0  0  0  0  0  0  0
   15.0081   25.7470   -4.1666 C   0  0  0  0  0  0  0  0  0  0  0  0
   15.6064   26.4965   -5.1460 C   0  0  0  0  0  0  0  0  0  0  0  0
   16.6417   27.3491   -4.7754 C   0  0  0  0  0  0  0  0  0  0  0  0
   17.2605   28.1069   -5.7058 F   0  0  0  0  0  0  0  0  0  0  0  0
   17.0328   27.4173   -3.4579 C   0  0  0  0  0  0  0  0  0  0  0  0
   16.4020   26.6407   -2.4916 C   0  0  0  0  0  0  0  0  0  0  0  0
   15.1734   26.4136   -6.5782 C   0  0  0  0  0  0  0  0  0  0  0  0
   13.9035   26.9281   -6.7435 F   0  0  0  0  0  0  0  0  0  0  0  0
   15.2719   25.1299   -7.0452 F   0  0  0  0  0  0  0  0  0  0  0  0
   16.0161   27.2688   -7.3033 F   0  0  0  0  0  0  0  0  0  0  0  0
 11 17  1  0  0  0
 17 18  1  0  0  0
 18 19  1  0  0  0
 19 20  1  0  0  0
 20 21  1  0  0  0
 20 22  1  0  0  0
 22 23  1  0  0  0
 11 12  1  0  0  0
 12  1  1  0  0  0
  1  2  1  0  0  0
  2  3  1  0  0  0
  3  4  2  0  0  0
  4  5  1  0  0  0
  5 24  1  0  0  0
 24 25  1  0  0  0
 25 26  2  0  0  0
 25 28  1  0  0  0
 28 29  2  0  0  0
 29 30  1  0  0  0
 30 35  1  0  0  0
 35 36  1  0  0  0
 35 37  1  0  0  0
 35 38  1  0  0  0
 30 31  2  0  0  0
 31 32  1  0  0  0
 31 33  1  0  0  0
 33 34  2  0  0  0
  5  6  2  0  0  0
  6  7  1  0  0  0
  3  8  1  0  0  0
  8  9  2  0  0  0
  9 10  1  0  0  0
 12 13  2  0  0  0
 13 14  1  0  0  0
 14 15  2  0  0  0
 15 16  1  0  0  0
 16 11  2  0  0  0
 23 17  1  0  0  0
 10  1  2  0  0  0
  7  2  2  0  0  0
 34 28  1  0  0  0
 24 27  1  0  0  0
M  END
> <minimizedAffinity>
-6.36948

> <CNNscore>
0.2758497596

> <CNNaffinity>
7.4249787331

> <CNN_VS>
2.0481786728

> <CNNaffinity_variance>
0.4310055673

$$$$
[H]c1nc(-c2c([H])c([H])c([H])c([H])c2N2C([H])([H])C([H])([H])N(C([H])([H])[H])C([H])([H])C2([H])[H])c2nc([H])c(N([H])C(=O)c3c([H])c([H])c(F)c(C(F)(F)F)c3[H])c([H])c2n1


 38 42  0  0  0  0  0  0  0  0999 V2000
   14.1601   26.0658   -2.6588 C   0  0  0  0  0  0  0  0  0  0  0  0
   13.8485   25.1097   -1.7117 C   0  0  0  0  0  0  0  0  0  0  0  0
   12.5532   24.6603   -1.5889 C   0  0  0  0  0  0  0  0  0  0  0  0
   12.2471   23.7108   -0.6558 C   0  0  0  0  0  0  0  0  0  0  0  0
   13.2037   23.1416    0.2188 C   0  0  0  0  0  0  0  0  0  0  0  0
   14.4712   23.6283    0.0487 C   0  0  0  0  0  0  0  0  0  0  0  0
   14.7598   24.5757   -0.8866 N   0  0  0  0  0  0  0  0  0  0  0  0
   11.6388   25.1938   -2.4223 N   0  0  0  0  0  0  0  0  0  0  0  0
   11.9564   26.1225   -3.3375 C   0  0  0  0  0  0  0  0  0  0  0  0
   13.2219   26.5503   -3.4460 N   0  0  0  0  0  0  0  0  0  0  0  0
   16.1446   26.7802   -3.9276 C   0  0  0  0  0  0  0  0  0  0  0  0
   15.5343   26.4956   -2.7583 C   0  0  0  0  0  0  0  0  0  0  0  0
   16.2331   26.6226   -1.5274 C   0  0  0  0  0  0  0  0  0  0  0  0
   17.5265   27.0322   -1.4990 C   0  0  0  0  0  0  0  0  0  0  0  0
   18.1728   27.3296   -2.6773 C   0  0  0  0  0  0  0  0  0  0  0  0
   17.4889   27.2033   -3.8575 C   0  0  0  0  0  0  0  0  0  0  0  0
   15.5417   26.6656   -5.1869 N   0  0  0  0  0  0  0  0  0  0  0  0
   15.3751   27.6160   -6.2259 C   0  0  0  0  0  0  0  0  0  0  0  0
   15.8284   27.0846   -7.5845 C   0  0  0  0  0  0  0  0  0  0  0  0
   15.3644   25.7625   -7.8609 N   0  0  0  0  0  0  0  0  0  0  0  0
   16.0709   25.2837   -9.0353 C   0  0  0  0  0  0  0  0  0  0  0  0
   15.7469   24.8875   -6.7485 C   0  0  0  0  0  0  0  0  0  0  0  0
   14.9884   25.3173   -5.4960 C   0  0  0  0  0  0  0  0  0  0  0  0
   12.7616   22.1869    1.1456 N   0  0  0  0  0  0  0  0  0  0  0  0
   11.6137   22.2802    1.9352 C   0  0  0  0  0  0  0  0  0  0  0  0
   10.8304   23.2551    1.9097 O   0  0  0  0  0  0  0  0  0  0  0  0
   13.3553   21.3100    1.2619 H   0  0  0  0  0  0  0  0  0  0  0  0
   11.2223   21.2204    2.8819 C   0  0  0  0  0  0  0  0  0  0  0  0
    9.9553   21.2304    3.3757 C   0  0  0  0  0  0  0  0  0  0  0  0
    9.4837   20.2870    4.2512 C   0  0  0  0  0  0  0  0  0  0  0  0
   10.3502   19.2734    4.6482 C   0  0  0  0  0  0  0  0  0  0  0  0
    9.9297   18.3219    5.5089 F   0  0  0  0  0  0  0  0  0  0  0  0
   11.6367   19.2437    4.1611 C   0  0  0  0  0  0  0  0  0  0  0  0
   12.0800   20.2191    3.2741 C   0  0  0  0  0  0  0  0  0  0  0  0
    8.0809   20.3294    4.7765 C   0  0  0  0  0  0  0  0  0  0  0  0
    7.8248   19.2490    5.5961 F   0  0  0  0  0  0  0  0  0  0  0  0
    7.1776   20.4215    3.7513 F   0  0  0  0  0  0  0  0  0  0  0  0
    7.9977   21.4541    5.6105 F   0  0  0  0  0  0  0  0  0  0  0  0
 11 17  1  0  0  0
 17 18  1  0  0  0
 18 19  1  0  0  0
 19 20  1  0  0  0
 20 21  1  0  0  0
 20 22  1  0  0  0
 22 23  1  0  0  0
 11 12  1  0  0  0
 12  1  1  0  0  0
  1  2  1  0  0  0
  2  3  1  0  0  0
  3  4  2  0  0  0
  4  5  1  0  0  0
  5 24  1  0  0  0
 24 25  1  0  0  0
 25 26  2  0  0  0
 25 28  1  0  0  0
 28 29  2  0  0  0
 29 30  1  0  0  0
 30 35  1  0  0  0
 35 36  1  0  0  0
 35 37  1  0  0  0
 35 38  1  0  0  0
 30 31  2  0  0  0
 31 32  1  0  0  0
 31 33  1  0  0  0
 33 34  2  0  0  0
  5  6  2  0  0  0
  6  7  1  0  0  0
  3  8  1  0  0  0
  8  9  2  0  0  0
  9 10  1  0  0  0
 12 13  2  0  0  0
 13 14  1  0  0  0
 14 15  2  0  0  0
 15 16  1  0  0  0
 16 11  2  0  0  0
 23 17  1  0  0  0
 10  1  2  0  0  0
  7  2  2  0  0  0
 34 28  1  0  0  0
 24 27  1  0  0  0
M  END
> <minimizedAffinity>
3.13540

> <CNNscore>
0.2376648486

> <CNNaffinity>
7.3604841232

> <CNN_VS>
1.7493283749

> <CNNaffinity_variance>
0.3889898658

$$$$
[H]c1nc(-c2c([H])c([H])c([H])c([H])c2N2C([H])([H])C([H])([H])N(C([H])([H])[H])C([H])([H])C2([H])[H])c2nc([H])c(N([H])C(=O)c3c([H])c([H])c(F)c(C(F)(F)F)c3[H])c([H])c2n1


 38 42  0  0  0  0  0  0  0  0999 V2000
   11.3743   20.5087    0.1360 C   0  0  0  0  0  0  0  0  0  0  0  0
   11.8613   21.5197   -0.6697 C   0  0  0  0  0  0  0  0  0  0  0  0
   13.2137   21.6188   -0.9066 C   0  0  0  0  0  0  0  0  0  0  0  0
   13.6937   22.6156   -1.7078 C   0  0  0  0  0  0  0  0  0  0  0  0
   12.8665   23.5816   -2.3292 C   0  0  0  0  0  0  0  0  0  0  0  0
   11.5342   23.4308   -2.0559 C   0  0  0  0  0  0  0  0  0  0  0  0
   11.0716   22.4312   -1.2544 N   0  0  0  0  0  0  0  0  0  0  0  0
   14.0063   20.6989   -0.3226 N   0  0  0  0  0  0  0  0  0  0  0  0
   13.5186   19.7223    0.4581 C   0  0  0  0  0  0  0  0  0  0  0  0
   12.1995   19.6379    0.6795 N   0  0  0  0  0  0  0  0  0  0  0  0
    9.2387   21.3921    0.9828 C   0  0  0  0  0  0  0  0  0  0  0  0
    9.9478   20.4383    0.3439 C   0  0  0  0  0  0  0  0  0  0  0  0
    9.3021   19.2879   -0.1845 C   0  0  0  0  0  0  0  0  0  0  0  0
    7.9610   19.1222   -0.0596 C   0  0  0  0  0  0  0  0  0  0  0  0
    7.2135   20.0801    0.5871 C   0  0  0  0  0  0  0  0  0  0  0  0
    7.8472   21.1845    1.0923 C   0  0  0  0  0  0  0  0  0  0  0  0
    9.7919   22.5469    1.5508 N   0  0  0  0  0  0  0  0  0  0  0  0
   10.9845   22.7356    2.2942 C   0  0  0  0  0  0  0  0  0  0  0  0
   11.8313   23.8898    1.7609 C   0  0  0  0  0  0  0  0  0  0  0  0
   11.0735   25.0668    1.4781 N   0  0  0  0  0  0  0  0  0  0  0  0
   11.9316   25.9773    0.7415 C   0  0  0  0  0  0  0  0  0  0  0  0
    9.9663   24.7103    0.5856 C   0  0  0  0  0  0  0  0  0  0  0  0
    9.0032   23.7919    1.3324 C   0  0  0  0  0  0  0  0  0  0  0  0
   13.4814   24.5660   -3.1159 N   0  0  0  0  0  0  0  0  0  0  0  0
   14.7315   24.4633   -3.7295 C   0  0  0  0  0  0  0  0  0  0  0  0
   15.4683   23.4564   -3.6403 O   0  0  0  0  0  0  0  0  0  0  0  0
   12.9493   25.4779   -3.2582 H   0  0  0  0  0  0  0  0  0  0  0  0
   15.2980   25.5512   -4.5467 C   0  0  0  0  0  0  0  0  0  0  0  0
   15.0127   26.8351   -4.2012 C   0  0  0  0  0  0  0  0  0  0  0  0
   15.4963   27.9210   -4.8838 C   0  0  0  0  0  0  0  0  0  0  0  0
   16.3186   27.6889   -5.9819 C   0  0  0  0  0  0  0  0  0  0  0  0
   16.8187   28.7277   -6.6846 F   0  0  0  0  0  0  0  0  0  0  0  0
   16.6204   26.3978   -6.3495 C   0  0  0  0  0  0  0  0  0  0  0  0
   16.1104   25.3205   -5.6325 C   0  0  0  0  0  0  0  0  0  0  0  0
   15.1603   29.3231   -4.4755 C   0  0  0  0  0  0  0  0  0  0  0  0
   13.9316   29.3770   -3.8495 F   0  0  0  0  0  0  0  0  0  0  0  0
   15.2284   30.1738   -5.5468 F   0  0  0  0  0  0  0  0  0  0  0  0
   16.0921   29.6902   -3.4935 F   0  0  0  0  0  0  0  0  0  0  0  0
 11 17  1  0  0  0
 17 18  1  0  0  0
 18 19  1  0  0  0
 19 20  1  0  0  0
 20 21  1  0  0  0
 20 22  1  0  0  0
 22 23  1  0  0  0
 11 12  1  0  0  0
 12  1  1  0  0  0
  1  2  1  0  0  0
  2  3  1  0  0  0
  3  4  2  0  0  0
  4  5  1  0  0  0
  5 24  1  0  0  0
 24 25  1  0  0  0
 25 26  2  0  0  0
 25 28  1  0  0  0
 28 29  2  0  0  0
 29 30  1  0  0  0
 30 35  1  0  0  0
 35 36  1  0  0  0
 35 37  1  0  0  0
 35 38  1  0  0  0
 30 31  2  0  0  0
 31 32  1  0  0  0
 31 33  1  0  0  0
 33 34  2  0  0  0
  5  6  2  0  0  0
  6  7  1  0  0  0
  3  8  1  0  0  0
  8  9  2  0  0  0
  9 10  1  0  0  0
 12 13  2  0  0  0
 13 14  1  0  0  0
 14 15  2  0  0  0
 15 16  1  0  0  0
 16 11  2  0  0  0
 23 17  1  0  0  0
 10  1  2  0  0  0
  7  2  2  0  0  0
 34 28  1  0  0  0
 24 27  1  0  0  0
M  END
> <minimizedAffinity>
9.65924

> <CNNscore>
0.2171646208

> <CNNaffinity>
6.8574876785

> <CNN_VS>
1.4892036915

> <CNNaffinity_variance>
0.4334429801

$$$$
[H]c1nc(-c2c([H])c([H])c([H])c([H])c2N2C([H])([H])C([H])([H])N(C([H])([H])[H])C([H])([H])C2([H])[H])c2nc([H])c(N([H])C(=O)c3c([H])c([H])c(F)c(C(F)(F)F)c3[H])c([H])c2n1


 38 42  0  0  0  0  0  0  0  0999 V2000
   10.5512   21.5563    2.5927 C   0  0  0  0  0  0  0  0  0  0  0  0
   11.2866   22.4063    1.7896 C   0  0  0  0  0  0  0  0  0  0  0  0
   12.5132   22.0079    1.3086 C   0  0  0  0  0  0  0  0  0  0  0  0
   13.2372   22.8471    0.5101 C   0  0  0  0  0  0  0  0  0  0  0  0
   12.7948   24.1379    0.1334 C   0  0  0  0  0  0  0  0  0  0  0  0
   11.5705   24.4762    0.6423 C   0  0  0  0  0  0  0  0  0  0  0  0
   10.8612   23.6276    1.4375 N   0  0  0  0  0  0  0  0  0  0  0  0
   12.9378   20.7780    1.6587 N   0  0  0  0  0  0  0  0  0  0  0  0
   12.2122   19.9632    2.4402 C   0  0  0  0  0  0  0  0  0  0  0  0
   11.0194   20.3644    2.9009 N   0  0  0  0  0  0  0  0  0  0  0  0
    8.1430   21.9812    2.3132 C   0  0  0  0  0  0  0  0  0  0  0  0
    9.2652   22.0138    3.0617 C   0  0  0  0  0  0  0  0  0  0  0  0
    9.2318   22.5030    4.3955 C   0  0  0  0  0  0  0  0  0  0  0  0
    8.0738   22.9470    4.9464 C   0  0  0  0  0  0  0  0  0  0  0  0
    6.9142   22.9243    4.2052 C   0  0  0  0  0  0  0  0  0  0  0  0
    6.9590   22.4508    2.9205 C   0  0  0  0  0  0  0  0  0  0  0  0
    8.0856   21.5349    0.9866 N   0  0  0  0  0  0  0  0  0  0  0  0
    9.0979   21.0263    0.1339 C   0  0  0  0  0  0  0  0  0  0  0  0
    8.6948   19.7144   -0.5368 C   0  0  0  0  0  0  0  0  0  0  0  0
    7.3715   19.7339   -1.0735 N   0  0  0  0  0  0  0  0  0  0  0  0
    7.0222   18.3720   -1.4353 C   0  0  0  0  0  0  0  0  0  0  0  0
    6.4415   20.1451   -0.0174 C   0  0  0  0  0  0  0  0  0  0  0  0
    6.7332   21.5936    0.3641 C   0  0  0  0  0  0  0  0  0  0  0  0
   13.6375   24.9114   -0.6774 N   0  0  0  0  0  0  0  0  0  0  0  0
   14.1316   24.5459   -1.9312 C   0  0  0  0  0  0  0  0  0  0  0  0
   13.8769   23.4546   -2.4870 O   0  0  0  0  0  0  0  0  0  0  0  0
   13.9313   25.8650   -0.3040 H   0  0  0  0  0  0  0  0  0  0  0  0
   15.0105   25.4296   -2.7181 C   0  0  0  0  0  0  0  0  0  0  0  0
   14.7508   25.5854   -4.0439 C   0  0  0  0  0  0  0  0  0  0  0  0
   15.4961   26.3915   -4.8647 C   0  0  0  0  0  0  0  0  0  0  0  0
   16.5681   27.0801   -4.3058 C   0  0  0  0  0  0  0  0  0  0  0  0
   17.3302   27.8861   -5.0756 F   0  0  0  0  0  0  0  0  0  0  0  0
   16.8492   26.9372   -2.9665 C   0  0  0  0  0  0  0  0  0  0  0  0
   16.0705   26.1094   -2.1646 C   0  0  0  0  0  0  0  0  0  0  0  0
   15.1819   26.5390   -6.3225 C   0  0  0  0  0  0  0  0  0  0  0  0
   16.0865   27.3765   -6.9430 F   0  0  0  0  0  0  0  0  0  0  0  0
   13.8895   26.9542   -6.5044 F   0  0  0  0  0  0  0  0  0  0  0  0
   15.3828   25.2798   -6.9066 F   0  0  0  0  0  0  0  0  0  0  0  0
 11 17  1  0  0  0
 17 18  1  0  0  0
 18 19  1  0  0  0
 19 20  1  0  0  0
 20 21  1  0  0  0
 20 22  1  0  0  0
 22 23  1  0  0  0
 11 12  1  0  0  0
 12  1  1  0  0  0
  1  2  1  0  0  0
  2  3  1  0  0  0
  3  4  2  0  0  0
  4  5  1  0  0  0
  5 24  1  0  0  0
 24 25  1  0  0  0
 25 26  2  0  0  0
 25 28  1  0  0  0
 28 29  2  0  0  0
 29 30  1  0  0  0
 30 35  1  0  0  0
 35 36  1  0  0  0
 35 37  1  0  0  0
 35 38  1  0  0  0
 30 31  2  0  0  0
 31 32  1  0  0  0
 31 33  1  0  0  0
 33 34  2  0  0  0
  5  6  2  0  0  0
  6  7  1  0  0  0
  3  8  1  0  0  0
  8  9  2  0  0  0
  9 10  1  0  0  0
 12 13  2  0  0  0
 13 14  1  0  0  0
 14 15  2  0  0  0
 15 16  1  0  0  0
 16 11  2  0  0  0
 23 17  1  0  0  0
 10  1  2  0  0  0
  7  2  2  0  0  0
 34 28  1  0  0  0
 24 27  1  0  0  0
M  END
> <minimizedAffinity>
-10.67668

> <CNNscore>
0.1907330602

> <CNNaffinity>
7.2692117691

> <CNN_VS>
1.3864790201

> <CNNaffinity_variance>
0.5230906606

$$$$
[H]c1nc(-c2c([H])c([H])c([H])c([H])c2N2C([H])([H])C([H])([H])N(C([H])([H])[H])C([H])([H])C2([H])[H])c2nc([H])c(N([H])C(=O)c3c([H])c([H])c(F)c(C(F)(F)F)c3[H])c([H])c2n1


 38 42  0  0  0  0  0  0  0  0999 V2000
    9.7051   22.9959    3.5958 C   0  0  0  0  0  0  0  0  0  0  0  0
   10.3999   23.2443    2.4279 C   0  0  0  0  0  0  0  0  0  0  0  0
   10.3209   24.4822    1.8311 C   0  0  0  0  0  0  0  0  0  0  0  0
   11.0126   24.7286    0.6792 C   0  0  0  0  0  0  0  0  0  0  0  0
   11.8301   23.7654    0.0406 C   0  0  0  0  0  0  0  0  0  0  0  0
   11.8678   22.5565    0.6806 C   0  0  0  0  0  0  0  0  0  0  0  0
   11.1718   22.3268    1.8288 N   0  0  0  0  0  0  0  0  0  0  0  0
    9.5489   25.4055    2.4370 N   0  0  0  0  0  0  0  0  0  0  0  0
    8.8794   25.1494    3.5715 C   0  0  0  0  0  0  0  0  0  0  0  0
    8.9661   23.9396    4.1416 N   0  0  0  0  0  0  0  0  0  0  0  0
    8.9438   20.6890    3.9923 C   0  0  0  0  0  0  0  0  0  0  0  0
    9.8301   21.6869    4.1909 C   0  0  0  0  0  0  0  0  0  0  0  0
   10.9735   21.4871    5.0107 C   0  0  0  0  0  0  0  0  0  0  0  0
   11.2006   20.2914    5.6110 C   0  0  0  0  0  0  0  0  0  0  0  0
   10.3128   19.2562    5.4248 C   0  0  0  0  0  0  0  0  0  0  0  0
    9.2141   19.4609    4.6325 C   0  0  0  0  0  0  0  0  0  0  0  0
    7.7819   20.8009    3.2180 N   0  0  0  0  0  0  0  0  0  0  0  0
    6.7085   21.7251    3.2834 C   0  0  0  0  0  0  0  0  0  0  0  0
    6.3838   22.3435    1.9248 C   0  0  0  0  0  0  0  0  0  0  0  0
    6.3276   21.3882    0.8647 N   0  0  0  0  0  0  0  0  0  0  0  0
    6.2792   22.1213   -0.3875 C   0  0  0  0  0  0  0  0  0  0  0  0
    7.5752   20.6182    0.8587 C   0  0  0  0  0  0  0  0  0  0  0  0
    7.6505   19.7857    2.1354 C   0  0  0  0  0  0  0  0  0  0  0  0
   12.4762   24.1349   -1.1476 N   0  0  0  0  0  0  0  0  0  0  0  0
   13.7377   23.7042   -1.5636 C   0  0  0  0  0  0  0  0  0  0  0  0
   14.4576   22.9230   -0.9031 O   0  0  0  0  0  0  0  0  0  0  0  0
   11.9607   24.8077   -1.7931 H   0  0  0  0  0  0  0  0  0  0  0  0
   14.3376   24.1419   -2.8367 C   0  0  0  0  0  0  0  0  0  0  0  0
   13.9662   25.3469   -3.3458 C   0  0  0  0  0  0  0  0  0  0  0  0
   14.4703   25.8552   -4.5148 C   0  0  0  0  0  0  0  0  0  0  0  0
   15.4073   25.0946   -5.2073 C   0  0  0  0  0  0  0  0  0  0  0  0
   15.9318   25.5548   -6.3632 F   0  0  0  0  0  0  0  0  0  0  0  0
   15.7976   23.8722   -4.7106 C   0  0  0  0  0  0  0  0  0  0  0  0
   15.2634   23.3888   -3.5207 C   0  0  0  0  0  0  0  0  0  0  0  0
   14.0374   27.1872   -5.0474 C   0  0  0  0  0  0  0  0  0  0  0  0
   15.0038   28.1477   -4.8278 F   0  0  0  0  0  0  0  0  0  0  0  0
   12.8242   27.5512   -4.5265 F   0  0  0  0  0  0  0  0  0  0  0  0
   13.9568   27.0559   -6.4415 F   0  0  0  0  0  0  0  0  0  0  0  0
 11 17  1  0  0  0
 17 18  1  0  0  0
 18 19  1  0  0  0
 19 20  1  0  0  0
 20 21  1  0  0  0
 20 22  1  0  0  0
 22 23  1  0  0  0
 11 12  1  0  0  0
 12  1  1  0  0  0
  1  2  1  0  0  0
  2  3  1  0  0  0
  3  4  2  0  0  0
  4  5  1  0  0  0
  5 24  1  0  0  0
 24 25  1  0  0  0
 25 26  2  0  0  0
 25 28  1  0  0  0
 28 29  2  0  0  0
 29 30  1  0  0  0
 30 35  1  0  0  0
 35 36  1  0  0  0
 35 37  1  0  0  0
 35 38  1  0  0  0
 30 31  2  0  0  0
 31 32  1  0  0  0
 31 33  1  0  0  0
 33 34  2  0  0  0
  5  6  2  0  0  0
  6  7  1  0  0  0
  3  8  1  0  0  0
  8  9  2  0  0  0
  9 10  1  0  0  0
 12 13  2  0  0  0
 13 14  1  0  0  0
 14 15  2  0  0  0
 15 16  1  0  0  0
 16 11  2  0  0  0
 23 17  1  0  0  0
 10  1  2  0  0  0
  7  2  2  0  0  0
 34 28  1  0  0  0
 24 27  1  0  0  0
M  END
> <minimizedAffinity>
-4.92148

> <CNNscore>
0.1813646704

> <CNNaffinity>
7.0088858604

> <CNN_VS>
1.2711642981

> <CNNaffinity_variance>
0.1911440641

$$$$
[H]OC(=O)[C@@]1([H])N(C(=O)[C@@]2([H])N(C(=O)[C@]([H])(N([H])C(=O)c3c([H])c([H])c(F)c([H])c3[H])C([H])([H])c3c([H])c([H])c([H])c([H])c3[H])C([H])([H])C([H])([H])C2([H])[H])C([H])([H])C([H])([H])C1([H])[H]


 37 40  0  0  0  0  0  0  0  0999 V2000
   12.5924   26.2063   -3.1846 C   0  0  0  0  0  0  0  0  0  0  0  0
   13.5644   24.3027    0.0954 C   0  0  0  0  0  0  0  0  0  0  0  0
   14.0848   25.1859    1.2031 C   0  0  0  0  0  0  0  0  0  0  0  0
   13.6183   26.6156    0.8749 C   0  0  0  0  0  0  0  0  0  0  0  0
   12.4376   26.2800   -0.0454 C   0  0  0  0  0  0  0  0  0  0  0  0
   13.0402   25.2618   -0.8352 N   0  0  0  0  0  0  0  0  0  0  0  0
   13.0955   25.1746   -2.2434 C   0  0  0  0  0  0  0  0  0  0  0  0
   13.6166   24.1304   -2.8002 O   0  0  0  0  0  0  0  0  0  0  0  0
   11.2967   21.1410    0.3806 C   0  0  0  0  0  0  0  0  0  0  0  0
   11.3917   19.9901   -0.6354 C   0  0  0  0  0  0  0  0  0  0  0  0
   12.8782   20.0304   -0.9353 C   0  0  0  0  0  0  0  0  0  0  0  0
   13.0596   21.5430   -1.1338 C   0  0  0  0  0  0  0  0  0  0  0  0
   12.3042   22.0862   -0.0345 N   0  0  0  0  0  0  0  0  0  0  0  0
   12.5120   23.3524    0.5428 C   0  0  0  0  0  0  0  0  0  0  0  0
   11.7743   23.7420    1.5068 O   0  0  0  0  0  0  0  0  0  0  0  0
   12.7633   20.4793    2.2922 O   0  0  0  0  0  0  0  0  0  0  0  0
   11.5097   20.6299    1.7435 C   0  0  0  0  0  0  0  0  0  0  0  0
   10.5210   20.3179    2.4375 O   0  0  0  0  0  0  0  0  0  0  0  0
   12.9685   20.3407    3.2512 H   0  0  0  0  0  0  0  0  0  0  0  0
   13.2511   25.9769   -4.4846 N   0  0  0  0  0  0  0  0  0  0  0  0
   14.5956   26.3414   -4.6356 C   0  0  0  0  0  0  0  0  0  0  0  0
   15.2640   26.8657   -3.6805 O   0  0  0  0  0  0  0  0  0  0  0  0
   12.7084   25.5624   -5.2349 H   0  0  0  0  0  0  0  0  0  0  0  0
   15.3011   26.1432   -5.8868 C   0  0  0  0  0  0  0  0  0  0  0  0
   15.8998   27.2034   -6.5470 C   0  0  0  0  0  0  0  0  0  0  0  0
   16.5758   27.0418   -7.7306 C   0  0  0  0  0  0  0  0  0  0  0  0
   16.6528   25.7736   -8.2683 C   0  0  0  0  0  0  0  0  0  0  0  0
   17.3097   25.5724   -9.4328 F   0  0  0  0  0  0  0  0  0  0  0  0
   16.0764   24.6896   -7.6528 C   0  0  0  0  0  0  0  0  0  0  0  0
   15.3988   24.9113   -6.4473 C   0  0  0  0  0  0  0  0  0  0  0  0
   12.9795   27.6050   -2.7198 C   0  0  0  0  0  0  0  0  0  0  0  0
   12.1425   28.6472   -3.3261 C   0  0  0  0  0  0  0  0  0  0  0  0
   11.1956   28.3288   -4.2770 C   0  0  0  0  0  0  0  0  0  0  0  0
   10.4378   29.3367   -4.8131 C   0  0  0  0  0  0  0  0  0  0  0  0
   10.6113   30.6366   -4.4182 C   0  0  0  0  0  0  0  0  0  0  0  0
   11.5597   30.9708   -3.4634 C   0  0  0  0  0  0  0  0  0  0  0  0
   12.3303   29.9693   -2.9136 C   0  0  0  0  0  0  0  0  0  0  0  0
 16 17  1  0  0  0
 17 18  2  0  0  0
 17  9  1  0  0  0
  9 10  1  0  0  0
 10 11  1  0  0  0
 11 12  1  0  0  0
 12 13  1  0  0  0
 13 14  1  0  0  0
 14 15  2  0  0  0
 14  2  1  0  0  0
  2  3  1  0  0  0
  3  4  1  0  0  0
  4  5  1  0  0  0
  5  6  1  0  0  0
  6  7  1  0  0  0
  7  8  2  0  0  0
  7  1  1  0  0  0
  1 31  1  0  0  0
 31 32  1  0  0  0
 32 33  2  0  0  0
 33 34  1  0  0  0
 34 35  2  0  0  0
 35 36  1  0  0  0
 36 37  2  0  0  0
  1 20  1  0  0  0
 20 21  1  0  0  0
 21 22  2  0  0  0
 21 24  1  0  0  0
 24 25  2  0  0  0
 25 26  1  0  0  0
 26 27  2  0  0  0
 27 28  1  0  0  0
 27 29  1  0  0  0
 29 30  2  0  0  0
 13  9  1  0  0  0
  6  2  1  0  0  0
 37 32  1  0  0  0
 30 24  1  0  0  0
 16 19  1  0  0  0
 20 23  1  0  0  0
M  END
> <minimizedAffinity>
15.27727

> <CNNscore>
0.6042429805

> <CNNaffinity>
7.2946081161

> <CNN_VS>
4.4077157974

> <CNNaffinity_variance>
1.1716365814

$$$$
[H]OC(=O)[C@@]1([H])N(C(=O)[C@@]2([H])N(C(=O)[C@]([H])(N([H])C(=O)c3c([H])c([H])c(F)c([H])c3[H])C([H])([H])c3c([H])c([H])c([H])c([H])c3[H])C([H])([H])C([H])([H])C2([H])[H])C([H])([H])C([H])([H])C1([H])[H]


 37 40  0  0  0  0  0  0  0  0999 V2000
   12.1985   26.7983   -3.4614 C   0  0  0  0  0  0  0  0  0  0  0  0
   12.4658   24.5592   -0.2611 C   0  0  0  0  0  0  0  0  0  0  0  0
   11.1400   24.1108    0.3039 C   0  0  0  0  0  0  0  0  0  0  0  0
   10.1091   24.2684   -0.8282 C   0  0  0  0  0  0  0  0  0  0  0  0
   11.0626   24.2402   -2.0298 C   0  0  0  0  0  0  0  0  0  0  0  0
   12.0847   25.0976   -1.5361 N   0  0  0  0  0  0  0  0  0  0  0  0
   12.6465   26.2298   -2.1655 C   0  0  0  0  0  0  0  0  0  0  0  0
   13.6318   26.8512   -1.6042 O   0  0  0  0  0  0  0  0  0  0  0  0
   15.7898   22.5170   -0.2349 C   0  0  0  0  0  0  0  0  0  0  0  0
   17.1378   23.1809    0.0935 C   0  0  0  0  0  0  0  0  0  0  0  0
   16.6809   24.2053    1.1148 C   0  0  0  0  0  0  0  0  0  0  0  0
   15.4529   24.7681    0.3830 C   0  0  0  0  0  0  0  0  0  0  0  0
   14.8150   23.5722   -0.1036 N   0  0  0  0  0  0  0  0  0  0  0  0
   13.4475   23.4529   -0.4130 C   0  0  0  0  0  0  0  0  0  0  0  0
   12.9875   22.3479   -0.8519 O   0  0  0  0  0  0  0  0  0  0  0  0
   16.0181   21.3661    1.9711 O   0  0  0  0  0  0  0  0  0  0  0  0
   15.5472   21.3889    0.6776 C   0  0  0  0  0  0  0  0  0  0  0  0
   14.8898   20.4092    0.2722 O   0  0  0  0  0  0  0  0  0  0  0  0
   15.7254   20.7493    2.6886 H   0  0  0  0  0  0  0  0  0  0  0  0
   13.0327   26.1972   -4.5193 N   0  0  0  0  0  0  0  0  0  0  0  0
   14.1675   26.8899   -4.9619 C   0  0  0  0  0  0  0  0  0  0  0  0
   14.4976   28.0248   -4.4753 O   0  0  0  0  0  0  0  0  0  0  0  0
   12.7580   25.2972   -4.8985 H   0  0  0  0  0  0  0  0  0  0  0  0
   15.0287   26.3547   -5.9984 C   0  0  0  0  0  0  0  0  0  0  0  0
   15.1482   24.9890   -6.1958 C   0  0  0  0  0  0  0  0  0  0  0  0
   15.9540   24.4575   -7.1717 C   0  0  0  0  0  0  0  0  0  0  0  0
   16.6628   25.3265   -7.9753 C   0  0  0  0  0  0  0  0  0  0  0  0
   17.4677   24.8429   -8.9480 F   0  0  0  0  0  0  0  0  0  0  0  0
   16.5787   26.6886   -7.8202 C   0  0  0  0  0  0  0  0  0  0  0  0
   15.7416   27.1770   -6.8090 C   0  0  0  0  0  0  0  0  0  0  0  0
   12.4258   28.3046   -3.5047 C   0  0  0  0  0  0  0  0  0  0  0  0
   11.2771   29.0273   -4.0638 C   0  0  0  0  0  0  0  0  0  0  0  0
   10.3762   28.3905   -4.8914 C   0  0  0  0  0  0  0  0  0  0  0  0
    9.3193   29.1075   -5.3878 C   0  0  0  0  0  0  0  0  0  0  0  0
    9.1539   30.4301   -5.0734 C   0  0  0  0  0  0  0  0  0  0  0  0
   10.0522   31.0828   -4.2426 C   0  0  0  0  0  0  0  0  0  0  0  0
   11.1208   30.3766   -3.7344 C   0  0  0  0  0  0  0  0  0  0  0  0
 16 17  1  0  0  0
 17 18  2  0  0  0
 17  9  1  0  0  0
  9 10  1  0  0  0
 10 11  1  0  0  0
 11 12  1  0  0  0
 12 13  1  0  0  0
 13 14  1  0  0  0
 14 15  2  0  0  0
 14  2  1  0  0  0
  2  3  1  0  0  0
  3  4  1  0  0  0
  4  5  1  0  0  0
  5  6  1  0  0  0
  6  7  1  0  0  0
  7  8  2  0  0  0
  7  1  1  0  0  0
  1 31  1  0  0  0
 31 32  1  0  0  0
 32 33  2  0  0  0
 33 34  1  0  0  0
 34 35  2  0  0  0
 35 36  1  0  0  0
 36 37  2  0  0  0
  1 20  1  0  0  0
 20 21  1  0  0  0
 21 22  2  0  0  0
 21 24  1  0  0  0
 24 25  2  0  0  0
 25 26  1  0  0  0
 26 27  2  0  0  0
 27 28  1  0  0  0
 27 29  1  0  0  0
 29 30  2  0  0  0
 13  9  1  0  0  0
  6  2  1  0  0  0
 37 32  1  0  0  0
 30 24  1  0  0  0
 16 19  1  0  0  0
 20 23  1  0  0  0
M  END
> <minimizedAffinity>
15.71962

> <CNNscore>
0.5938150883

> <CNNaffinity>
7.3236565590

> <CNN_VS>
4.3488979340

> <CNNaffinity_variance>
1.3627502918

$$$$
[H]OC(=O)[C@@]1([H])N(C(=O)[C@@]2([H])N(C(=O)[C@]([H])(N([H])C(=O)c3c([H])c([H])c(F)c([H])c3[H])C([H])([H])c3c([H])c([H])c([H])c([H])c3[H])C([H])([H])C([H])([H])C2([H])[H])C([H])([H])C([H])([H])C1([H])[H]


 37 40  0  0  0  0  0  0  0  0999 V2000
   14.6416   23.4617   -2.2807 C   0  0  0  0  0  0  0  0  0  0  0  0
   12.7061   24.6325    0.9145 C   0  0  0  0  0  0  0  0  0  0  0  0
   11.8628   25.8689    0.7198 C   0  0  0  0  0  0  0  0  0  0  0  0
   11.6405   26.0094   -0.7968 C   0  0  0  0  0  0  0  0  0  0  0  0
   11.8936   24.5551   -1.2146 C   0  0  0  0  0  0  0  0  0  0  0  0
   13.0530   24.2874   -0.4350 N   0  0  0  0  0  0  0  0  0  0  0  0
   14.2888   23.7611   -0.8704 C   0  0  0  0  0  0  0  0  0  0  0  0
   15.2152   23.5038   -0.0058 O   0  0  0  0  0  0  0  0  0  0  0  0
    9.8459   22.3719    2.3036 C   0  0  0  0  0  0  0  0  0  0  0  0
    8.3724   22.8076    2.2344 C   0  0  0  0  0  0  0  0  0  0  0  0
    8.3874   23.5671    0.9214 C   0  0  0  0  0  0  0  0  0  0  0  0
    9.6587   24.4056    1.1238 C   0  0  0  0  0  0  0  0  0  0  0  0
   10.5780   23.4376    1.6640 N   0  0  0  0  0  0  0  0  0  0  0  0
   11.9804   23.5225    1.5869 C   0  0  0  0  0  0  0  0  0  0  0  0
   12.7037   22.6140    2.1131 O   0  0  0  0  0  0  0  0  0  0  0  0
   11.0744   20.2312    1.9157 O   0  0  0  0  0  0  0  0  0  0  0  0
   10.0193   21.0711    1.6391 C   0  0  0  0  0  0  0  0  0  0  0  0
    9.1820   20.7057    0.7895 O   0  0  0  0  0  0  0  0  0  0  0  0
   11.1414   19.2752    1.6654 H   0  0  0  0  0  0  0  0  0  0  0  0
   14.6178   24.7369   -3.0222 N   0  0  0  0  0  0  0  0  0  0  0  0
   15.7845   25.1654   -3.6692 C   0  0  0  0  0  0  0  0  0  0  0  0
   16.8650   24.4835   -3.6338 O   0  0  0  0  0  0  0  0  0  0  0  0
   13.7545   25.2695   -3.0401 H   0  0  0  0  0  0  0  0  0  0  0  0
   15.8279   26.4088   -4.4140 C   0  0  0  0  0  0  0  0  0  0  0  0
   15.8547   27.6319   -3.7648 C   0  0  0  0  0  0  0  0  0  0  0  0
   15.8990   28.8225   -4.4465 C   0  0  0  0  0  0  0  0  0  0  0  0
   15.9169   28.7827   -5.8254 C   0  0  0  0  0  0  0  0  0  0  0  0
   15.9602   29.9334   -6.5339 F   0  0  0  0  0  0  0  0  0  0  0  0
   15.8918   27.5959   -6.5163 C   0  0  0  0  0  0  0  0  0  0  0  0
   15.8468   26.4110   -5.7709 C   0  0  0  0  0  0  0  0  0  0  0  0
   13.6055   22.5451   -2.9202 C   0  0  0  0  0  0  0  0  0  0  0  0
   13.3138   21.3684   -2.0929 C   0  0  0  0  0  0  0  0  0  0  0  0
   13.0791   21.4964   -0.7398 C   0  0  0  0  0  0  0  0  0  0  0  0
   12.8101   20.3684   -0.0099 C   0  0  0  0  0  0  0  0  0  0  0  0
   12.7733   19.1351   -0.6044 C   0  0  0  0  0  0  0  0  0  0  0  0
   13.0075   18.9920   -1.9637 C   0  0  0  0  0  0  0  0  0  0  0  0
   13.2794   20.1162   -2.7129 C   0  0  0  0  0  0  0  0  0  0  0  0
 16 17  1  0  0  0
 17 18  2  0  0  0
 17  9  1  0  0  0
  9 10  1  0  0  0
 10 11  1  0  0  0
 11 12  1  0  0  0
 12 13  1  0  0  0
 13 14  1  0  0  0
 14 15  2  0  0  0
 14  2  1  0  0  0
  2  3  1  0  0  0
  3  4  1  0  0  0
  4  5  1  0  0  0
  5  6  1  0  0  0
  6  7  1  0  0  0
  7  8  2  0  0  0
  7  1  1  0  0  0
  1 31  1  0  0  0
 31 32  1  0  0  0
 32 33  2  0  0  0
 33 34  1  0  0  0
 34 35  2  0  0  0
 35 36  1  0  0  0
 36 37  2  0  0  0
  1 20  1  0  0  0
 20 21  1  0  0  0
 21 22  2  0  0  0
 21 24  1  0  0  0
 24 25  2  0  0  0
 25 26  1  0  0  0
 26 27  2  0  0  0
 27 28  1  0  0  0
 27 29  1  0  0  0
 29 30  2  0  0  0
 13  9  1  0  0  0
  6  2  1  0  0  0
 37 32  1  0  0  0
 30 24  1  0  0  0
 16 19  1  0  0  0
 20 23  1  0  0  0
M  END
> <minimizedAffinity>
5.88018

> <CNNscore>
0.5569054484

> <CNNaffinity>
7.3413314819

> <CNN_VS>
4.0884275436

> <CNNaffinity_variance>
0.9599530101

$$$$
[H]OC(=O)[C@@]1([H])N(C(=O)[C@@]2([H])N(C(=O)[C@]([H])(N([H])C(=O)c3c([H])c([H])c(F)c([H])c3[H])C([H])([H])c3c([H])c([H])c([H])c([H])c3[H])C([H])([H])C([H])([H])C2([H])[H])C([H])([H])C([H])([H])C1([H])[H]


 37 40  0  0  0  0  0  0  0  0999 V2000
   13.4603   22.0124    1.0958 C   0  0  0  0  0  0  0  0  0  0  0  0
   12.0213   23.9413   -1.9922 C   0  0  0  0  0  0  0  0  0  0  0  0
   10.5498   24.2639   -1.9009 C   0  0  0  0  0  0  0  0  0  0  0  0
   10.1742   24.1640   -0.4114 C   0  0  0  0  0  0  0  0  0  0  0  0
   11.5665   24.3576    0.2031 C   0  0  0  0  0  0  0  0  0  0  0  0
   12.3200   23.5102   -0.6559 N   0  0  0  0  0  0  0  0  0  0  0  0
   13.2083   22.4748   -0.2920 C   0  0  0  0  0  0  0  0  0  0  0  0
   13.8768   21.8535   -1.2080 O   0  0  0  0  0  0  0  0  0  0  0  0
   14.9113   26.1055   -3.4701 C   0  0  0  0  0  0  0  0  0  0  0  0
   16.1784   25.4606   -4.0570 C   0  0  0  0  0  0  0  0  0  0  0  0
   15.5773   24.2012   -4.6517 C   0  0  0  0  0  0  0  0  0  0  0  0
   14.6950   23.7569   -3.4751 C   0  0  0  0  0  0  0  0  0  0  0  0
   14.0808   24.9954   -3.0716 N   0  0  0  0  0  0  0  0  0  0  0  0
   12.8581   25.1062   -2.3842 C   0  0  0  0  0  0  0  0  0  0  0  0
   12.4103   26.2554   -2.0615 O   0  0  0  0  0  0  0  0  0  0  0  0
   12.9102   27.1285   -4.5617 O   0  0  0  0  0  0  0  0  0  0  0  0
   14.2752   26.9727   -4.4737 C   0  0  0  0  0  0  0  0  0  0  0  0
   14.9929   27.5959   -5.2817 O   0  0  0  0  0  0  0  0  0  0  0  0
   12.4341   27.8369   -5.0643 H   0  0  0  0  0  0  0  0  0  0  0  0
   12.1576   21.9567    1.7861 N   0  0  0  0  0  0  0  0  0  0  0  0
   11.8874   20.8756    2.6355 C   0  0  0  0  0  0  0  0  0  0  0  0
   12.7364   19.9395    2.8272 O   0  0  0  0  0  0  0  0  0  0  0  0
   11.4919   22.7048    1.6231 H   0  0  0  0  0  0  0  0  0  0  0  0
   10.6268   20.7610    3.3428 C   0  0  0  0  0  0  0  0  0  0  0  0
    9.4885   21.4046    2.8864 C   0  0  0  0  0  0  0  0  0  0  0  0
    8.2830   21.3096    3.5359 C   0  0  0  0  0  0  0  0  0  0  0  0
    8.2191   20.5430    4.6811 C   0  0  0  0  0  0  0  0  0  0  0  0
    7.0503   20.4241    5.3502 F   0  0  0  0  0  0  0  0  0  0  0  0
    9.3191   19.8850    5.1746 C   0  0  0  0  0  0  0  0  0  0  0  0
   10.5239   20.0163    4.4726 C   0  0  0  0  0  0  0  0  0  0  0  0
   14.3332   23.0061    1.8527 C   0  0  0  0  0  0  0  0  0  0  0  0
   15.3494   23.6251    0.9934 C   0  0  0  0  0  0  0  0  0  0  0  0
   15.0789   24.7894    0.3053 C   0  0  0  0  0  0  0  0  0  0  0  0
   16.0603   25.3296   -0.4837 C   0  0  0  0  0  0  0  0  0  0  0  0
   17.2876   24.7316   -0.5922 C   0  0  0  0  0  0  0  0  0  0  0  0
   17.5730   23.5608    0.0939 C   0  0  0  0  0  0  0  0  0  0  0  0
   16.5973   23.0040    0.8921 C   0  0  0  0  0  0  0  0  0  0  0  0
 16 17  1  0  0  0
 17 18  2  0  0  0
 17  9  1  0  0  0
  9 10  1  0  0  0
 10 11  1  0  0  0
 11 12  1  0  0  0
 12 13  1  0  0  0
 13 14  1  0  0  0
 14 15  2  0  0  0
 14  2  1  0  0  0
  2  3  1  0  0  0
  3  4  1  0  0  0
  4  5  1  0  0  0
  5  6  1  0  0  0
  6  7  1  0  0  0
  7  8  2  0  0  0
  7  1  1  0  0  0
  1 31  1  0  0  0
 31 32  1  0  0  0
 32 33  2  0  0  0
 33 34  1  0  0  0
 34 35  2  0  0  0
 35 36  1  0  0  0
 36 37  2  0  0  0
  1 20  1  0  0  0
 20 21  1  0  0  0
 21 22  2  0  0  0
 21 24  1  0  0  0
 24 25  2  0  0  0
 25 26  1  0  0  0
 26 27  2  0  0  0
 27 28  1  0  0  0
 27 29  1  0  0  0
 29 30  2  0  0  0
 13  9  1  0  0  0
  6  2  1  0  0  0
 37 32  1  0  0  0
 30 24  1  0  0  0
 16 19  1  0  0  0
 20 23  1  0  0  0
M  END
> <minimizedAffinity>
-1.72521

> <CNNscore>
0.5522372723

> <CNNaffinity>
7.3495664597

> <CNN_VS>
4.0587043762

> <CNNaffinity_variance>
0.3329548836

$$$$
[H]OC(=O)[C@@]1([H])N(C(=O)[C@@]2([H])N(C(=O)[C@]([H])(N([H])C(=O)c3c([H])c([H])c(F)c([H])c3[H])C([H])([H])c3c([H])c([H])c([H])c([H])c3[H])C([H])([H])C([H])([H])C2([H])[H])C([H])([H])C([H])([H])C1([H])[H]


 37 40  0  0  0  0  0  0  0  0999 V2000
   15.8537   23.7381   -2.9499 C   0  0  0  0  0  0  0  0  0  0  0  0
   13.3968   26.4862   -4.2685 C   0  0  0  0  0  0  0  0  0  0  0  0
   12.0585   26.5185   -3.5715 C   0  0  0  0  0  0  0  0  0  0  0  0
   12.2474   25.7827   -2.2327 C   0  0  0  0  0  0  0  0  0  0  0  0
   13.7680   25.9274   -2.0892 C   0  0  0  0  0  0  0  0  0  0  0  0
   14.1584   25.6134   -3.4206 N   0  0  0  0  0  0  0  0  0  0  0  0
   15.1170   24.6668   -3.8433 C   0  0  0  0  0  0  0  0  0  0  0  0
   15.4078   24.5673   -5.0993 O   0  0  0  0  0  0  0  0  0  0  0  0
   15.7076   29.4099   -5.4228 C   0  0  0  0  0  0  0  0  0  0  0  0
   16.8469   29.1831   -6.4309 C   0  0  0  0  0  0  0  0  0  0  0  0
   16.2148   28.1134   -7.3011 C   0  0  0  0  0  0  0  0  0  0  0  0
   15.6616   27.1864   -6.2080 C   0  0  0  0  0  0  0  0  0  0  0  0
   15.0718   28.1223   -5.2861 N   0  0  0  0  0  0  0  0  0  0  0  0
   14.0363   27.8238   -4.3813 C   0  0  0  0  0  0  0  0  0  0  0  0
   13.5954   28.7269   -3.5969 O   0  0  0  0  0  0  0  0  0  0  0  0
   13.6210   30.7766   -5.2779 O   0  0  0  0  0  0  0  0  0  0  0  0
   14.7974   30.4548   -5.9165 C   0  0  0  0  0  0  0  0  0  0  0  0
   15.0948   31.0797   -6.9545 O   0  0  0  0  0  0  0  0  0  0  0  0
   13.0752   31.5885   -5.4328 H   0  0  0  0  0  0  0  0  0  0  0  0
   14.8513   22.9292   -2.2306 N   0  0  0  0  0  0  0  0  0  0  0  0
   14.7432   23.0652   -0.8403 C   0  0  0  0  0  0  0  0  0  0  0  0
   15.4875   23.8683   -0.1809 O   0  0  0  0  0  0  0  0  0  0  0  0
   14.2688   22.2939   -2.7657 H   0  0  0  0  0  0  0  0  0  0  0  0
   13.7794   22.2993   -0.0741 C   0  0  0  0  0  0  0  0  0  0  0  0
   12.5853   22.8635    0.3430 C   0  0  0  0  0  0  0  0  0  0  0  0
   11.6554   22.1593    1.0665 C   0  0  0  0  0  0  0  0  0  0  0  0
   11.9344   20.8453    1.3810 C   0  0  0  0  0  0  0  0  0  0  0  0
   11.0445   20.1173    2.0923 F   0  0  0  0  0  0  0  0  0  0  0  0
   13.1038   20.2396    0.9909 C   0  0  0  0  0  0  0  0  0  0  0  0
   14.0175   21.0044    0.2548 C   0  0  0  0  0  0  0  0  0  0  0  0
   16.6533   24.5056   -1.9040 C   0  0  0  0  0  0  0  0  0  0  0  0
   17.2447   25.7355   -2.4442 C   0  0  0  0  0  0  0  0  0  0  0  0
   16.4668   26.6617   -3.1070 C   0  0  0  0  0  0  0  0  0  0  0  0
   17.0647   27.7950   -3.5925 C   0  0  0  0  0  0  0  0  0  0  0  0
   18.4070   28.0110   -3.4272 C   0  0  0  0  0  0  0  0  0  0  0  0
   19.2008   27.0881   -2.7630 C   0  0  0  0  0  0  0  0  0  0  0  0
   18.6156   25.9428   -2.2682 C   0  0  0  0  0  0  0  0  0  0  0  0
 16 17  1  0  0  0
 17 18  2  0  0  0
 17  9  1  0  0  0
  9 10  1  0  0  0
 10 11  1  0  0  0
 11 12  1  0  0  0
 12 13  1  0  0  0
 13 14  1  0  0  0
 14 15  2  0  0  0
 14  2  1  0  0  0
  2  3  1  0  0  0
  3  4  1  0  0  0
  4  5  1  0  0  0
  5  6  1  0  0  0
  6  7  1  0  0  0
  7  8  2  0  0  0
  7  1  1  0  0  0
  1 31  1  0  0  0
 31 32  1  0  0  0
 32 33  2  0  0  0
 33 34  1  0  0  0
 34 35  2  0  0  0
 35 36  1  0  0  0
 36 37  2  0  0  0
  1 20  1  0  0  0
 20 21  1  0  0  0
 21 22  2  0  0  0
 21 24  1  0  0  0
 24 25  2  0  0  0
 25 26  1  0  0  0
 26 27  2  0  0  0
 27 28  1  0  0  0
 27 29  1  0  0  0
 29 30  2  0  0  0
 13  9  1  0  0  0
  6  2  1  0  0  0
 37 32  1  0  0  0
 30 24  1  0  0  0
 16 19  1  0  0  0
 20 23  1  0  0  0
M  END
> <minimizedAffinity>
16.92097

> <CNNscore>
0.5496233106

> <CNNaffinity>
7.4027290344

> <CNN_VS>
4.0687122345

> <CNNaffinity_variance>
0.6905143857

$$$$
[H]OC(=O)[C@@]1([H])N(C(=O)[C@@]2([H])N(C(=O)[C@]([H])(N([H])C(=O)c3c([H])c([H])c(F)c([H])c3[H])C([H])([H])c3c([H])c([H])c([H])c([H])c3[H])C([H])([H])C([H])([H])C2([H])[H])C([H])([H])C([H])([H])C1([H])[H]


 37 40  0  0  0  0  0  0  0  0999 V2000
   14.0244   21.6470   -0.8952 C   0  0  0  0  0  0  0  0  0  0  0  0
   11.8352   23.8697    1.4699 C   0  0  0  0  0  0  0  0  0  0  0  0
   11.6450   25.2905    0.9978 C   0  0  0  0  0  0  0  0  0  0  0  0
   11.9649   25.2950   -0.5079 C   0  0  0  0  0  0  0  0  0  0  0  0
   11.7418   23.8070   -0.8074 C   0  0  0  0  0  0  0  0  0  0  0  0
   12.4093   23.2411    0.3141 N   0  0  0  0  0  0  0  0  0  0  0  0
   13.4089   22.2440    0.3165 C   0  0  0  0  0  0  0  0  0  0  0  0
   13.8524   21.7847    1.4410 O   0  0  0  0  0  0  0  0  0  0  0  0
    8.2548   23.2603    2.8945 C   0  0  0  0  0  0  0  0  0  0  0  0
    7.4897   24.3646    3.6437 C   0  0  0  0  0  0  0  0  0  0  0  0
    7.9812   25.5822    2.8841 C   0  0  0  0  0  0  0  0  0  0  0  0
    9.4854   25.2718    2.8462 C   0  0  0  0  0  0  0  0  0  0  0  0
    9.4983   23.8745    2.4980 N   0  0  0  0  0  0  0  0  0  0  0  0
   10.5669   23.2062    1.8723 C   0  0  0  0  0  0  0  0  0  0  0  0
   10.4789   21.9596    1.6205 O   0  0  0  0  0  0  0  0  0  0  0  0
    7.6623   23.2205    0.4676 O   0  0  0  0  0  0  0  0  0  0  0  0
    7.4585   22.7785    1.7554 C   0  0  0  0  0  0  0  0  0  0  0  0
    6.5605   21.9356    1.9541 O   0  0  0  0  0  0  0  0  0  0  0  0
    7.3128   22.7982   -0.3573 H   0  0  0  0  0  0  0  0  0  0  0  0
   13.8218   22.5958   -2.0066 N   0  0  0  0  0  0  0  0  0  0  0  0
   14.8003   23.5678   -2.2535 C   0  0  0  0  0  0  0  0  0  0  0  0
   15.8598   23.6543   -1.5437 O   0  0  0  0  0  0  0  0  0  0  0  0
   12.9753   22.5177   -2.5604 H   0  0  0  0  0  0  0  0  0  0  0  0
   14.6617   24.5300   -3.3294 C   0  0  0  0  0  0  0  0  0  0  0  0
   13.7624   25.5796   -3.2400 C   0  0  0  0  0  0  0  0  0  0  0  0
   13.6145   26.5051   -4.2429 C   0  0  0  0  0  0  0  0  0  0  0  0
   14.3956   26.3716   -5.3722 C   0  0  0  0  0  0  0  0  0  0  0  0
   14.2800   27.2624   -6.3827 F   0  0  0  0  0  0  0  0  0  0  0  0
   15.3019   25.3488   -5.5095 C   0  0  0  0  0  0  0  0  0  0  0  0
   15.4121   24.4326   -4.4558 C   0  0  0  0  0  0  0  0  0  0  0  0
   13.3289   20.3457   -1.2764 C   0  0  0  0  0  0  0  0  0  0  0  0
   11.8668   20.4506   -1.2017 C   0  0  0  0  0  0  0  0  0  0  0  0
   11.1684   21.2385   -2.0925 C   0  0  0  0  0  0  0  0  0  0  0  0
    9.8041   21.3034   -1.9829 C   0  0  0  0  0  0  0  0  0  0  0  0
    9.1400   20.6033   -1.0110 C   0  0  0  0  0  0  0  0  0  0  0  0
    9.8298   19.8075   -0.1088 C   0  0  0  0  0  0  0  0  0  0  0  0
   11.2023   19.7307   -0.2049 C   0  0  0  0  0  0  0  0  0  0  0  0
 16 17  1  0  0  0
 17 18  2  0  0  0
 17  9  1  0  0  0
  9 10  1  0  0  0
 10 11  1  0  0  0
 11 12  1  0  0  0
 12 13  1  0  0  0
 13 14  1  0  0  0
 14 15  2  0  0  0
 14  2  1  0  0  0
  2  3  1  0  0  0
  3  4  1  0  0  0
  4  5  1  0  0  0
  5  6  1  0  0  0
  6  7  1  0  0  0
  7  8  2  0  0  0
  7  1  1  0  0  0
  1 31  1  0  0  0
 31 32  1  0  0  0
 32 33  2  0  0  0
 33 34  1  0  0  0
 34 35  2  0  0  0
 35 36  1  0  0  0
 36 37  2  0  0  0
  1 20  1  0  0  0
 20 21  1  0  0  0
 21 22  2  0  0  0
 21 24  1  0  0  0
 24 25  2  0  0  0
 25 26  1  0  0  0
 26 27  2  0  0  0
 27 28  1  0  0  0
 27 29  1  0  0  0
 29 30  2  0  0  0
 13  9  1  0  0  0
  6  2  1  0  0  0
 37 32  1  0  0  0
 30 24  1  0  0  0
 16 19  1  0  0  0
 20 23  1  0  0  0
M  END
> <minimizedAffinity>
-7.82803

> <CNNscore>
0.5381523371

> <CNNaffinity>
7.3903245926

> <CNN_VS>
3.9771203995

> <CNNaffinity_variance>
0.1239674538

$$$$
[H]OC(=O)[C@@]1([H])N(C(=O)[C@@]2([H])N(C(=O)[C@]([H])(N([H])C(=O)c3c([H])c([H])c(F)c([H])c3[H])C([H])([H])c3c([H])c([H])c([H])c([H])c3[H])C([H])([H])C([H])([H])C2([H])[H])C([H])([H])C([H])([H])C1([H])[H]


 37 40  0  0  0  0  0  0  0  0999 V2000
   12.5702   26.7919   -3.4806 C   0  0  0  0  0  0  0  0  0  0  0  0
   13.1325   24.9058   -0.0963 C   0  0  0  0  0  0  0  0  0  0  0  0
   11.9001   24.7827    0.7661 C   0  0  0  0  0  0  0  0  0  0  0  0
   10.6943   25.0093   -0.1635 C   0  0  0  0  0  0  0  0  0  0  0  0
   11.3556   24.6689   -1.5054 C   0  0  0  0  0  0  0  0  0  0  0  0
   12.5856   25.3645   -1.3418 N   0  0  0  0  0  0  0  0  0  0  0  0
   13.1810   26.2933   -2.2230 C   0  0  0  0  0  0  0  0  0  0  0  0
   14.3509   26.7730   -1.9526 O   0  0  0  0  0  0  0  0  0  0  0  0
   14.1893   21.1641    0.2258 C   0  0  0  0  0  0  0  0  0  0  0  0
   13.5000   20.2179    1.2235 C   0  0  0  0  0  0  0  0  0  0  0  0
   12.0891   20.7732    1.1759 C   0  0  0  0  0  0  0  0  0  0  0  0
   12.3993   22.2736    1.2878 C   0  0  0  0  0  0  0  0  0  0  0  0
   13.5034   22.4243    0.3756 N   0  0  0  0  0  0  0  0  0  0  0  0
   13.8644   23.6229   -0.2671 C   0  0  0  0  0  0  0  0  0  0  0  0
   14.8721   23.6488   -1.0477 O   0  0  0  0  0  0  0  0  0  0  0  0
   13.1662   19.6676   -1.4935 O   0  0  0  0  0  0  0  0  0  0  0  0
   14.0990   20.6147   -1.1358 C   0  0  0  0  0  0  0  0  0  0  0  0
   14.8952   21.0169   -2.0080 O   0  0  0  0  0  0  0  0  0  0  0  0
   12.9187   19.4111   -2.4177 H   0  0  0  0  0  0  0  0  0  0  0  0
   13.3427   26.2243   -4.6021 N   0  0  0  0  0  0  0  0  0  0  0  0
   14.4565   26.9268   -5.0806 C   0  0  0  0  0  0  0  0  0  0  0  0
   14.8196   28.0425   -4.5735 O   0  0  0  0  0  0  0  0  0  0  0  0
   13.0422   25.3394   -4.9969 H   0  0  0  0  0  0  0  0  0  0  0  0
   15.2576   26.4243   -6.1799 C   0  0  0  0  0  0  0  0  0  0  0  0
   15.2929   25.0728   -6.4809 C   0  0  0  0  0  0  0  0  0  0  0  0
   16.0405   24.5724   -7.5177 C   0  0  0  0  0  0  0  0  0  0  0  0
   16.7764   25.4588   -8.2767 C   0  0  0  0  0  0  0  0  0  0  0  0
   17.5259   25.0059   -9.3068 F   0  0  0  0  0  0  0  0  0  0  0  0
   16.7750   26.8079   -8.0192 C   0  0  0  0  0  0  0  0  0  0  0  0
   15.9947   27.2644   -6.9494 C   0  0  0  0  0  0  0  0  0  0  0  0
   12.6784   28.3090   -3.5764 C   0  0  0  0  0  0  0  0  0  0  0  0
   11.4552   28.9244   -4.1048 C   0  0  0  0  0  0  0  0  0  0  0  0
   10.6071   28.2157   -4.9298 C   0  0  0  0  0  0  0  0  0  0  0  0
    9.4768   28.8334   -5.3971 C   0  0  0  0  0  0  0  0  0  0  0  0
    9.1880   30.1282   -5.0565 C   0  0  0  0  0  0  0  0  0  0  0  0
   10.0320   30.8523   -4.2281 C   0  0  0  0  0  0  0  0  0  0  0  0
   11.1731   30.2463   -3.7490 C   0  0  0  0  0  0  0  0  0  0  0  0
 16 17  1  0  0  0
 17 18  2  0  0  0
 17  9  1  0  0  0
  9 10  1  0  0  0
 10 11  1  0  0  0
 11 12  1  0  0  0
 12 13  1  0  0  0
 13 14  1  0  0  0
 14 15  2  0  0  0
 14  2  1  0  0  0
  2  3  1  0  0  0
  3  4  1  0  0  0
  4  5  1  0  0  0
  5  6  1  0  0  0
  6  7  1  0  0  0
  7  8  2  0  0  0
  7  1  1  0  0  0
  1 31  1  0  0  0
 31 32  1  0  0  0
 32 33  2  0  0  0
 33 34  1  0  0  0
 34 35  2  0  0  0
 35 36  1  0  0  0
 36 37  2  0  0  0
  1 20  1  0  0  0
 20 21  1  0  0  0
 21 22  2  0  0  0
 21 24  1  0  0  0
 24 25  2  0  0  0
 25 26  1  0  0  0
 26 27  2  0  0  0
 27 28  1  0  0  0
 27 29  1  0  0  0
 29 30  2  0  0  0
 13  9  1  0  0  0
  6  2  1  0  0  0
 37 32  1  0  0  0
 30 24  1  0  0  0
 16 19  1  0  0  0
 20 23  1  0  0  0
M  END
> <minimizedAffinity>
12.43108

> <CNNscore>
0.5312425494

> <CNNaffinity>
7.2171735764

> <CNN_VS>
3.8340697289

> <CNNaffinity_variance>
1.3087766171

$$$$
[H]OC(=O)[C@@]1([H])N(C(=O)[C@@]2([H])N(C(=O)[C@]([H])(N([H])C(=O)c3c([H])c([H])c(F)c([H])c3[H])C([H])([H])c3c([H])c([H])c([H])c([H])c3[H])C([H])([H])C([H])([H])C2([H])[H])C([H])([H])C([H])([H])C1([H])[H]


 37 40  0  0  0  0  0  0  0  0999 V2000
   12.3958   26.1945   -2.5027 C   0  0  0  0  0  0  0  0  0  0  0  0
   11.4913   24.3375    0.8231 C   0  0  0  0  0  0  0  0  0  0  0  0
   10.0542   23.8867    0.9195 C   0  0  0  0  0  0  0  0  0  0  0  0
    9.5075   23.8658   -0.5193 C   0  0  0  0  0  0  0  0  0  0  0  0
   10.8344   23.7545   -1.2812 C   0  0  0  0  0  0  0  0  0  0  0  0
   11.5988   24.7123   -0.5585 N   0  0  0  0  0  0  0  0  0  0  0  0
   12.3432   25.7956   -1.0739 C   0  0  0  0  0  0  0  0  0  0  0  0
   13.0504   26.5247   -0.2736 O   0  0  0  0  0  0  0  0  0  0  0  0
   13.0280   20.9083    1.8715 C   0  0  0  0  0  0  0  0  0  0  0  0
   12.1409   19.7329    2.3159 C   0  0  0  0  0  0  0  0  0  0  0  0
   10.9358   19.9654    1.4244 C   0  0  0  0  0  0  0  0  0  0  0  0
   10.7517   21.4768    1.6297 C   0  0  0  0  0  0  0  0  0  0  0  0
   12.1038   21.9631    1.5335 N   0  0  0  0  0  0  0  0  0  0  0  0
   12.4689   23.2731    1.1721 C   0  0  0  0  0  0  0  0  0  0  0  0
   13.6997   23.6033    1.1314 O   0  0  0  0  0  0  0  0  0  0  0  0
   13.3736   20.2492   -0.5136 O   0  0  0  0  0  0  0  0  0  0  0  0
   13.8781   20.5003    0.7425 C   0  0  0  0  0  0  0  0  0  0  0  0
   15.1064   20.3742    0.9205 O   0  0  0  0  0  0  0  0  0  0  0  0
   13.8989   20.1738   -1.3499 H   0  0  0  0  0  0  0  0  0  0  0  0
   12.9565   25.0581   -3.2581 N   0  0  0  0  0  0  0  0  0  0  0  0
   14.1410   24.4626   -2.8046 C   0  0  0  0  0  0  0  0  0  0  0  0
   14.7467   24.8765   -1.7579 O   0  0  0  0  0  0  0  0  0  0  0  0
   12.4672   24.7413   -4.0884 H   0  0  0  0  0  0  0  0  0  0  0  0
   14.7442   23.3430   -3.5013 C   0  0  0  0  0  0  0  0  0  0  0  0
   15.4635   23.5303   -4.6700 C   0  0  0  0  0  0  0  0  0  0  0  0
   16.0466   22.4880   -5.3465 C   0  0  0  0  0  0  0  0  0  0  0  0
   15.9022   21.2161   -4.8319 C   0  0  0  0  0  0  0  0  0  0  0  0
   16.4613   20.1624   -5.4685 F   0  0  0  0  0  0  0  0  0  0  0  0
   15.1990   20.9776   -3.6766 C   0  0  0  0  0  0  0  0  0  0  0  0
   14.6246   22.0774   -3.0268 C   0  0  0  0  0  0  0  0  0  0  0  0
   13.3317   27.3802   -2.7047 C   0  0  0  0  0  0  0  0  0  0  0  0
   14.1617   27.2387   -3.9069 C   0  0  0  0  0  0  0  0  0  0  0  0
   13.5995   26.8878   -5.1165 C   0  0  0  0  0  0  0  0  0  0  0  0
   14.4157   26.7691   -6.2107 C   0  0  0  0  0  0  0  0  0  0  0  0
   15.7634   26.9925   -6.1135 C   0  0  0  0  0  0  0  0  0  0  0  0
   16.3417   27.3458   -4.9036 C   0  0  0  0  0  0  0  0  0  0  0  0
   15.5354   27.4698   -3.7930 C   0  0  0  0  0  0  0  0  0  0  0  0
 16 17  1  0  0  0
 17 18  2  0  0  0
 17  9  1  0  0  0
  9 10  1  0  0  0
 10 11  1  0  0  0
 11 12  1  0  0  0
 12 13  1  0  0  0
 13 14  1  0  0  0
 14 15  2  0  0  0
 14  2  1  0  0  0
  2  3  1  0  0  0
  3  4  1  0  0  0
  4  5  1  0  0  0
  5  6  1  0  0  0
  6  7  1  0  0  0
  7  8  2  0  0  0
  7  1  1  0  0  0
  1 31  1  0  0  0
 31 32  1  0  0  0
 32 33  2  0  0  0
 33 34  1  0  0  0
 34 35  2  0  0  0
 35 36  1  0  0  0
 36 37  2  0  0  0
  1 20  1  0  0  0
 20 21  1  0  0  0
 21 22  2  0  0  0
 21 24  1  0  0  0
 24 25  2  0  0  0
 25 26  1  0  0  0
 26 27  2  0  0  0
 27 28  1  0  0  0
 27 29  1  0  0  0
 29 30  2  0  0  0
 13  9  1  0  0  0
  6  2  1  0  0  0
 37 32  1  0  0  0
 30 24  1  0  0  0
 16 19  1  0  0  0
 20 23  1  0  0  0
M  END
> <minimizedAffinity>
3.94679

> <CNNscore>
0.5163298249

> <CNNaffinity>
7.2440323830

> <CNN_VS>
3.7403099537

> <CNNaffinity_variance>
0.5875701904

$$$$
[H]OC(=O)[C@@]1([H])N(C(=O)[C@@]2([H])N(C(=O)[C@]([H])(N([H])C(=O)c3c([H])c([H])c(F)c([H])c3[H])C([H])([H])c3c([H])c([H])c([H])c([H])c3[H])C([H])([H])C([H])([H])C2([H])[H])C([H])([H])C([H])([H])C1([H])[H]


 37 40  0  0  0  0  0  0  0  0999 V2000
   15.4569   24.5906   -3.3445 C   0  0  0  0  0  0  0  0  0  0  0  0
   12.0236   26.3576   -3.9901 C   0  0  0  0  0  0  0  0  0  0  0  0
   10.8832   25.8406   -3.1474 C   0  0  0  0  0  0  0  0  0  0  0  0
   11.5218   25.1125   -1.9510 C   0  0  0  0  0  0  0  0  0  0  0  0
   12.8991   25.7880   -1.9633 C   0  0  0  0  0  0  0  0  0  0  0  0
   13.1632   25.7529   -3.3606 N   0  0  0  0  0  0  0  0  0  0  0  0
   14.3138   25.2602   -4.0141 C   0  0  0  0  0  0  0  0  0  0  0  0
   14.4228   25.3813   -5.2968 O   0  0  0  0  0  0  0  0  0  0  0  0
   11.2186   30.1363   -4.5325 C   0  0  0  0  0  0  0  0  0  0  0  0
    9.9813   30.5880   -5.3268 C   0  0  0  0  0  0  0  0  0  0  0  0
    9.0101   29.4878   -4.9426 C   0  0  0  0  0  0  0  0  0  0  0  0
    9.9181   28.2638   -5.1369 C   0  0  0  0  0  0  0  0  0  0  0  0
   11.1458   28.6956   -4.5204 N   0  0  0  0  0  0  0  0  0  0  0  0
   12.1309   27.8406   -3.9927 C   0  0  0  0  0  0  0  0  0  0  0  0
   13.1907   28.3295   -3.4797 O   0  0  0  0  0  0  0  0  0  0  0  0
   12.3277   31.2213   -2.5741 O   0  0  0  0  0  0  0  0  0  0  0  0
   11.1974   30.7277   -3.1858 C   0  0  0  0  0  0  0  0  0  0  0  0
   10.1169   30.7889   -2.5653 O   0  0  0  0  0  0  0  0  0  0  0  0
   12.3516   31.8059   -1.7749 H   0  0  0  0  0  0  0  0  0  0  0  0
   14.9044   23.5211   -2.4917 N   0  0  0  0  0  0  0  0  0  0  0  0
   14.9226   23.6874   -1.1006 C   0  0  0  0  0  0  0  0  0  0  0  0
   15.4038   24.7372   -0.5527 O   0  0  0  0  0  0  0  0  0  0  0  0
   14.5279   22.6921   -2.9393 H   0  0  0  0  0  0  0  0  0  0  0  0
   14.3960   22.6743   -0.2068 C   0  0  0  0  0  0  0  0  0  0  0  0
   13.1415   22.8062    0.3653 C   0  0  0  0  0  0  0  0  0  0  0  0
   12.6191   21.8603    1.2118 C   0  0  0  0  0  0  0  0  0  0  0  0
   13.3821   20.7457    1.4926 C   0  0  0  0  0  0  0  0  0  0  0  0
   12.9037   19.7910    2.3218 F   0  0  0  0  0  0  0  0  0  0  0  0
   14.6317   20.5679    0.9510 C   0  0  0  0  0  0  0  0  0  0  0  0
   15.1160   21.5640    0.0937 C   0  0  0  0  0  0  0  0  0  0  0  0
   16.2001   25.5599   -2.4331 C   0  0  0  0  0  0  0  0  0  0  0  0
   16.7477   26.7078   -3.1657 C   0  0  0  0  0  0  0  0  0  0  0  0
   16.0396   27.2924   -4.1948 C   0  0  0  0  0  0  0  0  0  0  0  0
   16.5924   28.3625   -4.8481 C   0  0  0  0  0  0  0  0  0  0  0  0
   17.8229   28.8476   -4.4926 C   0  0  0  0  0  0  0  0  0  0  0  0
   18.5456   28.2693   -3.4600 C   0  0  0  0  0  0  0  0  0  0  0  0
   18.0043   27.1923   -2.7921 C   0  0  0  0  0  0  0  0  0  0  0  0
 16 17  1  0  0  0
 17 18  2  0  0  0
 17  9  1  0  0  0
  9 10  1  0  0  0
 10 11  1  0  0  0
 11 12  1  0  0  0
 12 13  1  0  0  0
 13 14  1  0  0  0
 14 15  2  0  0  0
 14  2  1  0  0  0
  2  3  1  0  0  0
  3  4  1  0  0  0
  4  5  1  0  0  0
  5  6  1  0  0  0
  6  7  1  0  0  0
  7  8  2  0  0  0
  7  1  1  0  0  0
  1 31  1  0  0  0
 31 32  1  0  0  0
 32 33  2  0  0  0
 33 34  1  0  0  0
 34 35  2  0  0  0
 35 36  1  0  0  0
 36 37  2  0  0  0
  1 20  1  0  0  0
 20 21  1  0  0  0
 21 22  2  0  0  0
 21 24  1  0  0  0
 24 25  2  0  0  0
 25 26  1  0  0  0
 26 27  2  0  0  0
 27 28  1  0  0  0
 27 29  1  0  0  0
 29 30  2  0  0  0
 13  9  1  0  0  0
  6  2  1  0  0  0
 37 32  1  0  0  0
 30 24  1  0  0  0
 16 19  1  0  0  0
 20 23  1  0  0  0
M  END
> <minimizedAffinity>
17.77217

> <CNNscore>
0.5118306279

> <CNNaffinity>
6.8746209145

> <CNN_VS>
3.5186414719

> <CNNaffinity_variance>
0.5467976928

$$$$
[H]c1nc([H])c(-c2nc(-c3noc(=O)n3[H])c([H])c3nc(N4C([H])([H])C([H])([H])OC([H])([H])[C@@]4([H])C([H])([H])[H])n(C([H])([H])[C@]4([H])C([H])([H])C([H])([H])[C@@]([H])(C([H])([H])[H])C([H])([H])C4([H])[H])c23)c([H])c1Cl


 38 43  0  0  0  0  0  0  0  0999 V2000
   11.9119   23.6620    0.3567 N   0  0  0  0  0  0  0  0  0  0  0  0
   11.8179   22.8529    1.4564 C   0  0  0  0  0  0  0  0  0  0  0  0
   13.0203   22.6241    1.9836 N   0  0  0  0  0  0  0  0  0  0  0  0
   13.9327   23.2721    1.2455 C   0  0  0  0  0  0  0  0  0  0  0  0
   15.3188   23.3268    1.3443 C   0  0  0  0  0  0  0  0  0  0  0  0
   16.0290   24.0293    0.4155 C   0  0  0  0  0  0  0  0  0  0  0  0
   15.3634   24.6337   -0.5504 N   0  0  0  0  0  0  0  0  0  0  0  0
   13.9942   24.5931   -0.6649 C   0  0  0  0  0  0  0  0  0  0  0  0
   13.2241   23.9159    0.2288 C   0  0  0  0  0  0  0  0  0  0  0  0
   13.4915   25.2097   -1.8578 C   0  0  0  0  0  0  0  0  0  0  0  0
   12.2721   25.7449   -1.9741 C   0  0  0  0  0  0  0  0  0  0  0  0
   11.8278   26.3568   -3.1201 N   0  0  0  0  0  0  0  0  0  0  0  0
   12.6509   26.4326   -4.1982 C   0  0  0  0  0  0  0  0  0  0  0  0
   13.9158   25.8962   -4.1263 C   0  0  0  0  0  0  0  0  0  0  0  0
   14.9679   25.9996   -5.5180 Cl  0  0  0  0  0  0  0  0  0  0  0  0
   14.3293   25.2838   -2.9465 C   0  0  0  0  0  0  0  0  0  0  0  0
   17.5028   24.1196    0.4878 C   0  0  0  0  0  0  0  0  0  0  0  0
   18.2954   24.0835   -0.5913 N   0  0  0  0  0  0  0  0  0  0  0  0
   19.5487   24.1897   -0.1912 O   0  0  0  0  0  0  0  0  0  0  0  0
   19.5407   24.2894    1.1117 C   0  0  0  0  0  0  0  0  0  0  0  0
   20.5703   24.4050    1.8150 O   0  0  0  0  0  0  0  0  0  0  0  0
   18.2815   24.2491    1.5691 N   0  0  0  0  0  0  0  0  0  0  0  0
   17.9934   24.3083    2.5667 H   0  0  0  0  0  0  0  0  0  0  0  0
   10.6461   22.2761    2.0568 N   0  0  0  0  0  0  0  0  0  0  0  0
    9.3739   22.9570    2.0585 C   0  0  0  0  0  0  0  0  0  0  0  0
    8.7670   22.8214    3.4329 C   0  0  0  0  0  0  0  0  0  0  0  0
    8.5706   21.4590    3.6525 O   0  0  0  0  0  0  0  0  0  0  0  0
    9.7630   20.7877    3.7805 C   0  0  0  0  0  0  0  0  0  0  0  0
   10.7097   20.9550    2.6444 C   0  0  0  0  0  0  0  0  0  0  0  0
   10.4421   19.8965    1.5678 C   0  0  0  0  0  0  0  0  0  0  0  0
   10.8184   24.0372   -0.4611 C   0  0  0  0  0  0  0  0  0  0  0  0
    7.4284   20.3269   -2.4481 C   0  0  0  0  0  0  0  0  0  0  0  0
    8.7419   20.3734   -1.7004 C   0  0  0  0  0  0  0  0  0  0  0  0
    9.8748   20.9488   -2.5213 C   0  0  0  0  0  0  0  0  0  0  0  0
   10.7801   21.6750   -1.4989 C   0  0  0  0  0  0  0  0  0  0  0  0
   10.1278   22.9535   -1.2259 C   0  0  0  0  0  0  0  0  0  0  0  0
    8.7751   22.6186   -0.5438 C   0  0  0  0  0  0  0  0  0  0  0  0
    8.5572   21.1455   -0.4320 C   0  0  0  0  0  0  0  0  0  0  0  0
 32 33  1  0  0  0
 33 34  1  0  0  0
 34 35  1  0  0  0
 35 36  1  0  0  0
 36 31  1  0  0  0
 31  1  1  0  0  0
  1  2  1  0  0  0
  2  3  2  0  0  0
  3  4  1  0  0  0
  4  5  2  0  0  0
  5  6  1  0  0  0
  6  7  2  0  0  0
  7  8  1  0  0  0
  8 10  1  0  0  0
 10 11  2  0  0  0
 11 12  1  0  0  0
 12 13  2  0  0  0
 13 14  1  0  0  0
 14 15  1  0  0  0
 14 16  2  0  0  0
  8  9  2  0  0  0
  6 17  1  0  0  0
 17 18  2  0  0  0
 18 19  1  0  0  0
 19 20  1  0  0  0
 20 21  2  0  0  0
 20 22  1  0  0  0
  2 24  1  0  0  0
 24 25  1  0  0  0
 25 26  1  0  0  0
 26 27  1  0  0  0
 27 28  1  0  0  0
 28 29  1  0  0  0
 29 30  1  0  0  0
 36 37  1  0  0  0
 37 38  1  0  0  0
 38 33  1  0  0  0
  9  1  1  0  0  0
 22 17  1  0  0  0
 29 24  1  0  0  0
  9  4  1  0  0  0
 16 10  1  0  0  0
 22 23  1  0  0  0
M  END
> <minimizedAffinity>
7.64340

> <CNNscore>
0.5640461445

> <CNNaffinity>
8.2095203400

> <CNN_VS>
4.6305484772

> <CNNaffinity_variance>
0.8948262930

$$$$
[H]c1nc([H])c(-c2nc(-c3noc(=O)n3[H])c([H])c3nc(N4C([H])([H])C([H])([H])OC([H])([H])[C@@]4([H])C([H])([H])[H])n(C([H])([H])[C@]4([H])C([H])([H])C([H])([H])[C@@]([H])(C([H])([H])[H])C([H])([H])C4([H])[H])c23)c([H])c1Cl


 38 43  0  0  0  0  0  0  0  0999 V2000
   11.8859   23.4812    1.0258 N   0  0  0  0  0  0  0  0  0  0  0  0
   10.6152   23.9742    0.9021 C   0  0  0  0  0  0  0  0  0  0  0  0
   10.4777   24.6567   -0.2341 N   0  0  0  0  0  0  0  0  0  0  0  0
   11.6503   24.6325   -0.8832 C   0  0  0  0  0  0  0  0  0  0  0  0
   12.0465   25.2196   -2.0802 C   0  0  0  0  0  0  0  0  0  0  0  0
   13.3375   25.0822   -2.4982 C   0  0  0  0  0  0  0  0  0  0  0  0
   14.1671   24.3910   -1.7398 N   0  0  0  0  0  0  0  0  0  0  0  0
   13.7952   23.8020   -0.5548 C   0  0  0  0  0  0  0  0  0  0  0  0
   12.5234   23.8946   -0.0812 C   0  0  0  0  0  0  0  0  0  0  0  0
   14.8834   23.2109    0.1680 C   0  0  0  0  0  0  0  0  0  0  0  0
   14.9192   21.9360    0.5683 C   0  0  0  0  0  0  0  0  0  0  0  0
   15.9887   21.3882    1.2326 N   0  0  0  0  0  0  0  0  0  0  0  0
   17.0717   22.1615    1.5057 C   0  0  0  0  0  0  0  0  0  0  0  0
   17.0816   23.4800    1.1132 C   0  0  0  0  0  0  0  0  0  0  0  0
   18.4799   24.4666    1.4679 Cl  0  0  0  0  0  0  0  0  0  0  0  0
   15.9777   23.9985    0.4418 C   0  0  0  0  0  0  0  0  0  0  0  0
   13.7982   25.6834   -3.7678 C   0  0  0  0  0  0  0  0  0  0  0  0
   13.2117   26.7465   -4.3332 N   0  0  0  0  0  0  0  0  0  0  0  0
   13.8588   27.0359   -5.4466 O   0  0  0  0  0  0  0  0  0  0  0  0
   14.8299   26.1712   -5.5757 C   0  0  0  0  0  0  0  0  0  0  0  0
   15.6410   26.1611   -6.5297 O   0  0  0  0  0  0  0  0  0  0  0  0
   14.8220   25.3125   -4.5466 N   0  0  0  0  0  0  0  0  0  0  0  0
   15.4872   24.5257   -4.4045 H   0  0  0  0  0  0  0  0  0  0  0  0
    9.5006   23.8358    1.7992 N   0  0  0  0  0  0  0  0  0  0  0  0
    9.1487   24.8664    2.7460 C   0  0  0  0  0  0  0  0  0  0  0  0
    8.8473   24.2089    4.0699 C   0  0  0  0  0  0  0  0  0  0  0  0
    7.7542   23.3694    3.8617 O   0  0  0  0  0  0  0  0  0  0  0  0
    8.0790   22.3013    3.0603 C   0  0  0  0  0  0  0  0  0  0  0  0
    8.6655   22.6554    1.7391 C   0  0  0  0  0  0  0  0  0  0  0  0
    7.5555   22.8592    0.7010 C   0  0  0  0  0  0  0  0  0  0  0  0
   12.3649   22.7663    2.1504 C   0  0  0  0  0  0  0  0  0  0  0  0
    9.2723   19.4617    5.1037 C   0  0  0  0  0  0  0  0  0  0  0  0
   10.6498   19.4644    4.4799 C   0  0  0  0  0  0  0  0  0  0  0  0
   10.6190   19.4561    2.9674 C   0  0  0  0  0  0  0  0  0  0  0  0
   11.8659   20.2645    2.5382 C   0  0  0  0  0  0  0  0  0  0  0  0
   11.5005   21.6711    2.6884 C   0  0  0  0  0  0  0  0  0  0  0  0
   11.2550   21.9009    4.2030 C   0  0  0  0  0  0  0  0  0  0  0  0
   11.4174   20.6428    4.9909 C   0  0  0  0  0  0  0  0  0  0  0  0
 32 33  1  0  0  0
 33 34  1  0  0  0
 34 35  1  0  0  0
 35 36  1  0  0  0
 36 31  1  0  0  0
 31  1  1  0  0  0
  1  2  1  0  0  0
  2  3  2  0  0  0
  3  4  1  0  0  0
  4  5  2  0  0  0
  5  6  1  0  0  0
  6  7  2  0  0  0
  7  8  1  0  0  0
  8 10  1  0  0  0
 10 11  2  0  0  0
 11 12  1  0  0  0
 12 13  2  0  0  0
 13 14  1  0  0  0
 14 15  1  0  0  0
 14 16  2  0  0  0
  8  9  2  0  0  0
  6 17  1  0  0  0
 17 18  2  0  0  0
 18 19  1  0  0  0
 19 20  1  0  0  0
 20 21  2  0  0  0
 20 22  1  0  0  0
  2 24  1  0  0  0
 24 25  1  0  0  0
 25 26  1  0  0  0
 26 27  1  0  0  0
 27 28  1  0  0  0
 28 29  1  0  0  0
 29 30  1  0  0  0
 36 37  1  0  0  0
 37 38  1  0  0  0
 38 33  1  0  0  0
  9  1  1  0  0  0
 22 17  1  0  0  0
 29 24  1  0  0  0
  9  4  1  0  0  0
 16 10  1  0  0  0
 22 23  1  0  0  0
M  END
> <minimizedAffinity>
-4.37907

> <CNNscore>
0.5477629900

> <CNNaffinity>
8.4099817276

> <CNN_VS>
4.6066765785

> <CNNaffinity_variance>
0.5323791504

$$$$
[H]c1nc([H])c(-c2nc(-c3noc(=O)n3[H])c([H])c3nc(N4C([H])([H])C([H])([H])OC([H])([H])[C@@]4([H])C([H])([H])[H])n(C([H])([H])[C@]4([H])C([H])([H])C([H])([H])[C@@]([H])(C([H])([H])[H])C([H])([H])C4([H])[H])c23)c([H])c1Cl


 38 43  0  0  0  0  0  0  0  0999 V2000
   14.7347   24.8035   -2.4556 N   0  0  0  0  0  0  0  0  0  0  0  0
   14.0465   25.1608   -3.5833 C   0  0  0  0  0  0  0  0  0  0  0  0
   12.7340   25.1828   -3.3535 N   0  0  0  0  0  0  0  0  0  0  0  0
   12.5258   24.8393   -2.0745 C   0  0  0  0  0  0  0  0  0  0  0  0
   11.3497   24.6733   -1.3510 C   0  0  0  0  0  0  0  0  0  0  0  0
   11.4149   24.2583   -0.0533 C   0  0  0  0  0  0  0  0  0  0  0  0
   12.6052   24.0274    0.4673 N   0  0  0  0  0  0  0  0  0  0  0  0
   13.7790   24.1867   -0.2301 C   0  0  0  0  0  0  0  0  0  0  0  0
   13.7877   24.6025   -1.5252 C   0  0  0  0  0  0  0  0  0  0  0  0
   14.9445   23.7581    0.4867 C   0  0  0  0  0  0  0  0  0  0  0  0
   15.2281   22.4835    0.7728 C   0  0  0  0  0  0  0  0  0  0  0  0
   16.3681   22.0991    1.4345 N   0  0  0  0  0  0  0  0  0  0  0  0
   17.2631   23.0432    1.8256 C   0  0  0  0  0  0  0  0  0  0  0  0
   17.0151   24.3688    1.5534 C   0  0  0  0  0  0  0  0  0  0  0  0
   18.1730   25.5760    2.0595 Cl  0  0  0  0  0  0  0  0  0  0  0  0
   15.8477   24.7184    0.8805 C   0  0  0  0  0  0  0  0  0  0  0  0
   10.1897   24.0768    0.7538 C   0  0  0  0  0  0  0  0  0  0  0  0
    8.9639   23.9936    0.2208 N   0  0  0  0  0  0  0  0  0  0  0  0
    8.0940   23.8310    1.2001 O   0  0  0  0  0  0  0  0  0  0  0  0
    8.7619   23.8135    2.3232 C   0  0  0  0  0  0  0  0  0  0  0  0
    8.2373   23.6751    3.4518 O   0  0  0  0  0  0  0  0  0  0  0  0
   10.0717   23.9645    2.0826 N   0  0  0  0  0  0  0  0  0  0  0  0
   10.8244   23.9865    2.8001 H   0  0  0  0  0  0  0  0  0  0  0  0
   14.5559   25.4947   -4.8853 N   0  0  0  0  0  0  0  0  0  0  0  0
   14.7610   26.8621   -5.2985 C   0  0  0  0  0  0  0  0  0  0  0  0
   14.2364   27.0146   -6.7047 C   0  0  0  0  0  0  0  0  0  0  0  0
   14.9910   26.1628   -7.5094 O   0  0  0  0  0  0  0  0  0  0  0  0
   14.7341   24.8415   -7.2322 C   0  0  0  0  0  0  0  0  0  0  0  0
   14.9225   24.4439   -5.8104 C   0  0  0  0  0  0  0  0  0  0  0  0
   16.3756   24.0210   -5.5637 C   0  0  0  0  0  0  0  0  0  0  0  0
   16.1385   24.6289   -2.3919 C   0  0  0  0  0  0  0  0  0  0  0  0
   18.1835   29.6298   -2.5184 C   0  0  0  0  0  0  0  0  0  0  0  0
   17.8972   28.5005   -3.4824 C   0  0  0  0  0  0  0  0  0  0  0  0
   18.7643   27.2832   -3.2485 C   0  0  0  0  0  0  0  0  0  0  0  0
   17.8741   26.0786   -3.6347 C   0  0  0  0  0  0  0  0  0  0  0  0
   16.9893   25.8545   -2.4939 C   0  0  0  0  0  0  0  0  0  0  0  0
   16.0955   27.1173   -2.3776 C   0  0  0  0  0  0  0  0  0  0  0  0
   16.4460   28.1443   -3.4035 C   0  0  0  0  0  0  0  0  0  0  0  0
 32 33  1  0  0  0
 33 34  1  0  0  0
 34 35  1  0  0  0
 35 36  1  0  0  0
 36 31  1  0  0  0
 31  1  1  0  0  0
  1  2  1  0  0  0
  2  3  2  0  0  0
  3  4  1  0  0  0
  4  5  2  0  0  0
  5  6  1  0  0  0
  6  7  2  0  0  0
  7  8  1  0  0  0
  8 10  1  0  0  0
 10 11  2  0  0  0
 11 12  1  0  0  0
 12 13  2  0  0  0
 13 14  1  0  0  0
 14 15  1  0  0  0
 14 16  2  0  0  0
  8  9  2  0  0  0
  6 17  1  0  0  0
 17 18  2  0  0  0
 18 19  1  0  0  0
 19 20  1  0  0  0
 20 21  2  0  0  0
 20 22  1  0  0  0
  2 24  1  0  0  0
 24 25  1  0  0  0
 25 26  1  0  0  0
 26 27  1  0  0  0
 27 28  1  0  0  0
 28 29  1  0  0  0
 29 30  1  0  0  0
 36 37  1  0  0  0
 37 38  1  0  0  0
 38 33  1  0  0  0
  9  1  1  0  0  0
 22 17  1  0  0  0
 29 24  1  0  0  0
  9  4  1  0  0  0
 16 10  1  0  0  0
 22 23  1  0  0  0
M  END
> <minimizedAffinity>
18.09759

> <CNNscore>
0.5366250873

> <CNNaffinity>
8.2325878143

> <CNN_VS>
4.4178133011

> <CNNaffinity_variance>
0.9672403336

$$$$
[H]c1nc([H])c(-c2nc(-c3noc(=O)n3[H])c([H])c3nc(N4C([H])([H])C([H])([H])OC([H])([H])[C@@]4([H])C([H])([H])[H])n(C([H])([H])[C@]4([H])C([H])([H])C([H])([H])[C@@]([H])(C([H])([H])[H])C([H])([H])C4([H])[H])c23)c([H])c1Cl


 38 43  0  0  0  0  0  0  0  0999 V2000
   12.3230   22.8323   -0.2614 N   0  0  0  0  0  0  0  0  0  0  0  0
   12.2546   21.7525    0.5767 C   0  0  0  0  0  0  0  0  0  0  0  0
   13.4234   21.5448    1.1822 N   0  0  0  0  0  0  0  0  0  0  0  0
   14.2880   22.4772    0.7577 C   0  0  0  0  0  0  0  0  0  0  0  0
   15.6331   22.6784    1.0481 C   0  0  0  0  0  0  0  0  0  0  0  0
   16.3081   23.6885    0.4280 C   0  0  0  0  0  0  0  0  0  0  0  0
   15.6493   24.4407   -0.4330 N   0  0  0  0  0  0  0  0  0  0  0  0
   14.3201   24.2593   -0.7327 C   0  0  0  0  0  0  0  0  0  0  0  0
   13.5854   23.2752   -0.1477 C   0  0  0  0  0  0  0  0  0  0  0  0
   13.8406   25.1047   -1.7869 C   0  0  0  0  0  0  0  0  0  0  0  0
   12.7827   25.9151   -1.6821 C   0  0  0  0  0  0  0  0  0  0  0  0
   12.3641   26.7373   -2.6988 N   0  0  0  0  0  0  0  0  0  0  0  0
   13.0435   26.7426   -3.8752 C   0  0  0  0  0  0  0  0  0  0  0  0
   14.1395   25.9257   -4.0306 C   0  0  0  0  0  0  0  0  0  0  0  0
   15.0078   25.9404   -5.5473 Cl  0  0  0  0  0  0  0  0  0  0  0  0
   14.5324   25.1062   -2.9761 C   0  0  0  0  0  0  0  0  0  0  0  0
   17.7363   23.9418    0.7136 C   0  0  0  0  0  0  0  0  0  0  0  0
   18.6901   23.9138   -0.2263 N   0  0  0  0  0  0  0  0  0  0  0  0
   19.8480   24.1828    0.3474 O   0  0  0  0  0  0  0  0  0  0  0  0
   19.6235   24.3745    1.6203 C   0  0  0  0  0  0  0  0  0  0  0  0
   20.5125   24.6504    2.4579 O   0  0  0  0  0  0  0  0  0  0  0  0
   18.3173   24.2318    1.8843 N   0  0  0  0  0  0  0  0  0  0  0  0
   17.8699   24.3312    2.8180 H   0  0  0  0  0  0  0  0  0  0  0  0
   11.1367   20.8922    0.8531 N   0  0  0  0  0  0  0  0  0  0  0  0
   10.6991   19.8833   -0.0812 C   0  0  0  0  0  0  0  0  0  0  0  0
    9.1937   19.9362   -0.1633 C   0  0  0  0  0  0  0  0  0  0  0  0
    8.7114   19.6379    1.1100 O   0  0  0  0  0  0  0  0  0  0  0  0
    9.0008   20.6355    2.0098 C   0  0  0  0  0  0  0  0  0  0  0  0
   10.4415   20.9929    2.1183 C   0  0  0  0  0  0  0  0  0  0  0  0
   11.1331   20.1063    3.1608 C   0  0  0  0  0  0  0  0  0  0  0  0
   11.2655   23.2718   -1.0943 C   0  0  0  0  0  0  0  0  0  0  0  0
    7.7684   25.8911    2.0862 C   0  0  0  0  0  0  0  0  0  0  0  0
    8.1296   24.4650    1.7364 C   0  0  0  0  0  0  0  0  0  0  0  0
    7.7977   24.0999    0.3064 C   0  0  0  0  0  0  0  0  0  0  0  0
    8.8877   23.0844   -0.1097 C   0  0  0  0  0  0  0  0  0  0  0  0
   10.0721   23.8785   -0.4282 C   0  0  0  0  0  0  0  0  0  0  0  0
   10.5085   24.5641    0.8934 C   0  0  0  0  0  0  0  0  0  0  0  0
    9.5820   24.2433    2.0198 C   0  0  0  0  0  0  0  0  0  0  0  0
 32 33  1  0  0  0
 33 34  1  0  0  0
 34 35  1  0  0  0
 35 36  1  0  0  0
 36 31  1  0  0  0
 31  1  1  0  0  0
  1  2  1  0  0  0
  2  3  2  0  0  0
  3  4  1  0  0  0
  4  5  2  0  0  0
  5  6  1  0  0  0
  6  7  2  0  0  0
  7  8  1  0  0  0
  8 10  1  0  0  0
 10 11  2  0  0  0
 11 12  1  0  0  0
 12 13  2  0  0  0
 13 14  1  0  0  0
 14 15  1  0  0  0
 14 16  2  0  0  0
  8  9  2  0  0  0
  6 17  1  0  0  0
 17 18  2  0  0  0
 18 19  1  0  0  0
 19 20  1  0  0  0
 20 21  2  0  0  0
 20 22  1  0  0  0
  2 24  1  0  0  0
 24 25  1  0  0  0
 25 26  1  0  0  0
 26 27  1  0  0  0
 27 28  1  0  0  0
 28 29  1  0  0  0
 29 30  1  0  0  0
 36 37  1  0  0  0
 37 38  1  0  0  0
 38 33  1  0  0  0
  9  1  1  0  0  0
 22 17  1  0  0  0
 29 24  1  0  0  0
  9  4  1  0  0  0
 16 10  1  0  0  0
 22 23  1  0  0  0
M  END
> <minimizedAffinity>
6.17280

> <CNNscore>
0.5351470113

> <CNNaffinity>
8.2360496521

> <CNN_VS>
4.4074974060

> <CNNaffinity_variance>
0.4316186905

$$$$
[H]c1nc([H])c(-c2nc(-c3noc(=O)n3[H])c([H])c3nc(N4C([H])([H])C([H])([H])OC([H])([H])[C@@]4([H])C([H])([H])[H])n(C([H])([H])[C@]4([H])C([H])([H])C([H])([H])[C@@]([H])(C([H])([H])[H])C([H])([H])C4([H])[H])c23)c([H])c1Cl


 38 43  0  0  0  0  0  0  0  0999 V2000
   10.3787   23.7851    1.9237 N   0  0  0  0  0  0  0  0  0  0  0  0
    9.9373   25.0574    2.1671 C   0  0  0  0  0  0  0  0  0  0  0  0
   10.4726   25.9205    1.3043 N   0  0  0  0  0  0  0  0  0  0  0  0
   11.2787   25.2412    0.4762 C   0  0  0  0  0  0  0  0  0  0  0  0
   12.0945   25.6716   -0.5647 C   0  0  0  0  0  0  0  0  0  0  0  0
   12.8697   24.7651   -1.2265 C   0  0  0  0  0  0  0  0  0  0  0  0
   12.8139   23.5029   -0.8459 N   0  0  0  0  0  0  0  0  0  0  0  0
   12.0135   23.0572    0.1789 C   0  0  0  0  0  0  0  0  0  0  0  0
   11.2116   23.9053    0.8775 C   0  0  0  0  0  0  0  0  0  0  0  0
   12.2046   21.6745    0.5073 C   0  0  0  0  0  0  0  0  0  0  0  0
   13.1917   21.2123    1.2810 C   0  0  0  0  0  0  0  0  0  0  0  0
   13.3326   19.8853    1.6042 N   0  0  0  0  0  0  0  0  0  0  0  0
   12.4369   18.9832    1.1253 C   0  0  0  0  0  0  0  0  0  0  0  0
   11.4032   19.4113    0.3249 C   0  0  0  0  0  0  0  0  0  0  0  0
   10.2551   18.2434   -0.2855 Cl  0  0  0  0  0  0  0  0  0  0  0  0
   11.2945   20.7652    0.0197 C   0  0  0  0  0  0  0  0  0  0  0  0
   13.7451   25.1788   -2.3436 C   0  0  0  0  0  0  0  0  0  0  0  0
   14.7760   24.4439   -2.7808 N   0  0  0  0  0  0  0  0  0  0  0  0
   15.3485   25.0842   -3.7830 O   0  0  0  0  0  0  0  0  0  0  0  0
   14.6897   26.1974   -3.9688 C   0  0  0  0  0  0  0  0  0  0  0  0
   14.9724   27.0441   -4.8469 O   0  0  0  0  0  0  0  0  0  0  0  0
   13.6832   26.2894   -3.0885 N   0  0  0  0  0  0  0  0  0  0  0  0
   13.0050   27.0749   -3.0185 H   0  0  0  0  0  0  0  0  0  0  0  0
    9.0223   25.5195    3.1749 N   0  0  0  0  0  0  0  0  0  0  0  0
    9.4164   25.6683    4.5550 C   0  0  0  0  0  0  0  0  0  0  0  0
    8.3211   25.1004    5.4231 C   0  0  0  0  0  0  0  0  0  0  0  0
    7.1788   25.8600    5.1765 O   0  0  0  0  0  0  0  0  0  0  0  0
    6.6958   25.6542    3.9064 C   0  0  0  0  0  0  0  0  0  0  0  0
    7.6730   25.8946    2.8100 C   0  0  0  0  0  0  0  0  0  0  0  0
    7.6428   27.3670    2.3830 C   0  0  0  0  0  0  0  0  0  0  0  0
   10.0419   22.6539    2.7061 C   0  0  0  0  0  0  0  0  0  0  0  0
    6.3807   19.7134    0.0312 C   0  0  0  0  0  0  0  0  0  0  0  0
    6.4852   21.0795    0.6709 C   0  0  0  0  0  0  0  0  0  0  0  0
    6.6161   21.0238    2.1770 C   0  0  0  0  0  0  0  0  0  0  0  0
    7.5003   22.2380    2.5462 C   0  0  0  0  0  0  0  0  0  0  0  0
    8.8745   21.8324    2.2606 C   0  0  0  0  0  0  0  0  0  0  0  0
    8.9550   21.6053    0.7279 C   0  0  0  0  0  0  0  0  0  0  0  0
    7.6351   21.8192    0.0629 C   0  0  0  0  0  0  0  0  0  0  0  0
 32 33  1  0  0  0
 33 34  1  0  0  0
 34 35  1  0  0  0
 35 36  1  0  0  0
 36 31  1  0  0  0
 31  1  1  0  0  0
  1  2  1  0  0  0
  2  3  2  0  0  0
  3  4  1  0  0  0
  4  5  2  0  0  0
  5  6  1  0  0  0
  6  7  2  0  0  0
  7  8  1  0  0  0
  8 10  1  0  0  0
 10 11  2  0  0  0
 11 12  1  0  0  0
 12 13  2  0  0  0
 13 14  1  0  0  0
 14 15  1  0  0  0
 14 16  2  0  0  0
  8  9  2  0  0  0
  6 17  1  0  0  0
 17 18  2  0  0  0
 18 19  1  0  0  0
 19 20  1  0  0  0
 20 21  2  0  0  0
 20 22  1  0  0  0
  2 24  1  0  0  0
 24 25  1  0  0  0
 25 26  1  0  0  0
 26 27  1  0  0  0
 27 28  1  0  0  0
 28 29  1  0  0  0
 29 30  1  0  0  0
 36 37  1  0  0  0
 37 38  1  0  0  0
 38 33  1  0  0  0
  9  1  1  0  0  0
 22 17  1  0  0  0
 29 24  1  0  0  0
  9  4  1  0  0  0
 16 10  1  0  0  0
 22 23  1  0  0  0
M  END
> <minimizedAffinity>
2.34432

> <CNNscore>
0.4963248372

> <CNNaffinity>
7.6943116188

> <CNN_VS>
3.8188779354

> <CNNaffinity_variance>
0.6836207509

$$$$
[H]c1nc([H])c(-c2nc(-c3noc(=O)n3[H])c([H])c3nc(N4C([H])([H])C([H])([H])OC([H])([H])[C@@]4([H])C([H])([H])[H])n(C([H])([H])[C@]4([H])C([H])([H])C([H])([H])[C@@]([H])(C([H])([H])[H])C([H])([H])C4([H])[H])c23)c([H])c1Cl


 38 43  0  0  0  0  0  0  0  0999 V2000
   11.9621   23.8706    0.7327 N   0  0  0  0  0  0  0  0  0  0  0  0
   10.7901   24.5737    0.6614 C   0  0  0  0  0  0  0  0  0  0  0  0
   10.8078   25.4265   -0.3624 N   0  0  0  0  0  0  0  0  0  0  0  0
   11.9882   25.3088   -0.9868 C   0  0  0  0  0  0  0  0  0  0  0  0
   12.5202   25.9916   -2.0753 C   0  0  0  0  0  0  0  0  0  0  0  0
   13.7902   25.7109   -2.4862 C   0  0  0  0  0  0  0  0  0  0  0  0
   14.4698   24.7932   -1.8248 N   0  0  0  0  0  0  0  0  0  0  0  0
   13.9618   24.1063   -0.7479 C   0  0  0  0  0  0  0  0  0  0  0  0
   12.7016   24.3322   -0.2885 C   0  0  0  0  0  0  0  0  0  0  0  0
   14.9138   23.2502   -0.1023 C   0  0  0  0  0  0  0  0  0  0  0  0
   15.9239   23.6834    0.6585 C   0  0  0  0  0  0  0  0  0  0  0  0
   16.8029   22.8387    1.2901 N   0  0  0  0  0  0  0  0  0  0  0  0
   16.6565   21.4956    1.1482 C   0  0  0  0  0  0  0  0  0  0  0  0
   15.6313   21.0018    0.3750 C   0  0  0  0  0  0  0  0  0  0  0  0
   15.4503   19.2724    0.1993 Cl  0  0  0  0  0  0  0  0  0  0  0  0
   14.7608   21.8908   -0.2494 C   0  0  0  0  0  0  0  0  0  0  0  0
   14.3911   26.4077   -3.6432 C   0  0  0  0  0  0  0  0  0  0  0  0
   13.7076   26.7122   -4.7540 N   0  0  0  0  0  0  0  0  0  0  0  0
   14.5229   27.3295   -5.5885 O   0  0  0  0  0  0  0  0  0  0  0  0
   15.6929   27.4090   -5.0120 C   0  0  0  0  0  0  0  0  0  0  0  0
   16.7000   27.9396   -5.5339 O   0  0  0  0  0  0  0  0  0  0  0  0
   15.6473   26.8439   -3.7975 N   0  0  0  0  0  0  0  0  0  0  0  0
   16.4409   26.7716   -3.1290 H   0  0  0  0  0  0  0  0  0  0  0  0
    9.6314   24.4875    1.5078 N   0  0  0  0  0  0  0  0  0  0  0  0
    9.3165   25.5073    2.4789 C   0  0  0  0  0  0  0  0  0  0  0  0
    8.9118   24.8277    3.7636 C   0  0  0  0  0  0  0  0  0  0  0  0
    7.7699   24.0805    3.4801 O   0  0  0  0  0  0  0  0  0  0  0  0
    8.0488   23.0201    2.6516 C   0  0  0  0  0  0  0  0  0  0  0  0
    8.7152   23.3759    1.3693 C   0  0  0  0  0  0  0  0  0  0  0  0
    7.6680   23.6991    0.2967 C   0  0  0  0  0  0  0  0  0  0  0  0
   12.2769   22.9331    1.7463 C   0  0  0  0  0  0  0  0  0  0  0  0
   10.6249   18.1731   -0.2082 C   0  0  0  0  0  0  0  0  0  0  0  0
   10.1380   19.2290    0.7586 C   0  0  0  0  0  0  0  0  0  0  0  0
   10.9898   19.3345    2.0043 C   0  0  0  0  0  0  0  0  0  0  0  0
   10.9346   20.8286    2.4004 C   0  0  0  0  0  0  0  0  0  0  0  0
   11.8764   21.5109    1.5160 C   0  0  0  0  0  0  0  0  0  0  0  0
   11.3173   21.3561    0.0771 C   0  0  0  0  0  0  0  0  0  0  0  0
   10.0635   20.5452    0.0508 C   0  0  0  0  0  0  0  0  0  0  0  0
 32 33  1  0  0  0
 33 34  1  0  0  0
 34 35  1  0  0  0
 35 36  1  0  0  0
 36 31  1  0  0  0
 31  1  1  0  0  0
  1  2  1  0  0  0
  2  3  2  0  0  0
  3  4  1  0  0  0
  4  5  2  0  0  0
  5  6  1  0  0  0
  6  7  2  0  0  0
  7  8  1  0  0  0
  8 10  1  0  0  0
 10 11  2  0  0  0
 11 12  1  0  0  0
 12 13  2  0  0  0
 13 14  1  0  0  0
 14 15  1  0  0  0
 14 16  2  0  0  0
  8  9  2  0  0  0
  6 17  1  0  0  0
 17 18  2  0  0  0
 18 19  1  0  0  0
 19 20  1  0  0  0
 20 21  2  0  0  0
 20 22  1  0  0  0
  2 24  1  0  0  0
 24 25  1  0  0  0
 25 26  1  0  0  0
 26 27  1  0  0  0
 27 28  1  0  0  0
 28 29  1  0  0  0
 29 30  1  0  0  0
 36 37  1  0  0  0
 37 38  1  0  0  0
 38 33  1  0  0  0
  9  1  1  0  0  0
 22 17  1  0  0  0
 29 24  1  0  0  0
  9  4  1  0  0  0
 16 10  1  0  0  0
 22 23  1  0  0  0
M  END
> <minimizedAffinity>
1.79040

> <CNNscore>
0.4565787613

> <CNNaffinity>
8.1993017197

> <CNN_VS>
3.7436270714

> <CNNaffinity_variance>
0.4457263947

$$$$
[H]c1nc([H])c(-c2nc(-c3noc(=O)n3[H])c([H])c3nc(N4C([H])([H])C([H])([H])OC([H])([H])[C@@]4([H])C([H])([H])[H])n(C([H])([H])[C@]4([H])C([H])([H])C([H])([H])[C@@]([H])(C([H])([H])[H])C([H])([H])C4([H])[H])c23)c([H])c1Cl


 38 43  0  0  0  0  0  0  0  0999 V2000
   13.6603   24.3984   -1.1381 N   0  0  0  0  0  0  0  0  0  0  0  0
   13.3704   25.5519   -1.8151 C   0  0  0  0  0  0  0  0  0  0  0  0
   12.3026   26.1548   -1.2936 N   0  0  0  0  0  0  0  0  0  0  0  0
   11.8627   25.4150   -0.2658 C   0  0  0  0  0  0  0  0  0  0  0  0
   10.7693   25.5785    0.5780 C   0  0  0  0  0  0  0  0  0  0  0  0
   10.5094   24.6344    1.5276 C   0  0  0  0  0  0  0  0  0  0  0  0
   11.3149   23.5922    1.6060 N   0  0  0  0  0  0  0  0  0  0  0  0
   12.4011   23.4128    0.7828 C   0  0  0  0  0  0  0  0  0  0  0  0
   12.7215   24.3169   -0.1816 C   0  0  0  0  0  0  0  0  0  0  0  0
   13.0611   22.1518    0.9567 C   0  0  0  0  0  0  0  0  0  0  0  0
   14.2520   21.8449    0.4329 C   0  0  0  0  0  0  0  0  0  0  0  0
   14.8749   20.6392    0.6414 N   0  0  0  0  0  0  0  0  0  0  0  0
   14.2691   19.7000    1.4136 C   0  0  0  0  0  0  0  0  0  0  0  0
   13.0424   19.9699    1.9748 C   0  0  0  0  0  0  0  0  0  0  0  0
   12.2714   18.7557    2.9677 Cl  0  0  0  0  0  0  0  0  0  0  0  0
   12.4431   21.2042    1.7397 C   0  0  0  0  0  0  0  0  0  0  0  0
    9.3625   24.7731    2.4499 C   0  0  0  0  0  0  0  0  0  0  0  0
    8.1130   24.4137    2.1284 N   0  0  0  0  0  0  0  0  0  0  0  0
    7.3298   24.6598    3.1620 O   0  0  0  0  0  0  0  0  0  0  0  0
    8.0739   25.1636    4.1106 C   0  0  0  0  0  0  0  0  0  0  0  0
    7.6425   25.5112    5.2337 O   0  0  0  0  0  0  0  0  0  0  0  0
    9.3473   25.2489    3.7012 N   0  0  0  0  0  0  0  0  0  0  0  0
   10.1441   25.6143    4.2609 H   0  0  0  0  0  0  0  0  0  0  0  0
   14.0511   26.1361   -2.9384 N   0  0  0  0  0  0  0  0  0  0  0  0
   13.4038   27.0784   -3.8189 C   0  0  0  0  0  0  0  0  0  0  0  0
   13.7465   26.7089   -5.2409 C   0  0  0  0  0  0  0  0  0  0  0  0
   15.1300   26.8254   -5.3637 O   0  0  0  0  0  0  0  0  0  0  0  0
   15.7879   25.8643   -4.6342 C   0  0  0  0  0  0  0  0  0  0  0  0
   15.4408   25.8182   -3.1877 C   0  0  0  0  0  0  0  0  0  0  0  0
   16.3404   26.7728   -2.3935 C   0  0  0  0  0  0  0  0  0  0  0  0
   14.6977   23.5001   -1.4875 C   0  0  0  0  0  0  0  0  0  0  0  0
   13.8497   20.2725   -5.7384 C   0  0  0  0  0  0  0  0  0  0  0  0
   15.0126   20.7653   -4.9070 C   0  0  0  0  0  0  0  0  0  0  0  0
   15.2701   22.2479   -5.0621 C   0  0  0  0  0  0  0  0  0  0  0  0
   15.7981   22.7080   -3.6830 C   0  0  0  0  0  0  0  0  0  0  0  0
   14.6195   22.8483   -2.8311 C   0  0  0  0  0  0  0  0  0  0  0  0
   14.0135   21.4277   -2.6838 C   0  0  0  0  0  0  0  0  0  0  0  0
   14.7741   20.4130   -3.4724 C   0  0  0  0  0  0  0  0  0  0  0  0
 32 33  1  0  0  0
 33 34  1  0  0  0
 34 35  1  0  0  0
 35 36  1  0  0  0
 36 31  1  0  0  0
 31  1  1  0  0  0
  1  2  1  0  0  0
  2  3  2  0  0  0
  3  4  1  0  0  0
  4  5  2  0  0  0
  5  6  1  0  0  0
  6  7  2  0  0  0
  7  8  1  0  0  0
  8 10  1  0  0  0
 10 11  2  0  0  0
 11 12  1  0  0  0
 12 13  2  0  0  0
 13 14  1  0  0  0
 14 15  1  0  0  0
 14 16  2  0  0  0
  8  9  2  0  0  0
  6 17  1  0  0  0
 17 18  2  0  0  0
 18 19  1  0  0  0
 19 20  1  0  0  0
 20 21  2  0  0  0
 20 22  1  0  0  0
  2 24  1  0  0  0
 24 25  1  0  0  0
 25 26  1  0  0  0
 26 27  1  0  0  0
 27 28  1  0  0  0
 28 29  1  0  0  0
 29 30  1  0  0  0
 36 37  1  0  0  0
 37 38  1  0  0  0
 38 33  1  0  0  0
  9  1  1  0  0  0
 22 17  1  0  0  0
 29 24  1  0  0  0
  9  4  1  0  0  0
 16 10  1  0  0  0
 22 23  1  0  0  0
M  END
> <minimizedAffinity>
5.97124

> <CNNscore>
0.4491830766

> <CNNaffinity>
8.1403226852

> <CNN_VS>
3.6564950943

> <CNNaffinity_variance>
0.5226072669

$$$$
[H]c1nc([H])c(-c2nc(-c3noc(=O)n3[H])c([H])c3nc(N4C([H])([H])C([H])([H])OC([H])([H])[C@@]4([H])C([H])([H])[H])n(C([H])([H])[C@]4([H])C([H])([H])C([H])([H])[C@@]([H])(C([H])([H])[H])C([H])([H])C4([H])[H])c23)c([H])c1Cl


 38 43  0  0  0  0  0  0  0  0999 V2000
   11.0410   23.1377    1.2897 N   0  0  0  0  0  0  0  0  0  0  0  0
   11.1045   22.3433    2.4023 C   0  0  0  0  0  0  0  0  0  0  0  0
   12.3698   22.1116    2.7505 N   0  0  0  0  0  0  0  0  0  0  0  0
   13.1679   22.7428    1.8779 C   0  0  0  0  0  0  0  0  0  0  0  0
   14.5539   22.7876    1.7715 C   0  0  0  0  0  0  0  0  0  0  0  0
   15.1244   23.4726    0.7391 C   0  0  0  0  0  0  0  0  0  0  0  0
   14.3280   24.0700   -0.1269 N   0  0  0  0  0  0  0  0  0  0  0  0
   12.9566   24.0390   -0.0388 C   0  0  0  0  0  0  0  0  0  0  0  0
   12.3218   23.3794    0.9673 C   0  0  0  0  0  0  0  0  0  0  0  0
   12.2880   24.6446   -1.1534 C   0  0  0  0  0  0  0  0  0  0  0  0
   10.9959   24.4661   -1.4459 C   0  0  0  0  0  0  0  0  0  0  0  0
   10.3741   25.0835   -2.5028 N   0  0  0  0  0  0  0  0  0  0  0  0
   11.0877   25.9193   -3.3013 C   0  0  0  0  0  0  0  0  0  0  0  0
   12.4211   26.1349   -3.0399 C   0  0  0  0  0  0  0  0  0  0  0  0
   13.3307   27.2127   -4.0720 Cl  0  0  0  0  0  0  0  0  0  0  0  0
   13.0155   25.4901   -1.9587 C   0  0  0  0  0  0  0  0  0  0  0  0
   16.5934   23.5519    0.5933 C   0  0  0  0  0  0  0  0  0  0  0  0
   17.4494   23.0079    1.4680 N   0  0  0  0  0  0  0  0  0  0  0  0
   18.6788   23.2499    1.0530 O   0  0  0  0  0  0  0  0  0  0  0  0
   18.5939   23.9320   -0.0583 C   0  0  0  0  0  0  0  0  0  0  0  0
   19.5817   24.3274   -0.7185 O   0  0  0  0  0  0  0  0  0  0  0  0
   17.3080   24.1387   -0.3748 N   0  0  0  0  0  0  0  0  0  0  0  0
   16.9611   24.6538   -1.2091 H   0  0  0  0  0  0  0  0  0  0  0  0
   10.0300   21.7836    3.1759 N   0  0  0  0  0  0  0  0  0  0  0  0
    9.5777   22.3881    4.4057 C   0  0  0  0  0  0  0  0  0  0  0  0
    9.3789   21.2938    5.4250 C   0  0  0  0  0  0  0  0  0  0  0  0
    8.3874   20.4526    4.9228 O   0  0  0  0  0  0  0  0  0  0  0  0
    8.8197   19.7610    3.8167 C   0  0  0  0  0  0  0  0  0  0  0  0
    9.3371   20.6038    2.7044 C   0  0  0  0  0  0  0  0  0  0  0  0
    8.1923   21.0147    1.7707 C   0  0  0  0  0  0  0  0  0  0  0  0
    9.8417   23.5114    0.6361 C   0  0  0  0  0  0  0  0  0  0  0  0
    7.7901   27.6288    3.4723 C   0  0  0  0  0  0  0  0  0  0  0  0
    7.8101   26.1178    3.5257 C   0  0  0  0  0  0  0  0  0  0  0  0
    7.0542   25.4711    2.3861 C   0  0  0  0  0  0  0  0  0  0  0  0
    7.8151   24.1557    2.0977 C   0  0  0  0  0  0  0  0  0  0  0  0
    8.9833   24.5358    1.3068 C   0  0  0  0  0  0  0  0  0  0  0  0
    9.8613   25.4285    2.2230 C   0  0  0  0  0  0  0  0  0  0  0  0
    9.2300   25.6469    3.5586 C   0  0  0  0  0  0  0  0  0  0  0  0
 32 33  1  0  0  0
 33 34  1  0  0  0
 34 35  1  0  0  0
 35 36  1  0  0  0
 36 31  1  0  0  0
 31  1  1  0  0  0
  1  2  1  0  0  0
  2  3  2  0  0  0
  3  4  1  0  0  0
  4  5  2  0  0  0
  5  6  1  0  0  0
  6  7  2  0  0  0
  7  8  1  0  0  0
  8 10  1  0  0  0
 10 11  2  0  0  0
 11 12  1  0  0  0
 12 13  2  0  0  0
 13 14  1  0  0  0
 14 15  1  0  0  0
 14 16  2  0  0  0
  8  9  2  0  0  0
  6 17  1  0  0  0
 17 18  2  0  0  0
 18 19  1  0  0  0
 19 20  1  0  0  0
 20 21  2  0  0  0
 20 22  1  0  0  0
  2 24  1  0  0  0
 24 25  1  0  0  0
 25 26  1  0  0  0
 26 27  1  0  0  0
 27 28  1  0  0  0
 28 29  1  0  0  0
 29 30  1  0  0  0
 36 37  1  0  0  0
 37 38  1  0  0  0
 38 33  1  0  0  0
  9  1  1  0  0  0
 22 17  1  0  0  0
 29 24  1  0  0  0
  9  4  1  0  0  0
 16 10  1  0  0  0
 22 23  1  0  0  0
M  END
> <minimizedAffinity>
14.21221

> <CNNscore>
0.4454825521

> <CNNaffinity>
7.7494111061

> <CNN_VS>
3.4522273540

> <CNNaffinity_variance>
1.7689361572

$$$$
[H]c1nc([H])c(-c2nc(-c3noc(=O)n3[H])c([H])c3nc(N4C([H])([H])C([H])([H])OC([H])([H])[C@@]4([H])C([H])([H])[H])n(C([H])([H])[C@]4([H])C([H])([H])C([H])([H])[C@@]([H])(C([H])([H])[H])C([H])([H])C4([H])[H])c23)c([H])c1Cl


 38 43  0  0  0  0  0  0  0  0999 V2000
   13.7473   24.6463   -1.9519 N   0  0  0  0  0  0  0  0  0  0  0  0
   13.0161   25.3410   -2.8769 C   0  0  0  0  0  0  0  0  0  0  0  0
   11.7105   25.2267   -2.6355 N   0  0  0  0  0  0  0  0  0  0  0  0
   11.5499   24.4548   -1.5514 C   0  0  0  0  0  0  0  0  0  0  0  0
   10.4008   23.9998   -0.9136 C   0  0  0  0  0  0  0  0  0  0  0  0
   10.5163   23.1658    0.1596 C   0  0  0  0  0  0  0  0  0  0  0  0
   11.7280   22.8202    0.5517 N   0  0  0  0  0  0  0  0  0  0  0  0
   12.8757   23.2599   -0.0639 C   0  0  0  0  0  0  0  0  0  0  0  0
   12.8341   24.0968   -1.1353 C   0  0  0  0  0  0  0  0  0  0  0  0
   14.0749   22.6602    0.4444 C   0  0  0  0  0  0  0  0  0  0  0  0
   14.2011   21.3640    0.7460 C   0  0  0  0  0  0  0  0  0  0  0  0
   15.3718   20.8107    1.2024 N   0  0  0  0  0  0  0  0  0  0  0  0
   16.4655   21.6005    1.3619 C   0  0  0  0  0  0  0  0  0  0  0  0
   16.3846   22.9413    1.0641 C   0  0  0  0  0  0  0  0  0  0  0  0
   17.7973   23.9492    1.2714 Cl  0  0  0  0  0  0  0  0  0  0  0  0
   15.1795   23.4647    0.6039 C   0  0  0  0  0  0  0  0  0  0  0  0
    9.3211   22.6653    0.8711 C   0  0  0  0  0  0  0  0  0  0  0  0
    8.4152   23.4695    1.4424 N   0  0  0  0  0  0  0  0  0  0  0  0
    7.4763   22.7185    1.9872 O   0  0  0  0  0  0  0  0  0  0  0  0
    7.7887   21.4698    1.7620 C   0  0  0  0  0  0  0  0  0  0  0  0
    7.1056   20.4932    2.1462 O   0  0  0  0  0  0  0  0  0  0  0  0
    8.9335   21.3992    1.0686 N   0  0  0  0  0  0  0  0  0  0  0  0
    9.4051   20.5255    0.7584 H   0  0  0  0  0  0  0  0  0  0  0  0
   13.4773   26.1248   -3.9902 N   0  0  0  0  0  0  0  0  0  0  0  0
   14.0163   25.5164   -5.1824 C   0  0  0  0  0  0  0  0  0  0  0  0
   15.2552   26.2783   -5.5832 C   0  0  0  0  0  0  0  0  0  0  0  0
   14.8513   27.5827   -5.8631 O   0  0  0  0  0  0  0  0  0  0  0  0
   14.4434   28.2430   -4.7290 C   0  0  0  0  0  0  0  0  0  0  0  0
   13.3669   27.5674   -3.9547 C   0  0  0  0  0  0  0  0  0  0  0  0
   11.9889   27.9938   -4.4748 C   0  0  0  0  0  0  0  0  0  0  0  0
   15.1576   24.5201   -1.9720 C   0  0  0  0  0  0  0  0  0  0  0  0
   18.8054   27.8655   -4.1418 C   0  0  0  0  0  0  0  0  0  0  0  0
   18.2311   27.5487   -2.7793 C   0  0  0  0  0  0  0  0  0  0  0  0
   16.7728   27.9278   -2.6446 C   0  0  0  0  0  0  0  0  0  0  0  0
   16.1736   26.8745   -1.6834 C   0  0  0  0  0  0  0  0  0  0  0  0
   15.9445   25.6801   -2.4931 C   0  0  0  0  0  0  0  0  0  0  0  0
   17.3414   25.1917   -2.9590 C   0  0  0  0  0  0  0  0  0  0  0  0
   18.4332   26.0950   -2.4878 C   0  0  0  0  0  0  0  0  0  0  0  0
 32 33  1  0  0  0
 33 34  1  0  0  0
 34 35  1  0  0  0
 35 36  1  0  0  0
 36 31  1  0  0  0
 31  1  1  0  0  0
  1  2  1  0  0  0
  2  3  2  0  0  0
  3  4  1  0  0  0
  4  5  2  0  0  0
  5  6  1  0  0  0
  6  7  2  0  0  0
  7  8  1  0  0  0
  8 10  1  0  0  0
 10 11  2  0  0  0
 11 12  1  0  0  0
 12 13  2  0  0  0
 13 14  1  0  0  0
 14 15  1  0  0  0
 14 16  2  0  0  0
  8  9  2  0  0  0
  6 17  1  0  0  0
 17 18  2  0  0  0
 18 19  1  0  0  0
 19 20  1  0  0  0
 20 21  2  0  0  0
 20 22  1  0  0  0
  2 24  1  0  0  0
 24 25  1  0  0  0
 25 26  1  0  0  0
 26 27  1  0  0  0
 27 28  1  0  0  0
 28 29  1  0  0  0
 29 30  1  0  0  0
 36 37  1  0  0  0
 37 38  1  0  0  0
 38 33  1  0  0  0
  9  1  1  0  0  0
 22 17  1  0  0  0
 29 24  1  0  0  0
  9  4  1  0  0  0
 16 10  1  0  0  0
 22 23  1  0  0  0
M  END
> <minimizedAffinity>
5.79868

> <CNNscore>
0.4439092278

> <CNNaffinity>
8.2916507721

> <CNN_VS>
3.6807403564

> <CNNaffinity_variance>
0.5894171000

$$$$
[H]O[C@]1([H])C([H])([H])N(c2c([H])c([H])c(N([H])c3nc(N([H])C4([H])C([H])([H])C4([H])[H])c4nc([H])c(C#N)n4n3)c(OC([H])([H])[H])c2[H])C([H])([H])C1([H])[H]


 33 37  0  0  0  0  0  0  0  0999 V2000
   14.3976   24.5112   -3.5460 N   0  0  0  0  0  0  0  0  0  0  0  0
   14.7156   23.9461   -4.3961 H   0  0  0  0  0  0  0  0  0  0  0  0
   14.6682   23.9044   -2.3167 C   0  0  0  0  0  0  0  0  0  0  0  0
   15.3762   24.5951   -1.3569 N   0  0  0  0  0  0  0  0  0  0  0  0
   15.6616   24.0657   -0.1701 C   0  0  0  0  0  0  0  0  0  0  0  0
   15.2002   22.7616    0.0505 C   0  0  0  0  0  0  0  0  0  0  0  0
   15.3132   21.9526    1.1136 N   0  0  0  0  0  0  0  0  0  0  0  0
   14.7044   20.7828    0.8588 C   0  0  0  0  0  0  0  0  0  0  0  0
   14.1842   20.8608   -0.4261 C   0  0  0  0  0  0  0  0  0  0  0  0
   14.5118   22.0830   -0.8757 N   0  0  0  0  0  0  0  0  0  0  0  0
   14.2725   22.6721   -2.0148 N   0  0  0  0  0  0  0  0  0  0  0  0
   16.3788   24.7492    0.8459 N   0  0  0  0  0  0  0  0  0  0  0  0
   15.7585   25.2338    1.5649 H   0  0  0  0  0  0  0  0  0  0  0  0
   17.8069   24.8230    0.9573 C   0  0  0  0  0  0  0  0  0  0  0  0
   18.6672   23.8653    0.2041 C   0  0  0  0  0  0  0  0  0  0  0  0
   18.6663   23.9305    1.7343 C   0  0  0  0  0  0  0  0  0  0  0  0
   13.4515   19.8229   -1.0992 C   0  0  0  0  0  0  0  0  0  0  0  0
   12.8615   18.9931   -1.6458 N   0  0  0  0  0  0  0  0  0  0  0  0
   12.5868   26.0393   -3.0955 C   0  0  0  0  0  0  0  0  0  0  0  0
   11.9383   27.2243   -3.3064 C   0  0  0  0  0  0  0  0  0  0  0  0
   12.3628   28.1820   -4.1800 C   0  0  0  0  0  0  0  0  0  0  0  0
   13.5112   27.9238   -4.8806 C   0  0  0  0  0  0  0  0  0  0  0  0
   14.1940   26.7115   -4.6791 C   0  0  0  0  0  0  0  0  0  0  0  0
   13.7743   25.7430   -3.8026 C   0  0  0  0  0  0  0  0  0  0  0  0
   11.6668   29.4134   -4.3827 N   0  0  0  0  0  0  0  0  0  0  0  0
   12.0976   30.7482   -4.0135 C   0  0  0  0  0  0  0  0  0  0  0  0
   10.8761   31.6083   -3.9897 C   0  0  0  0  0  0  0  0  0  0  0  0
    9.7307   30.6560   -4.1792 C   0  0  0  0  0  0  0  0  0  0  0  0
    9.4429   30.0920   -2.9285 O   0  0  0  0  0  0  0  0  0  0  0  0
   10.3687   29.5619   -5.0100 C   0  0  0  0  0  0  0  0  0  0  0  0
   10.2459   30.1452   -2.3392 H   0  0  0  0  0  0  0  0  0  0  0  0
   12.1031   25.4173   -0.8164 C   0  0  0  0  0  0  0  0  0  0  0  0
   12.1301   25.0925   -2.2044 O   0  0  0  0  0  0  0  0  0  0  0  0
 32 33  1  0  0  0
 33 19  1  0  0  0
 19 20  2  0  0  0
 20 21  1  0  0  0
 21 22  2  0  0  0
 22 23  1  0  0  0
 23 24  2  0  0  0
 24  1  1  0  0  0
  1  3  1  0  0  0
  3  4  1  0  0  0
  4  5  2  0  0  0
  5 12  1  0  0  0
 12 14  1  0  0  0
 14 15  1  0  0  0
 15 16  1  0  0  0
  5  6  1  0  0  0
  6  7  2  0  0  0
  7  8  1  0  0  0
  8  9  2  0  0  0
  9 17  1  0  0  0
 17 18  3  0  0  0
  9 10  1  0  0  0
 10 11  1  0  0  0
 21 25  1  0  0  0
 25 26  1  0  0  0
 26 27  1  0  0  0
 27 28  1  0  0  0
 28 29  1  0  0  0
 28 30  1  0  0  0
 24 19  1  0  0  0
 11  3  2  0  0  0
 30 25  1  0  0  0
 16 14  1  0  0  0
 10  6  1  0  0  0
  1  2  1  0  0  0
 12 13  1  0  0  0
 29 31  1  0  0  0
M  END
> <minimizedAffinity>
16.26992

> <CNNscore>
0.5619874597

> <CNNaffinity>
7.2943267822

> <CNN_VS>
4.0993204117

> <CNNaffinity_variance>
1.1221444607

$$$$
[H]O[C@]1([H])C([H])([H])N(c2c([H])c([H])c(N([H])c3nc(N([H])C4([H])C([H])([H])C4([H])[H])c4nc([H])c(C#N)n4n3)c(OC([H])([H])[H])c2[H])C([H])([H])C1([H])[H]


 33 37  0  0  0  0  0  0  0  0999 V2000
   14.3608   24.6447   -0.5411 N   0  0  0  0  0  0  0  0  0  0  0  0
   15.1321   25.1039    0.0396 H   0  0  0  0  0  0  0  0  0  0  0  0
   14.6798   24.4742   -1.8909 C   0  0  0  0  0  0  0  0  0  0  0  0
   14.7468   23.2034   -2.4201 N   0  0  0  0  0  0  0  0  0  0  0  0
   15.0461   22.9836   -3.6977 C   0  0  0  0  0  0  0  0  0  0  0  0
   15.2902   24.1208   -4.4784 C   0  0  0  0  0  0  0  0  0  0  0  0
   15.6108   24.2510   -5.7736 N   0  0  0  0  0  0  0  0  0  0  0  0
   15.7472   25.5521   -6.0776 C   0  0  0  0  0  0  0  0  0  0  0  0
   15.5007   26.2738   -4.9174 C   0  0  0  0  0  0  0  0  0  0  0  0
   15.2275   25.3590   -3.9731 N   0  0  0  0  0  0  0  0  0  0  0  0
   14.9276   25.4908   -2.7103 N   0  0  0  0  0  0  0  0  0  0  0  0
   15.1145   21.6914   -4.2802 N   0  0  0  0  0  0  0  0  0  0  0  0
   16.0074   21.1569   -4.0487 H   0  0  0  0  0  0  0  0  0  0  0  0
   14.1114   21.0950   -5.1143 C   0  0  0  0  0  0  0  0  0  0  0  0
   13.3835   19.8768   -4.6554 C   0  0  0  0  0  0  0  0  0  0  0  0
   14.2555   19.8794   -5.9145 C   0  0  0  0  0  0  0  0  0  0  0  0
   15.5403   27.7059   -4.7956 C   0  0  0  0  0  0  0  0  0  0  0  0
   15.5764   28.8562   -4.6918 N   0  0  0  0  0  0  0  0  0  0  0  0
   13.1545   23.0596    0.8188 C   0  0  0  0  0  0  0  0  0  0  0  0
   12.0313   22.6711    1.4947 C   0  0  0  0  0  0  0  0  0  0  0  0
   10.8883   23.4120    1.5659 C   0  0  0  0  0  0  0  0  0  0  0  0
   10.8831   24.6168    0.9142 C   0  0  0  0  0  0  0  0  0  0  0  0
   12.0273   25.0359    0.2130 C   0  0  0  0  0  0  0  0  0  0  0  0
   13.1809   24.2972    0.1363 C   0  0  0  0  0  0  0  0  0  0  0  0
    9.7268   22.9836    2.2795 N   0  0  0  0  0  0  0  0  0  0  0  0
    9.0278   23.6835    3.3403 C   0  0  0  0  0  0  0  0  0  0  0  0
    8.2100   22.6660    4.0672 C   0  0  0  0  0  0  0  0  0  0  0  0
    8.6278   21.3473    3.4831 C   0  0  0  0  0  0  0  0  0  0  0  0
    9.8107   20.9590    4.1275 O   0  0  0  0  0  0  0  0  0  0  0  0
    9.0133   21.7392    2.0717 C   0  0  0  0  0  0  0  0  0  0  0  0
   10.2723   21.7603    4.5013 H   0  0  0  0  0  0  0  0  0  0  0  0
   14.1909   20.9502    0.2796 C   0  0  0  0  0  0  0  0  0  0  0  0
   14.2936   22.2860    0.7671 O   0  0  0  0  0  0  0  0  0  0  0  0
 32 33  1  0  0  0
 33 19  1  0  0  0
 19 20  2  0  0  0
 20 21  1  0  0  0
 21 22  2  0  0  0
 22 23  1  0  0  0
 23 24  2  0  0  0
 24  1  1  0  0  0
  1  3  1  0  0  0
  3  4  1  0  0  0
  4  5  2  0  0  0
  5 12  1  0  0  0
 12 14  1  0  0  0
 14 15  1  0  0  0
 15 16  1  0  0  0
  5  6  1  0  0  0
  6  7  2  0  0  0
  7  8  1  0  0  0
  8  9  2  0  0  0
  9 17  1  0  0  0
 17 18  3  0  0  0
  9 10  1  0  0  0
 10 11  1  0  0  0
 21 25  1  0  0  0
 25 26  1  0  0  0
 26 27  1  0  0  0
 27 28  1  0  0  0
 28 29  1  0  0  0
 28 30  1  0  0  0
 24 19  1  0  0  0
 11  3  2  0  0  0
 30 25  1  0  0  0
 16 14  1  0  0  0
 10  6  1  0  0  0
  1  2  1  0  0  0
 12 13  1  0  0  0
 29 31  1  0  0  0
M  END
> <minimizedAffinity>
0.17470

> <CNNscore>
0.5096739531

> <CNNaffinity>
7.4559159279

> <CNN_VS>
3.8000862598

> <CNNaffinity_variance>
0.7866497040

$$$$
[H]O[C@]1([H])C([H])([H])N(c2c([H])c([H])c(N([H])c3nc(N([H])C4([H])C([H])([H])C4([H])[H])c4nc([H])c(C#N)n4n3)c(OC([H])([H])[H])c2[H])C([H])([H])C1([H])[H]


 33 37  0  0  0  0  0  0  0  0999 V2000
   13.0226   24.3813    0.4696 N   0  0  0  0  0  0  0  0  0  0  0  0
   13.1237   24.8081    1.4447 H   0  0  0  0  0  0  0  0  0  0  0  0
   13.9870   24.8057   -0.4482 C   0  0  0  0  0  0  0  0  0  0  0  0
   15.3198   24.5580   -0.1999 N   0  0  0  0  0  0  0  0  0  0  0  0
   16.2790   24.9399   -1.0392 C   0  0  0  0  0  0  0  0  0  0  0  0
   15.8568   25.6106   -2.1943 C   0  0  0  0  0  0  0  0  0  0  0  0
   16.5492   26.1192   -3.2234 N   0  0  0  0  0  0  0  0  0  0  0  0
   15.7042   26.6756   -4.1066 C   0  0  0  0  0  0  0  0  0  0  0  0
   14.4191   26.5085   -3.6082 C   0  0  0  0  0  0  0  0  0  0  0  0
   14.5645   25.8556   -2.4439 N   0  0  0  0  0  0  0  0  0  0  0  0
   13.6842   25.4488   -1.5712 N   0  0  0  0  0  0  0  0  0  0  0  0
   17.6597   24.6939   -0.8226 N   0  0  0  0  0  0  0  0  0  0  0  0
   18.3020   25.1721   -1.5265 H   0  0  0  0  0  0  0  0  0  0  0  0
   18.2117   23.8865    0.2265 C   0  0  0  0  0  0  0  0  0  0  0  0
   17.3338   23.3754    1.3186 C   0  0  0  0  0  0  0  0  0  0  0  0
   18.5094   24.3183    1.5917 C   0  0  0  0  0  0  0  0  0  0  0  0
   13.2087   26.9576   -4.2410 C   0  0  0  0  0  0  0  0  0  0  0  0
   12.2335   27.3212   -4.7432 N   0  0  0  0  0  0  0  0  0  0  0  0
   12.1721   22.1294    0.6225 C   0  0  0  0  0  0  0  0  0  0  0  0
   11.1712   21.2128    0.4573 C   0  0  0  0  0  0  0  0  0  0  0  0
    9.9339   21.5131   -0.0320 C   0  0  0  0  0  0  0  0  0  0  0  0
    9.6971   22.8183   -0.3739 C   0  0  0  0  0  0  0  0  0  0  0  0
   10.7123   23.7773   -0.2122 C   0  0  0  0  0  0  0  0  0  0  0  0
   11.9593   23.4840    0.2792 C   0  0  0  0  0  0  0  0  0  0  0  0
    8.9039   20.5363   -0.1952 N   0  0  0  0  0  0  0  0  0  0  0  0
    9.0581   19.1189   -0.4609 C   0  0  0  0  0  0  0  0  0  0  0  0
    7.7550   18.6349   -1.0089 C   0  0  0  0  0  0  0  0  0  0  0  0
    6.9357   19.8773   -1.2082 C   0  0  0  0  0  0  0  0  0  0  0  0
    7.3206   20.4415   -2.4325 O   0  0  0  0  0  0  0  0  0  0  0  0
    7.4779   20.7860   -0.1244 C   0  0  0  0  0  0  0  0  0  0  0  0
    8.2404   20.1388   -2.6716 H   0  0  0  0  0  0  0  0  0  0  0  0
   13.9533   20.5133    0.7965 C   0  0  0  0  0  0  0  0  0  0  0  0
   13.4120   21.7919    1.1202 O   0  0  0  0  0  0  0  0  0  0  0  0
 32 33  1  0  0  0
 33 19  1  0  0  0
 19 20  2  0  0  0
 20 21  1  0  0  0
 21 22  2  0  0  0
 22 23  1  0  0  0
 23 24  2  0  0  0
 24  1  1  0  0  0
  1  3  1  0  0  0
  3  4  1  0  0  0
  4  5  2  0  0  0
  5 12  1  0  0  0
 12 14  1  0  0  0
 14 15  1  0  0  0
 15 16  1  0  0  0
  5  6  1  0  0  0
  6  7  2  0  0  0
  7  8  1  0  0  0
  8  9  2  0  0  0
  9 17  1  0  0  0
 17 18  3  0  0  0
  9 10  1  0  0  0
 10 11  1  0  0  0
 21 25  1  0  0  0
 25 26  1  0  0  0
 26 27  1  0  0  0
 27 28  1  0  0  0
 28 29  1  0  0  0
 28 30  1  0  0  0
 24 19  1  0  0  0
 11  3  2  0  0  0
 30 25  1  0  0  0
 16 14  1  0  0  0
 10  6  1  0  0  0
  1  2  1  0  0  0
 12 13  1  0  0  0
 29 31  1  0  0  0
M  END
> <minimizedAffinity>
-1.79382

> <CNNscore>
0.3777605891

> <CNNaffinity>
7.2876229286

> <CNN_VS>
2.7529766560

> <CNNaffinity_variance>
0.5455949903

$$$$
[H]O[C@]1([H])C([H])([H])N(c2c([H])c([H])c(N([H])c3nc(N([H])C4([H])C([H])([H])C4([H])[H])c4nc([H])c(C#N)n4n3)c(OC([H])([H])[H])c2[H])C([H])([H])C1([H])[H]


 33 37  0  0  0  0  0  0  0  0999 V2000
   13.0762   24.9305    0.4019 N   0  0  0  0  0  0  0  0  0  0  0  0
   13.6698   25.6783    0.8829 H   0  0  0  0  0  0  0  0  0  0  0  0
   13.6107   24.4540   -0.7980 C   0  0  0  0  0  0  0  0  0  0  0  0
   13.7718   23.0976   -0.9814 N   0  0  0  0  0  0  0  0  0  0  0  0
   14.2756   22.5898   -2.1033 C   0  0  0  0  0  0  0  0  0  0  0  0
   14.6346   23.5149   -3.0921 C   0  0  0  0  0  0  0  0  0  0  0  0
   15.1596   23.3432   -4.3136 N   0  0  0  0  0  0  0  0  0  0  0  0
   15.3339   24.5372   -4.9033 C   0  0  0  0  0  0  0  0  0  0  0  0
   14.8975   25.5055   -4.0091 C   0  0  0  0  0  0  0  0  0  0  0  0
   14.4818   24.8342   -2.9230 N   0  0  0  0  0  0  0  0  0  0  0  0
   13.9804   25.2529   -1.7937 N   0  0  0  0  0  0  0  0  0  0  0  0
   14.4469   21.1999   -2.3321 N   0  0  0  0  0  0  0  0  0  0  0  0
   14.2483   20.8967   -3.3347 H   0  0  0  0  0  0  0  0  0  0  0  0
   14.8482   20.2333   -1.3513 C   0  0  0  0  0  0  0  0  0  0  0  0
   13.8927   19.8021   -0.2903 C   0  0  0  0  0  0  0  0  0  0  0  0
   15.2135   20.5042    0.0386 C   0  0  0  0  0  0  0  0  0  0  0  0
   14.9063   26.9248   -4.2387 C   0  0  0  0  0  0  0  0  0  0  0  0
   14.9172   28.0645   -4.4295 N   0  0  0  0  0  0  0  0  0  0  0  0
   11.7770   23.2335    1.5198 C   0  0  0  0  0  0  0  0  0  0  0  0
   10.6378   22.8193    2.1523 C   0  0  0  0  0  0  0  0  0  0  0  0
    9.5521   23.6160    2.3694 C   0  0  0  0  0  0  0  0  0  0  0  0
    9.6251   24.9077    1.9193 C   0  0  0  0  0  0  0  0  0  0  0  0
   10.7871   25.3546    1.2662 C   0  0  0  0  0  0  0  0  0  0  0  0
   11.8834   24.5603    1.0438 C   0  0  0  0  0  0  0  0  0  0  0  0
    8.3724   23.1591    3.0335 N   0  0  0  0  0  0  0  0  0  0  0  0
    7.9284   23.4802    4.3764 C   0  0  0  0  0  0  0  0  0  0  0  0
    6.9449   22.4274    4.7726 C   0  0  0  0  0  0  0  0  0  0  0  0
    7.0025   21.4114    3.6686 C   0  0  0  0  0  0  0  0  0  0  0  0
    8.1015   20.5787    3.9219 O   0  0  0  0  0  0  0  0  0  0  0  0
    7.3751   22.2674    2.4757 C   0  0  0  0  0  0  0  0  0  0  0  0
    8.7617   21.0541    4.4991 H   0  0  0  0  0  0  0  0  0  0  0  0
   13.0649   21.3193    2.2209 C   0  0  0  0  0  0  0  0  0  0  0  0
   12.8567   22.4017    1.3168 O   0  0  0  0  0  0  0  0  0  0  0  0
 32 33  1  0  0  0
 33 19  1  0  0  0
 19 20  2  0  0  0
 20 21  1  0  0  0
 21 22  2  0  0  0
 22 23  1  0  0  0
 23 24  2  0  0  0
 24  1  1  0  0  0
  1  3  1  0  0  0
  3  4  1  0  0  0
  4  5  2  0  0  0
  5 12  1  0  0  0
 12 14  1  0  0  0
 14 15  1  0  0  0
 15 16  1  0  0  0
  5  6  1  0  0  0
  6  7  2  0  0  0
  7  8  1  0  0  0
  8  9  2  0  0  0
  9 17  1  0  0  0
 17 18  3  0  0  0
  9 10  1  0  0  0
 10 11  1  0  0  0
 21 25  1  0  0  0
 25 26  1  0  0  0
 26 27  1  0  0  0
 27 28  1  0  0  0
 28 29  1  0  0  0
 28 30  1  0  0  0
 24 19  1  0  0  0
 11  3  2  0  0  0
 30 25  1  0  0  0
 16 14  1  0  0  0
 10  6  1  0  0  0
  1  2  1  0  0  0
 12 13  1  0  0  0
 29 31  1  0  0  0
M  END
> <minimizedAffinity>
-3.30303

> <CNNscore>
0.3635992408

> <CNNaffinity>
6.9373579025

> <CNN_VS>
2.5224180222

> <CNNaffinity_variance>
0.5326220989

$$$$
[H]O[C@]1([H])C([H])([H])N(c2c([H])c([H])c(N([H])c3nc(N([H])C4([H])C([H])([H])C4([H])[H])c4nc([H])c(C#N)n4n3)c(OC([H])([H])[H])c2[H])C([H])([H])C1([H])[H]


 33 37  0  0  0  0  0  0  0  0999 V2000
   13.9946   23.7048   -3.4562 N   0  0  0  0  0  0  0  0  0  0  0  0
   13.9404   22.8680   -4.1195 H   0  0  0  0  0  0  0  0  0  0  0  0
   13.5562   23.4391   -2.1562 C   0  0  0  0  0  0  0  0  0  0  0  0
   14.3115   23.8599   -1.0829 N   0  0  0  0  0  0  0  0  0  0  0  0
   13.9415   23.6337    0.1750 C   0  0  0  0  0  0  0  0  0  0  0  0
   12.7362   22.9412    0.3483 C   0  0  0  0  0  0  0  0  0  0  0  0
   12.0893   22.5579    1.4582 N   0  0  0  0  0  0  0  0  0  0  0  0
   10.9591   21.9141    1.1239 C   0  0  0  0  0  0  0  0  0  0  0  0
   10.8930   21.8917   -0.2628 C   0  0  0  0  0  0  0  0  0  0  0  0
   11.9960   22.5286   -0.6881 N   0  0  0  0  0  0  0  0  0  0  0  0
   12.4275   22.7894   -1.8914 N   0  0  0  0  0  0  0  0  0  0  0  0
   14.6871   24.0601    1.3046 N   0  0  0  0  0  0  0  0  0  0  0  0
   14.2529   23.7884    2.2397 H   0  0  0  0  0  0  0  0  0  0  0  0
   15.9195   24.7929    1.2662 C   0  0  0  0  0  0  0  0  0  0  0  0
   16.5594   25.1136   -0.0423 C   0  0  0  0  0  0  0  0  0  0  0  0
   17.2507   24.2436    1.0117 C   0  0  0  0  0  0  0  0  0  0  0  0
    9.8416   21.2980   -1.0433 C   0  0  0  0  0  0  0  0  0  0  0  0
    8.9957   20.8155   -1.6655 N   0  0  0  0  0  0  0  0  0  0  0  0
   15.8319   24.9289   -4.4273 C   0  0  0  0  0  0  0  0  0  0  0  0
   16.3635   26.0718   -4.9569 C   0  0  0  0  0  0  0  0  0  0  0  0
   15.6721   27.2383   -5.1047 C   0  0  0  0  0  0  0  0  0  0  0  0
   14.3661   27.2472   -4.6917 C   0  0  0  0  0  0  0  0  0  0  0  0
   13.7994   26.0829   -4.1442 C   0  0  0  0  0  0  0  0  0  0  0  0
   14.4873   24.9056   -3.9920 C   0  0  0  0  0  0  0  0  0  0  0  0
   16.2506   28.4202   -5.6617 N   0  0  0  0  0  0  0  0  0  0  0  0
   16.3805   29.7238   -5.0393 C   0  0  0  0  0  0  0  0  0  0  0  0
   16.5949   30.7116   -6.1396 C   0  0  0  0  0  0  0  0  0  0  0  0
   16.3936   29.9285   -7.4048 C   0  0  0  0  0  0  0  0  0  0  0  0
   15.0134   29.8603   -7.6407 O   0  0  0  0  0  0  0  0  0  0  0  0
   16.8293   28.5399   -6.9852 C   0  0  0  0  0  0  0  0  0  0  0  0
   14.5161   29.9882   -6.7856 H   0  0  0  0  0  0  0  0  0  0  0  0
   17.3206   23.5708   -3.1028 C   0  0  0  0  0  0  0  0  0  0  0  0
   16.5592   23.7662   -4.2922 O   0  0  0  0  0  0  0  0  0  0  0  0
 32 33  1  0  0  0
 33 19  1  0  0  0
 19 20  2  0  0  0
 20 21  1  0  0  0
 21 22  2  0  0  0
 22 23  1  0  0  0
 23 24  2  0  0  0
 24  1  1  0  0  0
  1  3  1  0  0  0
  3  4  1  0  0  0
  4  5  2  0  0  0
  5 12  1  0  0  0
 12 14  1  0  0  0
 14 15  1  0  0  0
 15 16  1  0  0  0
  5  6  1  0  0  0
  6  7  2  0  0  0
  7  8  1  0  0  0
  8  9  2  0  0  0
  9 17  1  0  0  0
 17 18  3  0  0  0
  9 10  1  0  0  0
 10 11  1  0  0  0
 21 25  1  0  0  0
 25 26  1  0  0  0
 26 27  1  0  0  0
 27 28  1  0  0  0
 28 29  1  0  0  0
 28 30  1  0  0  0
 24 19  1  0  0  0
 11  3  2  0  0  0
 30 25  1  0  0  0
 16 14  1  0  0  0
 10  6  1  0  0  0
  1  2  1  0  0  0
 12 13  1  0  0  0
 29 31  1  0  0  0
M  END
> <minimizedAffinity>
17.49597

> <CNNscore>
0.3441668451

> <CNNaffinity>
6.8194847107

> <CNN_VS>
2.3470406532

> <CNNaffinity_variance>
0.3735823035

$$$$
[H]O[C@]1([H])C([H])([H])N(c2c([H])c([H])c(N([H])c3nc(N([H])C4([H])C([H])([H])C4([H])[H])c4nc([H])c(C#N)n4n3)c(OC([H])([H])[H])c2[H])C([H])([H])C1([H])[H]


 33 37  0  0  0  0  0  0  0  0999 V2000
   13.1835   22.8624   -2.3291 N   0  0  0  0  0  0  0  0  0  0  0  0
   13.1336   22.2166   -3.1798 H   0  0  0  0  0  0  0  0  0  0  0  0
   14.1763   23.8426   -2.4072 C   0  0  0  0  0  0  0  0  0  0  0  0
   15.0546   24.0083   -1.3581 N   0  0  0  0  0  0  0  0  0  0  0  0
   16.0180   24.9257   -1.3797 C   0  0  0  0  0  0  0  0  0  0  0  0
   16.0902   25.7172   -2.5333 C   0  0  0  0  0  0  0  0  0  0  0  0
   16.9234   26.7114   -2.8717 N   0  0  0  0  0  0  0  0  0  0  0  0
   16.6029   27.1754   -4.0906 C   0  0  0  0  0  0  0  0  0  0  0  0
   15.5159   26.4372   -4.5393 C   0  0  0  0  0  0  0  0  0  0  0  0
   15.2415   25.5635   -3.5572 N   0  0  0  0  0  0  0  0  0  0  0  0
   14.3241   24.6412   -3.4592 N   0  0  0  0  0  0  0  0  0  0  0  0
   16.9463   25.1188   -0.3239 N   0  0  0  0  0  0  0  0  0  0  0  0
   17.7009   25.8417   -0.5354 H   0  0  0  0  0  0  0  0  0  0  0  0
   16.9314   24.4385    0.9388 C   0  0  0  0  0  0  0  0  0  0  0  0
   18.1747   23.8009    1.4605 C   0  0  0  0  0  0  0  0  0  0  0  0
   16.9131   22.9911    1.1470 C   0  0  0  0  0  0  0  0  0  0  0  0
   14.8509   26.6061   -5.8028 C   0  0  0  0  0  0  0  0  0  0  0  0
   14.3156   26.7346   -6.8188 N   0  0  0  0  0  0  0  0  0  0  0  0
   11.5207   23.7213   -0.8078 C   0  0  0  0  0  0  0  0  0  0  0  0
   10.6098   23.5441    0.1963 C   0  0  0  0  0  0  0  0  0  0  0  0
   10.3486   22.3427    0.7871 C   0  0  0  0  0  0  0  0  0  0  0  0
   11.0515   21.2577    0.3341 C   0  0  0  0  0  0  0  0  0  0  0  0
   11.9930   21.4174   -0.6976 C   0  0  0  0  0  0  0  0  0  0  0  0
   12.2619   22.6217   -1.2974 C   0  0  0  0  0  0  0  0  0  0  0  0
    9.3909   22.1833    1.8355 N   0  0  0  0  0  0  0  0  0  0  0  0
    9.5682   21.5041    3.1047 C   0  0  0  0  0  0  0  0  0  0  0  0
    8.2028   21.1950    3.6269 C   0  0  0  0  0  0  0  0  0  0  0  0
    7.2703   21.5647    2.5096 C   0  0  0  0  0  0  0  0  0  0  0  0
    7.2459   20.4893    1.6106 O   0  0  0  0  0  0  0  0  0  0  0  0
    8.0301   22.6824    1.8257 C   0  0  0  0  0  0  0  0  0  0  0  0
    8.0789   19.9489    1.7050 H   0  0  0  0  0  0  0  0  0  0  0  0
   12.4090   25.9540   -0.6059 C   0  0  0  0  0  0  0  0  0  0  0  0
   11.7603   24.9502   -1.3832 O   0  0  0  0  0  0  0  0  0  0  0  0
 32 33  1  0  0  0
 33 19  1  0  0  0
 19 20  2  0  0  0
 20 21  1  0  0  0
 21 22  2  0  0  0
 22 23  1  0  0  0
 23 24  2  0  0  0
 24  1  1  0  0  0
  1  3  1  0  0  0
  3  4  1  0  0  0
  4  5  2  0  0  0
  5 12  1  0  0  0
 12 14  1  0  0  0
 14 15  1  0  0  0
 15 16  1  0  0  0
  5  6  1  0  0  0
  6  7  2  0  0  0
  7  8  1  0  0  0
  8  9  2  0  0  0
  9 17  1  0  0  0
 17 18  3  0  0  0
  9 10  1  0  0  0
 10 11  1  0  0  0
 21 25  1  0  0  0
 25 26  1  0  0  0
 26 27  1  0  0  0
 27 28  1  0  0  0
 28 29  1  0  0  0
 28 30  1  0  0  0
 24 19  1  0  0  0
 11  3  2  0  0  0
 30 25  1  0  0  0
 16 14  1  0  0  0
 10  6  1  0  0  0
  1  2  1  0  0  0
 12 13  1  0  0  0
 29 31  1  0  0  0
M  END
> <minimizedAffinity>
-4.21359

> <CNNscore>
0.2556832731

> <CNNaffinity>
7.0176515579

> <CNN_VS>
1.7942961454

> <CNNaffinity_variance>
0.1123050675

$$$$
[H]O[C@]1([H])C([H])([H])N(c2c([H])c([H])c(N([H])c3nc(N([H])C4([H])C([H])([H])C4([H])[H])c4nc([H])c(C#N)n4n3)c(OC([H])([H])[H])c2[H])C([H])([H])C1([H])[H]


 33 37  0  0  0  0  0  0  0  0999 V2000
   14.4361   22.6218    0.1390 N   0  0  0  0  0  0  0  0  0  0  0  0
   15.2400   22.3419    0.7858 H   0  0  0  0  0  0  0  0  0  0  0  0
   14.8417   23.1711   -1.0801 C   0  0  0  0  0  0  0  0  0  0  0  0
   15.3603   24.4476   -1.1136 N   0  0  0  0  0  0  0  0  0  0  0  0
   15.7616   25.0191   -2.2461 C   0  0  0  0  0  0  0  0  0  0  0  0
   15.6272   24.2475   -3.4076 C   0  0  0  0  0  0  0  0  0  0  0  0
   15.9286   24.5158   -4.6861 N   0  0  0  0  0  0  0  0  0  0  0  0
   15.6199   23.4589   -5.4552 C   0  0  0  0  0  0  0  0  0  0  0  0
   15.0995   22.4798   -4.6196 C   0  0  0  0  0  0  0  0  0  0  0  0
   15.1247   23.0069   -3.3848 N   0  0  0  0  0  0  0  0  0  0  0  0
   14.7535   22.5174   -2.2339 N   0  0  0  0  0  0  0  0  0  0  0  0
   16.3095   26.3261   -2.3184 N   0  0  0  0  0  0  0  0  0  0  0  0
   16.2070   26.8907   -1.4199 H   0  0  0  0  0  0  0  0  0  0  0  0
   16.9560   26.9006   -3.4627 C   0  0  0  0  0  0  0  0  0  0  0  0
   17.5065   28.2852   -3.3950 C   0  0  0  0  0  0  0  0  0  0  0  0
   16.3918   27.8981   -4.3713 C   0  0  0  0  0  0  0  0  0  0  0  0
   14.6399   21.1816   -5.0327 C   0  0  0  0  0  0  0  0  0  0  0  0
   14.2680   20.1369   -5.3580 N   0  0  0  0  0  0  0  0  0  0  0  0
   12.2215   23.4736    0.5722 C   0  0  0  0  0  0  0  0  0  0  0  0
   10.9410   23.3085    1.0218 C   0  0  0  0  0  0  0  0  0  0  0  0
   10.4540   22.1391    1.5277 C   0  0  0  0  0  0  0  0  0  0  0  0
   11.3150   21.0749    1.5810 C   0  0  0  0  0  0  0  0  0  0  0  0
   12.6363   21.2227    1.1239 C   0  0  0  0  0  0  0  0  0  0  0  0
   13.1341   22.3949    0.6137 C   0  0  0  0  0  0  0  0  0  0  0  0
    9.1106   21.9917    1.9914 N   0  0  0  0  0  0  0  0  0  0  0  0
    8.6594   21.3793    3.2263 C   0  0  0  0  0  0  0  0  0  0  0  0
    7.2153   21.0425    3.0424 C   0  0  0  0  0  0  0  0  0  0  0  0
    6.9356   21.3241    1.5943 C   0  0  0  0  0  0  0  0  0  0  0  0
    7.3612   20.2081    0.8603 O   0  0  0  0  0  0  0  0  0  0  0  0
    7.9188   22.4372    1.2971 C   0  0  0  0  0  0  0  0  0  0  0  0
    8.0506   19.7051    1.3765 H   0  0  0  0  0  0  0  0  0  0  0  0
   11.9970   25.2524   -1.0402 C   0  0  0  0  0  0  0  0  0  0  0  0
   12.6814   24.6701    0.0665 O   0  0  0  0  0  0  0  0  0  0  0  0
 32 33  1  0  0  0
 33 19  1  0  0  0
 19 20  2  0  0  0
 20 21  1  0  0  0
 21 22  2  0  0  0
 22 23  1  0  0  0
 23 24  2  0  0  0
 24  1  1  0  0  0
  1  3  1  0  0  0
  3  4  1  0  0  0
  4  5  2  0  0  0
  5 12  1  0  0  0
 12 14  1  0  0  0
 14 15  1  0  0  0
 15 16  1  0  0  0
  5  6  1  0  0  0
  6  7  2  0  0  0
  7  8  1  0  0  0
  8  9  2  0  0  0
  9 17  1  0  0  0
 17 18  3  0  0  0
  9 10  1  0  0  0
 10 11  1  0  0  0
 21 25  1  0  0  0
 25 26  1  0  0  0
 26 27  1  0  0  0
 27 28  1  0  0  0
 28 29  1  0  0  0
 28 30  1  0  0  0
 24 19  1  0  0  0
 11  3  2  0  0  0
 30 25  1  0  0  0
 16 14  1  0  0  0
 10  6  1  0  0  0
  1  2  1  0  0  0
 12 13  1  0  0  0
 29 31  1  0  0  0
M  END
> <minimizedAffinity>
-3.59631

> <CNNscore>
0.2492046952

> <CNNaffinity>
7.0219068527

> <CNN_VS>
1.7498921156

> <CNNaffinity_variance>
0.2042346299

$$$$
[H]O[C@]1([H])C([H])([H])N(c2c([H])c([H])c(N([H])c3nc(N([H])C4([H])C([H])([H])C4([H])[H])c4nc([H])c(C#N)n4n3)c(OC([H])([H])[H])c2[H])C([H])([H])C1([H])[H]


 33 37  0  0  0  0  0  0  0  0999 V2000
   14.0029   22.3838    0.4215 N   0  0  0  0  0  0  0  0  0  0  0  0
   14.8975   22.0495    0.9022 H   0  0  0  0  0  0  0  0  0  0  0  0
   12.8241   21.9167    1.0088 C   0  0  0  0  0  0  0  0  0  0  0  0
   12.8756   20.8634    1.8961 N   0  0  0  0  0  0  0  0  0  0  0  0
   11.7846   20.3790    2.4838 C   0  0  0  0  0  0  0  0  0  0  0  0
   10.5755   21.0021    2.1491 C   0  0  0  0  0  0  0  0  0  0  0  0
    9.3189   20.7662    2.5522 N   0  0  0  0  0  0  0  0  0  0  0  0
    8.4819   21.6292    1.9534 C   0  0  0  0  0  0  0  0  0  0  0  0
    9.2498   22.4465    1.1348 C   0  0  0  0  0  0  0  0  0  0  0  0
   10.5157   22.0258    1.2884 N   0  0  0  0  0  0  0  0  0  0  0  0
   11.6305   22.4428    0.7541 N   0  0  0  0  0  0  0  0  0  0  0  0
   11.7995   19.3034    3.4094 N   0  0  0  0  0  0  0  0  0  0  0  0
   12.1030   18.3720    2.9886 H   0  0  0  0  0  0  0  0  0  0  0  0
   11.4506   19.3891    4.7980 C   0  0  0  0  0  0  0  0  0  0  0  0
   10.0927   18.9756    5.2557 C   0  0  0  0  0  0  0  0  0  0  0  0
   10.6077   20.4084    5.4219 C   0  0  0  0  0  0  0  0  0  0  0  0
    8.7517   23.5126    0.3087 C   0  0  0  0  0  0  0  0  0  0  0  0
    8.3454   24.3654   -0.3570 N   0  0  0  0  0  0  0  0  0  0  0  0
   14.5110   22.6147   -1.9249 C   0  0  0  0  0  0  0  0  0  0  0  0
   14.6768   23.3805   -3.0453 C   0  0  0  0  0  0  0  0  0  0  0  0
   14.5243   24.7357   -3.0734 C   0  0  0  0  0  0  0  0  0  0  0  0
   14.1840   25.3506   -1.8976 C   0  0  0  0  0  0  0  0  0  0  0  0
   14.0085   24.5822   -0.7335 C   0  0  0  0  0  0  0  0  0  0  0  0
   14.1597   23.2190   -0.6963 C   0  0  0  0  0  0  0  0  0  0  0  0
   14.7032   25.5142   -4.2581 N   0  0  0  0  0  0  0  0  0  0  0  0
   15.2622   25.0862   -5.5262 C   0  0  0  0  0  0  0  0  0  0  0  0
   15.6719   26.3216   -6.2600 C   0  0  0  0  0  0  0  0  0  0  0  0
   15.4874   27.4361   -5.2708 C   0  0  0  0  0  0  0  0  0  0  0  0
   16.6243   27.4619   -4.4511 O   0  0  0  0  0  0  0  0  0  0  0  0
   14.3513   26.9112   -4.4175 C   0  0  0  0  0  0  0  0  0  0  0  0
   17.0659   26.5675   -4.4549 H   0  0  0  0  0  0  0  0  0  0  0  0
   13.5119   20.4211   -1.9938 C   0  0  0  0  0  0  0  0  0  0  0  0
   14.6728   21.2462   -1.9315 O   0  0  0  0  0  0  0  0  0  0  0  0
 32 33  1  0  0  0
 33 19  1  0  0  0
 19 20  2  0  0  0
 20 21  1  0  0  0
 21 22  2  0  0  0
 22 23  1  0  0  0
 23 24  2  0  0  0
 24  1  1  0  0  0
  1  3  1  0  0  0
  3  4  1  0  0  0
  4  5  2  0  0  0
  5 12  1  0  0  0
 12 14  1  0  0  0
 14 15  1  0  0  0
 15 16  1  0  0  0
  5  6  1  0  0  0
  6  7  2  0  0  0
  7  8  1  0  0  0
  8  9  2  0  0  0
  9 17  1  0  0  0
 17 18  3  0  0  0
  9 10  1  0  0  0
 10 11  1  0  0  0
 21 25  1  0  0  0
 25 26  1  0  0  0
 26 27  1  0  0  0
 27 28  1  0  0  0
 28 29  1  0  0  0
 28 30  1  0  0  0
 24 19  1  0  0  0
 11  3  2  0  0  0
 30 25  1  0  0  0
 16 14  1  0  0  0
 10  6  1  0  0  0
  1  2  1  0  0  0
 12 13  1  0  0  0
 29 31  1  0  0  0
M  END
> <minimizedAffinity>
-5.62821

> <CNNscore>
0.2231380194

> <CNNaffinity>
6.8060636520

> <CNN_VS>
1.5186915398

> <CNNaffinity_variance>
0.3368922174

$$$$
[H]O[C@]1([H])C([H])([H])N(c2c([H])c([H])c(N([H])c3nc(N([H])C4([H])C([H])([H])C4([H])[H])c4nc([H])c(C#N)n4n3)c(OC([H])([H])[H])c2[H])C([H])([H])C1([H])[H]


 33 37  0  0  0  0  0  0  0  0999 V2000
   11.7845   25.1748    0.2653 N   0  0  0  0  0  0  0  0  0  0  0  0
   11.3280   26.0210    0.7328 H   0  0  0  0  0  0  0  0  0  0  0  0
   11.5212   23.9561    0.8963 C   0  0  0  0  0  0  0  0  0  0  0  0
   10.3247   23.7747    1.5558 N   0  0  0  0  0  0  0  0  0  0  0  0
   10.0224   22.6355    2.1732 C   0  0  0  0  0  0  0  0  0  0  0  0
   10.9923   21.6264    2.1151 C   0  0  0  0  0  0  0  0  0  0  0  0
   11.0065   20.3846    2.6202 N   0  0  0  0  0  0  0  0  0  0  0  0
   12.1635   19.7804    2.3037 C   0  0  0  0  0  0  0  0  0  0  0  0
   12.9121   20.6864    1.5644 C   0  0  0  0  0  0  0  0  0  0  0  0
   12.1573   21.7935    1.4769 N   0  0  0  0  0  0  0  0  0  0  0  0
   12.3784   22.9405    0.8960 N   0  0  0  0  0  0  0  0  0  0  0  0
    8.7978   22.4083    2.8532 N   0  0  0  0  0  0  0  0  0  0  0  0
    7.9993   22.0981    2.2185 H   0  0  0  0  0  0  0  0  0  0  0  0
    8.5819   22.5623    4.2628 C   0  0  0  0  0  0  0  0  0  0  0  0
    9.0005   23.8172    4.9517 C   0  0  0  0  0  0  0  0  0  0  0  0
    9.5918   22.4519    5.3147 C   0  0  0  0  0  0  0  0  0  0  0  0
   14.2223   20.4476    1.0226 C   0  0  0  0  0  0  0  0  0  0  0  0
   15.2728   20.2497    0.5836 N   0  0  0  0  0  0  0  0  0  0  0  0
   13.9550   25.2446   -0.7843 C   0  0  0  0  0  0  0  0  0  0  0  0
   14.7543   25.4744   -1.8694 C   0  0  0  0  0  0  0  0  0  0  0  0
   14.2914   25.8804   -3.0866 C   0  0  0  0  0  0  0  0  0  0  0  0
   12.9397   26.0642   -3.2114 C   0  0  0  0  0  0  0  0  0  0  0  0
   12.0993   25.8336   -2.1082 C   0  0  0  0  0  0  0  0  0  0  0  0
   12.5563   25.4251   -0.8807 C   0  0  0  0  0  0  0  0  0  0  0  0
   15.1480   26.1139   -4.2062 N   0  0  0  0  0  0  0  0  0  0  0  0
   16.0187   27.2508   -4.4364 C   0  0  0  0  0  0  0  0  0  0  0  0
   16.3236   27.2759   -5.8989 C   0  0  0  0  0  0  0  0  0  0  0  0
   15.4390   26.2190   -6.4949 C   0  0  0  0  0  0  0  0  0  0  0  0
   14.1710   26.7880   -6.6785 O   0  0  0  0  0  0  0  0  0  0  0  0
   15.3101   25.2371   -5.3489 C   0  0  0  0  0  0  0  0  0  0  0  0
   14.0533   27.5616   -6.0599 H   0  0  0  0  0  0  0  0  0  0  0  0
   15.7638   24.2691    0.4770 C   0  0  0  0  0  0  0  0  0  0  0  0
   14.4559   24.8346    0.4322 O   0  0  0  0  0  0  0  0  0  0  0  0
 32 33  1  0  0  0
 33 19  1  0  0  0
 19 20  2  0  0  0
 20 21  1  0  0  0
 21 22  2  0  0  0
 22 23  1  0  0  0
 23 24  2  0  0  0
 24  1  1  0  0  0
  1  3  1  0  0  0
  3  4  1  0  0  0
  4  5  2  0  0  0
  5 12  1  0  0  0
 12 14  1  0  0  0
 14 15  1  0  0  0
 15 16  1  0  0  0
  5  6  1  0  0  0
  6  7  2  0  0  0
  7  8  1  0  0  0
  8  9  2  0  0  0
  9 17  1  0  0  0
 17 18  3  0  0  0
  9 10  1  0  0  0
 10 11  1  0  0  0
 21 25  1  0  0  0
 25 26  1  0  0  0
 26 27  1  0  0  0
 27 28  1  0  0  0
 28 29  1  0  0  0
 28 30  1  0  0  0
 24 19  1  0  0  0
 11  3  2  0  0  0
 30 25  1  0  0  0
 16 14  1  0  0  0
 10  6  1  0  0  0
  1  2  1  0  0  0
 12 13  1  0  0  0
 29 31  1  0  0  0
M  END
> <minimizedAffinity>
-6.97581

> <CNNscore>
0.1953105479

> <CNNaffinity>
7.1291518211

> <CNN_VS>
1.3923985958

> <CNNaffinity_variance>
0.1178730279

$$$$
[H]c1nc([H])n(C([H])([H])[C@@]2(c3c([H])c([H])c([H])c([H])c3[H])OC([H])([H])[C@@]([H])(C([H])([H])Oc3c([H])c([H])c(N4C([H])([H])C([H])([H])N(S(=O)(=O)C([H])(C([H])([H])[H])C([H])([H])[H])C([H])([H])C4([H])[H])c([H])c3[H])O2)c1[H]


 37 41  0  0  0  0  0  0  0  0999 V2000
   12.3767   26.4097    0.4973 O   0  0  0  0  0  0  0  0  0  0  0  0
    9.9852   22.9560    0.1411 C   0  0  0  0  0  0  0  0  0  0  0  0
   10.5858   23.5687   -0.9591 C   0  0  0  0  0  0  0  0  0  0  0  0
   11.3569   24.6831   -0.8230 C   0  0  0  0  0  0  0  0  0  0  0  0
   11.5926   25.2815    0.4197 C   0  0  0  0  0  0  0  0  0  0  0  0
   10.9998   24.6826    1.5114 C   0  0  0  0  0  0  0  0  0  0  0  0
   10.2142   23.5466    1.3712 C   0  0  0  0  0  0  0  0  0  0  0  0
    7.5986   19.4566   -0.0468 N   0  0  0  0  0  0  0  0  0  0  0  0
    6.9974   20.7679   -0.0117 C   0  0  0  0  0  0  0  0  0  0  0  0
    7.9785   21.6622    0.7591 C   0  0  0  0  0  0  0  0  0  0  0  0
    9.1763   21.8121   -0.0570 N   0  0  0  0  0  0  0  0  0  0  0  0
    9.4337   20.7775   -1.0427 C   0  0  0  0  0  0  0  0  0  0  0  0
    8.9727   19.4798   -0.4710 C   0  0  0  0  0  0  0  0  0  0  0  0
    6.7112   18.3148   -0.9471 S   0  0  0  0  0  0  0  0  0  0  0  0
    6.9444   18.5207   -2.4119 O   0  0  0  0  0  0  0  0  0  0  0  0
    7.1963   16.9361   -0.6134 O   0  0  0  0  0  0  0  0  0  0  0  0
    4.6060   17.1797    0.1544 C   0  0  0  0  0  0  0  0  0  0  0  0
    4.9665   18.4180   -0.6776 C   0  0  0  0  0  0  0  0  0  0  0  0
    4.1755   18.2843   -1.9477 C   0  0  0  0  0  0  0  0  0  0  0  0
   13.6976   26.5027    0.9641 C   0  0  0  0  0  0  0  0  0  0  0  0
   14.3225   25.1267    0.8188 C   0  0  0  0  0  0  0  0  0  0  0  0
   15.8346   25.1532    0.8660 C   0  0  0  0  0  0  0  0  0  0  0  0
   16.0845   23.8539    0.4128 O   0  0  0  0  0  0  0  0  0  0  0  0
   15.1230   23.6584   -0.6081 C   0  0  0  0  0  0  0  0  0  0  0  0
   14.0572   24.4904   -0.3675 O   0  0  0  0  0  0  0  0  0  0  0  0
   14.6604   22.2603   -0.6269 C   0  0  0  0  0  0  0  0  0  0  0  0
   13.8060   21.8075   -1.6137 C   0  0  0  0  0  0  0  0  0  0  0  0
   13.3270   20.5085   -1.6716 C   0  0  0  0  0  0  0  0  0  0  0  0
   13.7018   19.6092   -0.7168 C   0  0  0  0  0  0  0  0  0  0  0  0
   14.5573   20.0236    0.2904 C   0  0  0  0  0  0  0  0  0  0  0  0
   15.0184   21.3167    0.3255 C   0  0  0  0  0  0  0  0  0  0  0  0
   15.8546   24.0741   -1.8649 C   0  0  0  0  0  0  0  0  0  0  0  0
   15.2382   25.0451   -2.6820 N   0  0  0  0  0  0  0  0  0  0  0  0
   14.0058   24.9293   -3.2417 C   0  0  0  0  0  0  0  0  0  0  0  0
   13.7397   26.0634   -3.9815 C   0  0  0  0  0  0  0  0  0  0  0  0
   14.8236   26.8556   -3.8616 N   0  0  0  0  0  0  0  0  0  0  0  0
   15.7278   26.2299   -3.0698 C   0  0  0  0  0  0  0  0  0  0  0  0
 17 18  1  0  0  0
 18 19  1  0  0  0
 18 14  1  0  0  0
 14 15  2  0  0  0
 14 16  2  0  0  0
 14  8  1  0  0  0
  8  9  1  0  0  0
  9 10  1  0  0  0
 10 11  1  0  0  0
 11 12  1  0  0  0
 12 13  1  0  0  0
 11  2  1  0  0  0
  2  3  2  0  0  0
  3  4  1  0  0  0
  4  5  2  0  0  0
  5  1  1  0  0  0
  1 20  1  0  0  0
 20 21  1  0  0  0
 21 22  1  0  0  0
 22 23  1  0  0  0
 23 24  1  0  0  0
 24 32  1  0  0  0
 32 33  1  0  0  0
 33 34  1  0  0  0
 34 35  2  0  0  0
 35 36  1  0  0  0
 36 37  2  0  0  0
 24 25  1  0  0  0
 24 26  1  0  0  0
 26 27  2  0  0  0
 27 28  1  0  0  0
 28 29  2  0  0  0
 29 30  1  0  0  0
 30 31  2  0  0  0
  5  6  1  0  0  0
  6  7  2  0  0  0
 13  8  1  0  0  0
  7  2  1  0  0  0
 25 21  1  0  0  0
 31 26  1  0  0  0
 37 33  1  0  0  0
M  END
> <minimizedAffinity>
-3.74527

> <CNNscore>
0.4135177135

> <CNNaffinity>
7.3251714706

> <CNN_VS>
3.0290882587

> <CNNaffinity_variance>
0.3028282523

$$$$
[H]c1nc([H])n(C([H])([H])[C@@]2(c3c([H])c([H])c([H])c([H])c3[H])OC([H])([H])[C@@]([H])(C([H])([H])Oc3c([H])c([H])c(N4C([H])([H])C([H])([H])N(S(=O)(=O)C([H])(C([H])([H])[H])C([H])([H])[H])C([H])([H])C4([H])[H])c([H])c3[H])O2)c1[H]


 37 41  0  0  0  0  0  0  0  0999 V2000
   12.2532   24.0605    0.9094 O   0  0  0  0  0  0  0  0  0  0  0  0
    8.8338   22.0513    2.3394 C   0  0  0  0  0  0  0  0  0  0  0  0
   10.0993   21.4642    2.3307 C   0  0  0  0  0  0  0  0  0  0  0  0
   11.1925   22.1309    1.8664 C   0  0  0  0  0  0  0  0  0  0  0  0
   11.1163   23.4369    1.3701 C   0  0  0  0  0  0  0  0  0  0  0  0
    9.8677   24.0226    1.3732 C   0  0  0  0  0  0  0  0  0  0  0  0
    8.7543   23.3420    1.8470 C   0  0  0  0  0  0  0  0  0  0  0  0
    5.2787   20.1406    3.6383 N   0  0  0  0  0  0  0  0  0  0  0  0
    5.8912   19.7979    2.3776 C   0  0  0  0  0  0  0  0  0  0  0  0
    6.6163   21.0645    1.9017 C   0  0  0  0  0  0  0  0  0  0  0  0
    7.7268   21.3082    2.8130 N   0  0  0  0  0  0  0  0  0  0  0  0
    7.6223   20.7370    4.1439 C   0  0  0  0  0  0  0  0  0  0  0  0
    6.1878   20.7845    4.5479 C   0  0  0  0  0  0  0  0  0  0  0  0
    4.4906   18.8363    4.3995 S   0  0  0  0  0  0  0  0  0  0  0  0
    5.4918   17.9612    5.0882 O   0  0  0  0  0  0  0  0  0  0  0  0
    3.5667   19.3642    5.4555 O   0  0  0  0  0  0  0  0  0  0  0  0
    4.3977   16.5107    3.1679 C   0  0  0  0  0  0  0  0  0  0  0  0
    3.5908   17.8121    3.2732 C   0  0  0  0  0  0  0  0  0  0  0  0
    3.5604   18.3716    1.8794 C   0  0  0  0  0  0  0  0  0  0  0  0
   12.4334   25.4289    0.6516 C   0  0  0  0  0  0  0  0  0  0  0  0
   12.8365   25.5613   -0.8061 C   0  0  0  0  0  0  0  0  0  0  0  0
   12.1181   24.5853   -1.7119 C   0  0  0  0  0  0  0  0  0  0  0  0
   12.9014   24.7440   -2.8596 O   0  0  0  0  0  0  0  0  0  0  0  0
   14.2215   24.8518   -2.3590 C   0  0  0  0  0  0  0  0  0  0  0  0
   14.1607   25.3149   -1.0674 O   0  0  0  0  0  0  0  0  0  0  0  0
   15.0146   25.7840   -3.1782 C   0  0  0  0  0  0  0  0  0  0  0  0
   14.5447   26.2365   -4.3960 C   0  0  0  0  0  0  0  0  0  0  0  0
   15.2543   27.1006   -5.2146 C   0  0  0  0  0  0  0  0  0  0  0  0
   16.4838   27.5425   -4.8226 C   0  0  0  0  0  0  0  0  0  0  0  0
   16.9911   27.1120   -3.6080 C   0  0  0  0  0  0  0  0  0  0  0  0
   16.2680   26.2555   -2.8145 C   0  0  0  0  0  0  0  0  0  0  0  0
   14.7289   23.4275   -2.3945 C   0  0  0  0  0  0  0  0  0  0  0  0
   14.6814   22.6928   -1.1910 N   0  0  0  0  0  0  0  0  0  0  0  0
   13.9747   21.5485   -0.9996 C   0  0  0  0  0  0  0  0  0  0  0  0
   14.1569   21.1195    0.2993 C   0  0  0  0  0  0  0  0  0  0  0  0
   14.9753   22.0179    0.8825 N   0  0  0  0  0  0  0  0  0  0  0  0
   15.2896   22.9688   -0.0301 C   0  0  0  0  0  0  0  0  0  0  0  0
 17 18  1  0  0  0
 18 19  1  0  0  0
 18 14  1  0  0  0
 14 15  2  0  0  0
 14 16  2  0  0  0
 14  8  1  0  0  0
  8  9  1  0  0  0
  9 10  1  0  0  0
 10 11  1  0  0  0
 11 12  1  0  0  0
 12 13  1  0  0  0
 11  2  1  0  0  0
  2  3  2  0  0  0
  3  4  1  0  0  0
  4  5  2  0  0  0
  5  1  1  0  0  0
  1 20  1  0  0  0
 20 21  1  0  0  0
 21 22  1  0  0  0
 22 23  1  0  0  0
 23 24  1  0  0  0
 24 32  1  0  0  0
 32 33  1  0  0  0
 33 34  1  0  0  0
 34 35  2  0  0  0
 35 36  1  0  0  0
 36 37  2  0  0  0
 24 25  1  0  0  0
 24 26  1  0  0  0
 26 27  2  0  0  0
 27 28  1  0  0  0
 28 29  2  0  0  0
 29 30  1  0  0  0
 30 31  2  0  0  0
  5  6  1  0  0  0
  6  7  2  0  0  0
 13  8  1  0  0  0
  7  2  1  0  0  0
 25 21  1  0  0  0
 31 26  1  0  0  0
 37 33  1  0  0  0
M  END
> <minimizedAffinity>
-7.15933

> <CNNscore>
0.3584339321

> <CNNaffinity>
6.8211278915

> <CNN_VS>
2.4449236393

> <CNNaffinity_variance>
0.5358723402

$$$$
[H]c1nc([H])n(C([H])([H])[C@@]2(c3c([H])c([H])c([H])c([H])c3[H])OC([H])([H])[C@@]([H])(C([H])([H])Oc3c([H])c([H])c(N4C([H])([H])C([H])([H])N(S(=O)(=O)C([H])(C([H])([H])[H])C([H])([H])[H])C([H])([H])C4([H])[H])c([H])c3[H])O2)c1[H]


 37 41  0  0  0  0  0  0  0  0999 V2000
   15.3886   20.8188   -2.2980 O   0  0  0  0  0  0  0  0  0  0  0  0
   12.7926   20.6906    1.0215 C   0  0  0  0  0  0  0  0  0  0  0  0
   14.1690   20.8766    1.1530 C   0  0  0  0  0  0  0  0  0  0  0  0
   14.9909   20.9172    0.0677 C   0  0  0  0  0  0  0  0  0  0  0  0
   14.5112   20.7740   -1.2388 C   0  0  0  0  0  0  0  0  0  0  0  0
   13.1517   20.5872   -1.3762 C   0  0  0  0  0  0  0  0  0  0  0  0
   12.3150   20.5462   -0.2691 C   0  0  0  0  0  0  0  0  0  0  0  0
   10.1886   20.1952    4.3306 N   0  0  0  0  0  0  0  0  0  0  0  0
   11.5496   19.7179    4.3751 C   0  0  0  0  0  0  0  0  0  0  0  0
   11.9278   19.3832    2.9254 C   0  0  0  0  0  0  0  0  0  0  0  0
   11.9853   20.6350    2.1822 N   0  0  0  0  0  0  0  0  0  0  0  0
   11.2232   21.7507    2.7139 C   0  0  0  0  0  0  0  0  0  0  0  0
    9.9787   21.2015    3.3247 C   0  0  0  0  0  0  0  0  0  0  0  0
    9.5915   20.7185    5.8376 S   0  0  0  0  0  0  0  0  0  0  0  0
    9.2555   19.5385    6.6961 O   0  0  0  0  0  0  0  0  0  0  0  0
   10.6589   21.4927    6.5512 O   0  0  0  0  0  0  0  0  0  0  0  0
    8.4094   22.9713    6.5169 C   0  0  0  0  0  0  0  0  0  0  0  0
    8.1266   21.7001    5.7045 C   0  0  0  0  0  0  0  0  0  0  0  0
    6.9399   21.0625    6.3694 C   0  0  0  0  0  0  0  0  0  0  0  0
   15.4948   21.8177   -3.2789 C   0  0  0  0  0  0  0  0  0  0  0  0
   14.4360   22.8618   -2.9723 C   0  0  0  0  0  0  0  0  0  0  0  0
   14.5207   24.0753   -3.8720 C   0  0  0  0  0  0  0  0  0  0  0  0
   13.6666   24.9260   -3.1628 O   0  0  0  0  0  0  0  0  0  0  0  0
   13.9787   24.6682   -1.8059 C   0  0  0  0  0  0  0  0  0  0  0  0
   14.4995   23.4009   -1.7122 O   0  0  0  0  0  0  0  0  0  0  0  0
   12.7727   24.7670   -0.9663 C   0  0  0  0  0  0  0  0  0  0  0  0
   12.8315   25.3148    0.3006 C   0  0  0  0  0  0  0  0  0  0  0  0
   11.7332   25.4185    1.1392 C   0  0  0  0  0  0  0  0  0  0  0  0
   10.5184   24.9632    0.7174 C   0  0  0  0  0  0  0  0  0  0  0  0
   10.4171   24.4066   -0.5467 C   0  0  0  0  0  0  0  0  0  0  0  0
   11.5207   24.3154   -1.3589 C   0  0  0  0  0  0  0  0  0  0  0  0
   15.0311   25.7056   -1.4836 C   0  0  0  0  0  0  0  0  0  0  0  0
   15.5864   26.4224   -2.5644 N   0  0  0  0  0  0  0  0  0  0  0  0
   16.9044   26.7147   -2.7154 C   0  0  0  0  0  0  0  0  0  0  0  0
   17.0747   27.4342   -3.8806 C   0  0  0  0  0  0  0  0  0  0  0  0
   15.8481   27.5717   -4.4224 N   0  0  0  0  0  0  0  0  0  0  0  0
   14.9509   26.9532   -3.6172 C   0  0  0  0  0  0  0  0  0  0  0  0
 17 18  1  0  0  0
 18 19  1  0  0  0
 18 14  1  0  0  0
 14 15  2  0  0  0
 14 16  2  0  0  0
 14  8  1  0  0  0
  8  9  1  0  0  0
  9 10  1  0  0  0
 10 11  1  0  0  0
 11 12  1  0  0  0
 12 13  1  0  0  0
 11  2  1  0  0  0
  2  3  2  0  0  0
  3  4  1  0  0  0
  4  5  2  0  0  0
  5  1  1  0  0  0
  1 20  1  0  0  0
 20 21  1  0  0  0
 21 22  1  0  0  0
 22 23  1  0  0  0
 23 24  1  0  0  0
 24 32  1  0  0  0
 32 33  1  0  0  0
 33 34  1  0  0  0
 34 35  2  0  0  0
 35 36  1  0  0  0
 36 37  2  0  0  0
 24 25  1  0  0  0
 24 26  1  0  0  0
 26 27  2  0  0  0
 27 28  1  0  0  0
 28 29  2  0  0  0
 29 30  1  0  0  0
 30 31  2  0  0  0
  5  6  1  0  0  0
  6  7  2  0  0  0
 13  8  1  0  0  0
  7  2  1  0  0  0
 25 21  1  0  0  0
 31 26  1  0  0  0
 37 33  1  0  0  0
M  END
> <minimizedAffinity>
-3.73760

> <CNNscore>
0.3175351918

> <CNNaffinity>
6.9523110390

> <CNN_VS>
2.2076034546

> <CNNaffinity_variance>
0.5859892964

$$$$
[H]c1nc([H])n(C([H])([H])[C@@]2(c3c([H])c([H])c([H])c([H])c3[H])OC([H])([H])[C@@]([H])(C([H])([H])Oc3c([H])c([H])c(N4C([H])([H])C([H])([H])N(S(=O)(=O)C([H])(C([H])([H])[H])C([H])([H])[H])C([H])([H])C4([H])[H])c([H])c3[H])O2)c1[H]


 37 41  0  0  0  0  0  0  0  0999 V2000
   10.9820   24.9625   -2.0419 O   0  0  0  0  0  0  0  0  0  0  0  0
    9.5166   23.1057    1.4480 C   0  0  0  0  0  0  0  0  0  0  0  0
    8.9269   22.9220    0.1970 C   0  0  0  0  0  0  0  0  0  0  0  0
    9.4167   23.5292   -0.9194 C   0  0  0  0  0  0  0  0  0  0  0  0
   10.5333   24.3717   -0.8829 C   0  0  0  0  0  0  0  0  0  0  0  0
   11.1198   24.5600    0.3510 C   0  0  0  0  0  0  0  0  0  0  0  0
   10.6196   23.9402    1.4881 C   0  0  0  0  0  0  0  0  0  0  0  0
    8.2228   21.0912    4.9472 N   0  0  0  0  0  0  0  0  0  0  0  0
    8.3560   22.5278    4.9203 C   0  0  0  0  0  0  0  0  0  0  0  0
    9.4606   22.8309    3.8982 C   0  0  0  0  0  0  0  0  0  0  0  0
    8.9562   22.4685    2.5802 N   0  0  0  0  0  0  0  0  0  0  0  0
    7.8837   21.4908    2.5328 C   0  0  0  0  0  0  0  0  0  0  0  0
    8.1108   20.5128    3.6353 C   0  0  0  0  0  0  0  0  0  0  0  0
    6.9708   20.5334    5.9585 S   0  0  0  0  0  0  0  0  0  0  0  0
    6.5720   21.6067    6.9237 O   0  0  0  0  0  0  0  0  0  0  0  0
    5.7644   20.2196    5.1256 O   0  0  0  0  0  0  0  0  0  0  0  0
    8.9555   19.0381    6.8294 C   0  0  0  0  0  0  0  0  0  0  0  0
    7.4250   19.1162    6.9137 C   0  0  0  0  0  0  0  0  0  0  0  0
    6.9305   17.8308    6.3136 C   0  0  0  0  0  0  0  0  0  0  0  0
   12.1961   25.6385   -2.2427 C   0  0  0  0  0  0  0  0  0  0  0  0
   13.2386   24.9552   -1.3760 C   0  0  0  0  0  0  0  0  0  0  0  0
   14.4212   25.8437   -1.0577 C   0  0  0  0  0  0  0  0  0  0  0  0
   15.2865   24.8712   -0.5465 O   0  0  0  0  0  0  0  0  0  0  0  0
   15.0791   23.7531   -1.3901 C   0  0  0  0  0  0  0  0  0  0  0  0
   13.8215   23.8456   -1.9342 O   0  0  0  0  0  0  0  0  0  0  0  0
   15.1937   22.4977   -0.6286 C   0  0  0  0  0  0  0  0  0  0  0  0
   15.9297   22.4394    0.5392 C   0  0  0  0  0  0  0  0  0  0  0  0
   16.0845   21.2830    1.2869 C   0  0  0  0  0  0  0  0  0  0  0  0
   15.4908   20.1275    0.8710 C   0  0  0  0  0  0  0  0  0  0  0  0
   14.7442   20.1436   -0.2953 C   0  0  0  0  0  0  0  0  0  0  0  0
   14.6057   21.3028   -1.0186 C   0  0  0  0  0  0  0  0  0  0  0  0
   16.1383   23.9162   -2.4574 C   0  0  0  0  0  0  0  0  0  0  0  0
   15.8713   24.8272   -3.5011 N   0  0  0  0  0  0  0  0  0  0  0  0
   16.2051   26.1441   -3.4955 C   0  0  0  0  0  0  0  0  0  0  0  0
   15.7773   26.7213   -4.6736 C   0  0  0  0  0  0  0  0  0  0  0  0
   15.1831   25.7398   -5.3812 N   0  0  0  0  0  0  0  0  0  0  0  0
   15.2460   24.5931   -4.6622 C   0  0  0  0  0  0  0  0  0  0  0  0
 17 18  1  0  0  0
 18 19  1  0  0  0
 18 14  1  0  0  0
 14 15  2  0  0  0
 14 16  2  0  0  0
 14  8  1  0  0  0
  8  9  1  0  0  0
  9 10  1  0  0  0
 10 11  1  0  0  0
 11 12  1  0  0  0
 12 13  1  0  0  0
 11  2  1  0  0  0
  2  3  2  0  0  0
  3  4  1  0  0  0
  4  5  2  0  0  0
  5  1  1  0  0  0
  1 20  1  0  0  0
 20 21  1  0  0  0
 21 22  1  0  0  0
 22 23  1  0  0  0
 23 24  1  0  0  0
 24 32  1  0  0  0
 32 33  1  0  0  0
 33 34  1  0  0  0
 34 35  2  0  0  0
 35 36  1  0  0  0
 36 37  2  0  0  0
 24 25  1  0  0  0
 24 26  1  0  0  0
 26 27  2  0  0  0
 27 28  1  0  0  0
 28 29  2  0  0  0
 29 30  1  0  0  0
 30 31  2  0  0  0
  5  6  1  0  0  0
  6  7  2  0  0  0
 13  8  1  0  0  0
  7  2  1  0  0  0
 25 21  1  0  0  0
 31 26  1  0  0  0
 37 33  1  0  0  0
M  END
> <minimizedAffinity>
-2.84280

> <CNNscore>
0.3017143309

> <CNNaffinity>
6.6903815269

> <CNN_VS>
2.0185840130

> <CNNaffinity_variance>
0.7117168307

$$$$
[H]c1nc([H])n(C([H])([H])[C@@]2(c3c([H])c([H])c([H])c([H])c3[H])OC([H])([H])[C@@]([H])(C([H])([H])Oc3c([H])c([H])c(N4C([H])([H])C([H])([H])N(S(=O)(=O)C([H])(C([H])([H])[H])C([H])([H])[H])C([H])([H])C4([H])[H])c([H])c3[H])O2)c1[H]


 37 41  0  0  0  0  0  0  0  0999 V2000
    9.9145   24.5061    2.3593 O   0  0  0  0  0  0  0  0  0  0  0  0
   12.1946   25.0825   -1.1397 C   0  0  0  0  0  0  0  0  0  0  0  0
   12.6283   25.5080    0.1162 C   0  0  0  0  0  0  0  0  0  0  0  0
   11.8777   25.3105    1.2354 C   0  0  0  0  0  0  0  0  0  0  0  0
   10.6319   24.6747    1.1971 C   0  0  0  0  0  0  0  0  0  0  0  0
   10.1957   24.2537   -0.0416 C   0  0  0  0  0  0  0  0  0  0  0  0
   10.9618   24.4555   -1.1816 C   0  0  0  0  0  0  0  0  0  0  0  0
   14.9421   25.8129   -4.2853 N   0  0  0  0  0  0  0  0  0  0  0  0
   14.3990   24.4951   -4.0610 C   0  0  0  0  0  0  0  0  0  0  0  0
   14.0976   24.4121   -2.5580 C   0  0  0  0  0  0  0  0  0  0  0  0
   13.0027   25.3307   -2.2743 N   0  0  0  0  0  0  0  0  0  0  0  0
   12.8058   26.4264   -3.2065 C   0  0  0  0  0  0  0  0  0  0  0  0
   14.1480   26.8559   -3.6937 C   0  0  0  0  0  0  0  0  0  0  0  0
   15.2629   26.1573   -5.9223 S   0  0  0  0  0  0  0  0  0  0  0  0
   15.5956   24.8962   -6.6580 O   0  0  0  0  0  0  0  0  0  0  0  0
   14.0309   26.7268   -6.5590 O   0  0  0  0  0  0  0  0  0  0  0  0
   16.3912   28.4068   -5.1473 C   0  0  0  0  0  0  0  0  0  0  0  0
   16.6217   27.2663   -6.1483 C   0  0  0  0  0  0  0  0  0  0  0  0
   16.6164   27.9207   -7.5005 C   0  0  0  0  0  0  0  0  0  0  0  0
    9.9129   23.3883    3.2089 C   0  0  0  0  0  0  0  0  0  0  0  0
    9.0335   22.3338    2.5610 C   0  0  0  0  0  0  0  0  0  0  0  0
    9.1553   20.9751    3.2155 C   0  0  0  0  0  0  0  0  0  0  0  0
    8.5028   20.2110    2.2427 O   0  0  0  0  0  0  0  0  0  0  0  0
    8.9431   20.7700    1.0185 C   0  0  0  0  0  0  0  0  0  0  0  0
    9.3138   22.0731    1.2434 O   0  0  0  0  0  0  0  0  0  0  0  0
    7.8684   20.7317    0.0122 C   0  0  0  0  0  0  0  0  0  0  0  0
    6.6504   21.3392    0.2496 C   0  0  0  0  0  0  0  0  0  0  0  0
    5.5996   21.3213   -0.6537 C   0  0  0  0  0  0  0  0  0  0  0  0
    5.7479   20.6768   -1.8467 C   0  0  0  0  0  0  0  0  0  0  0  0
    6.9539   20.0547   -2.1232 C   0  0  0  0  0  0  0  0  0  0  0  0
    7.9803   20.0869   -1.2114 C   0  0  0  0  0  0  0  0  0  0  0  0
   10.1447   19.9253    0.6579 C   0  0  0  0  0  0  0  0  0  0  0  0
   11.3381   20.6030    0.3306 N   0  0  0  0  0  0  0  0  0  0  0  0
   12.2754   21.0139    1.2241 C   0  0  0  0  0  0  0  0  0  0  0  0
   13.2958   21.6483    0.5454 C   0  0  0  0  0  0  0  0  0  0  0  0
   12.9591   21.6156   -0.7595 N   0  0  0  0  0  0  0  0  0  0  0  0
   11.7697   20.9780   -0.8806 C   0  0  0  0  0  0  0  0  0  0  0  0
 17 18  1  0  0  0
 18 19  1  0  0  0
 18 14  1  0  0  0
 14 15  2  0  0  0
 14 16  2  0  0  0
 14  8  1  0  0  0
  8  9  1  0  0  0
  9 10  1  0  0  0
 10 11  1  0  0  0
 11 12  1  0  0  0
 12 13  1  0  0  0
 11  2  1  0  0  0
  2  3  2  0  0  0
  3  4  1  0  0  0
  4  5  2  0  0  0
  5  1  1  0  0  0
  1 20  1  0  0  0
 20 21  1  0  0  0
 21 22  1  0  0  0
 22 23  1  0  0  0
 23 24  1  0  0  0
 24 32  1  0  0  0
 32 33  1  0  0  0
 33 34  1  0  0  0
 34 35  2  0  0  0
 35 36  1  0  0  0
 36 37  2  0  0  0
 24 25  1  0  0  0
 24 26  1  0  0  0
 26 27  2  0  0  0
 27 28  1  0  0  0
 28 29  2  0  0  0
 29 30  1  0  0  0
 30 31  2  0  0  0
  5  6  1  0  0  0
  6  7  2  0  0  0
 13  8  1  0  0  0
  7  2  1  0  0  0
 25 21  1  0  0  0
 31 26  1  0  0  0
 37 33  1  0  0  0
M  END
> <minimizedAffinity>
-3.47884

> <CNNscore>
0.2660036385

> <CNNaffinity>
6.8810739517

> <CNN_VS>
1.8303906918

> <CNNaffinity_variance>
0.0817888305

$$$$
[H]c1nc([H])n(C([H])([H])[C@@]2(c3c([H])c([H])c([H])c([H])c3[H])OC([H])([H])[C@@]([H])(C([H])([H])Oc3c([H])c([H])c(N4C([H])([H])C([H])([H])N(S(=O)(=O)C([H])(C([H])([H])[H])C([H])([H])[H])C([H])([H])C4([H])[H])c([H])c3[H])O2)c1[H]


 37 41  0  0  0  0  0  0  0  0999 V2000
   12.2932   19.7261    0.0944 O   0  0  0  0  0  0  0  0  0  0  0  0
    9.8832   22.1324    2.5795 C   0  0  0  0  0  0  0  0  0  0  0  0
    9.4711   21.7129    1.3143 C   0  0  0  0  0  0  0  0  0  0  0  0
   10.2637   20.9337    0.5271 C   0  0  0  0  0  0  0  0  0  0  0  0
   11.5335   20.5089    0.9332 C   0  0  0  0  0  0  0  0  0  0  0  0
   11.9485   20.9220    2.1819 C   0  0  0  0  0  0  0  0  0  0  0  0
   11.1394   21.7161    2.9834 C   0  0  0  0  0  0  0  0  0  0  0  0
    7.3241   24.3061    5.1685 N   0  0  0  0  0  0  0  0  0  0  0  0
    8.7399   24.5800    5.1172 C   0  0  0  0  0  0  0  0  0  0  0  0
    9.4123   23.2575    4.7231 C   0  0  0  0  0  0  0  0  0  0  0  0
    9.0304   22.9585    3.3491 N   0  0  0  0  0  0  0  0  0  0  0  0
    7.8037   23.5633    2.8615 C   0  0  0  0  0  0  0  0  0  0  0  0
    6.8417   23.6215    3.9993 C   0  0  0  0  0  0  0  0  0  0  0  0
    6.3679   25.6765    5.4994 S   0  0  0  0  0  0  0  0  0  0  0  0
    5.0825   25.2630    6.1468 O   0  0  0  0  0  0  0  0  0  0  0  0
    7.0882   26.5589    6.4741 O   0  0  0  0  0  0  0  0  0  0  0  0
    7.2020   27.4166    3.7078 C   0  0  0  0  0  0  0  0  0  0  0  0
    5.9484   26.6003    4.0510 C   0  0  0  0  0  0  0  0  0  0  0  0
    4.8722   27.6173    4.3044 C   0  0  0  0  0  0  0  0  0  0  0  0
   13.1826   20.1552   -0.9037 C   0  0  0  0  0  0  0  0  0  0  0  0
   13.1094   21.6710   -0.9481 C   0  0  0  0  0  0  0  0  0  0  0  0
   12.9157   22.2155   -2.3464 C   0  0  0  0  0  0  0  0  0  0  0  0
   13.1928   23.5622   -2.0907 O   0  0  0  0  0  0  0  0  0  0  0  0
   14.2756   23.5202   -1.1792 C   0  0  0  0  0  0  0  0  0  0  0  0
   14.2371   22.3201   -0.5125 O   0  0  0  0  0  0  0  0  0  0  0  0
   14.1828   24.6243   -0.2090 C   0  0  0  0  0  0  0  0  0  0  0  0
   12.9905   25.2911   -0.0030 C   0  0  0  0  0  0  0  0  0  0  0  0
   12.8494   26.3460    0.8845 C   0  0  0  0  0  0  0  0  0  0  0  0
   13.9278   26.7693    1.6046 C   0  0  0  0  0  0  0  0  0  0  0  0
   15.1419   26.1271    1.4270 C   0  0  0  0  0  0  0  0  0  0  0  0
   15.2559   25.0838    0.5413 C   0  0  0  0  0  0  0  0  0  0  0  0
   15.4923   23.5973   -2.0743 C   0  0  0  0  0  0  0  0  0  0  0  0
   15.5091   24.6079   -3.0587 N   0  0  0  0  0  0  0  0  0  0  0  0
   15.1442   24.4425   -4.3568 C   0  0  0  0  0  0  0  0  0  0  0  0
   15.3001   25.6405   -5.0237 C   0  0  0  0  0  0  0  0  0  0  0  0
   15.7637   26.5213   -4.1147 N   0  0  0  0  0  0  0  0  0  0  0  0
   15.8863   25.8860   -2.9243 C   0  0  0  0  0  0  0  0  0  0  0  0
 17 18  1  0  0  0
 18 19  1  0  0  0
 18 14  1  0  0  0
 14 15  2  0  0  0
 14 16  2  0  0  0
 14  8  1  0  0  0
  8  9  1  0  0  0
  9 10  1  0  0  0
 10 11  1  0  0  0
 11 12  1  0  0  0
 12 13  1  0  0  0
 11  2  1  0  0  0
  2  3  2  0  0  0
  3  4  1  0  0  0
  4  5  2  0  0  0
  5  1  1  0  0  0
  1 20  1  0  0  0
 20 21  1  0  0  0
 21 22  1  0  0  0
 22 23  1  0  0  0
 23 24  1  0  0  0
 24 32  1  0  0  0
 32 33  1  0  0  0
 33 34  1  0  0  0
 34 35  2  0  0  0
 35 36  1  0  0  0
 36 37  2  0  0  0
 24 25  1  0  0  0
 24 26  1  0  0  0
 26 27  2  0  0  0
 27 28  1  0  0  0
 28 29  2  0  0  0
 29 30  1  0  0  0
 30 31  2  0  0  0
  5  6  1  0  0  0
  6  7  2  0  0  0
 13  8  1  0  0  0
  7  2  1  0  0  0
 25 21  1  0  0  0
 31 26  1  0  0  0
 37 33  1  0  0  0
M  END
> <minimizedAffinity>
-2.93297

> <CNNscore>
0.2247799933

> <CNNaffinity>
6.5896873474

> <CNN_VS>
1.4812299013

> <CNNaffinity_variance>
0.3458263576

$$$$
[H]c1nc([H])n(C([H])([H])[C@@]2(c3c([H])c([H])c([H])c([H])c3[H])OC([H])([H])[C@@]([H])(C([H])([H])Oc3c([H])c([H])c(N4C([H])([H])C([H])([H])N(S(=O)(=O)C([H])(C([H])([H])[H])C([H])([H])[H])C([H])([H])C4([H])[H])c([H])c3[H])O2)c1[H]


 37 41  0  0  0  0  0  0  0  0999 V2000
   10.7219   20.0478    3.5231 O   0  0  0  0  0  0  0  0  0  0  0  0
   12.9053   22.3228    0.7247 C   0  0  0  0  0  0  0  0  0  0  0  0
   11.6934   22.7577    1.2620 C   0  0  0  0  0  0  0  0  0  0  0  0
   11.0039   22.0088    2.1668 C   0  0  0  0  0  0  0  0  0  0  0  0
   11.4625   20.7635    2.6106 C   0  0  0  0  0  0  0  0  0  0  0  0
   12.6588   20.3262    2.0816 C   0  0  0  0  0  0  0  0  0  0  0  0
   13.3607   21.0907    1.1595 C   0  0  0  0  0  0  0  0  0  0  0  0
   14.6526   25.0477   -2.0137 N   0  0  0  0  0  0  0  0  0  0  0  0
   15.2844   24.7522   -0.7505 C   0  0  0  0  0  0  0  0  0  0  0  0
   14.1479   24.3916    0.2165 C   0  0  0  0  0  0  0  0  0  0  0  0
   13.5718   23.1293   -0.2279 N   0  0  0  0  0  0  0  0  0  0  0  0
   13.7545   22.7791   -1.6252 C   0  0  0  0  0  0  0  0  0  0  0  0
   13.7099   24.0402   -2.4196 C   0  0  0  0  0  0  0  0  0  0  0  0
   15.7503   25.3851   -3.2718 S   0  0  0  0  0  0  0  0  0  0  0  0
   17.0678   25.8144   -2.7040 O   0  0  0  0  0  0  0  0  0  0  0  0
   15.9973   24.1351   -4.0617 O   0  0  0  0  0  0  0  0  0  0  0  0
   13.6991   26.8286   -4.0736 C   0  0  0  0  0  0  0  0  0  0  0  0
   15.2014   26.6761   -4.3485 C   0  0  0  0  0  0  0  0  0  0  0  0
   15.3011   26.3011   -5.7998 C   0  0  0  0  0  0  0  0  0  0  0  0
   10.8842   20.0130    4.9173 C   0  0  0  0  0  0  0  0  0  0  0  0
   10.3688   21.3332    5.4619 C   0  0  0  0  0  0  0  0  0  0  0  0
    9.7836   21.2142    6.8521 C   0  0  0  0  0  0  0  0  0  0  0  0
    9.1529   22.4604    6.9249 O   0  0  0  0  0  0  0  0  0  0  0  0
    8.6126   22.6450    5.6291 C   0  0  0  0  0  0  0  0  0  0  0  0
    9.3492   21.9010    4.7403 O   0  0  0  0  0  0  0  0  0  0  0  0
    8.6630   24.0649    5.2413 C   0  0  0  0  0  0  0  0  0  0  0  0
    9.0617   24.4417    3.9733 C   0  0  0  0  0  0  0  0  0  0  0  0
    9.1428   25.7617    3.5594 C   0  0  0  0  0  0  0  0  0  0  0  0
    8.8189   26.7614    4.4291 C   0  0  0  0  0  0  0  0  0  0  0  0
    8.4145   26.4256    5.7103 C   0  0  0  0  0  0  0  0  0  0  0  0
    8.3421   25.1096    6.0963 C   0  0  0  0  0  0  0  0  0  0  0  0
    7.2082   22.0973    5.7521 C   0  0  0  0  0  0  0  0  0  0  0  0
    6.8328   21.0710    4.8598 N   0  0  0  0  0  0  0  0  0  0  0  0
    6.2506   21.2619    3.6473 C   0  0  0  0  0  0  0  0  0  0  0  0
    6.0173   20.0340    3.0623 C   0  0  0  0  0  0  0  0  0  0  0  0
    6.4620   19.1088    3.9360 N   0  0  0  0  0  0  0  0  0  0  0  0
    6.9566   19.7475    5.0237 C   0  0  0  0  0  0  0  0  0  0  0  0
 17 18  1  0  0  0
 18 19  1  0  0  0
 18 14  1  0  0  0
 14 15  2  0  0  0
 14 16  2  0  0  0
 14  8  1  0  0  0
  8  9  1  0  0  0
  9 10  1  0  0  0
 10 11  1  0  0  0
 11 12  1  0  0  0
 12 13  1  0  0  0
 11  2  1  0  0  0
  2  3  2  0  0  0
  3  4  1  0  0  0
  4  5  2  0  0  0
  5  1  1  0  0  0
  1 20  1  0  0  0
 20 21  1  0  0  0
 21 22  1  0  0  0
 22 23  1  0  0  0
 23 24  1  0  0  0
 24 32  1  0  0  0
 32 33  1  0  0  0
 33 34  1  0  0  0
 34 35  2  0  0  0
 35 36  1  0  0  0
 36 37  2  0  0  0
 24 25  1  0  0  0
 24 26  1  0  0  0
 26 27  2  0  0  0
 27 28  1  0  0  0
 28 29  2  0  0  0
 29 30  1  0  0  0
 30 31  2  0  0  0
  5  6  1  0  0  0
  6  7  2  0  0  0
 13  8  1  0  0  0
  7  2  1  0  0  0
 25 21  1  0  0  0
 31 26  1  0  0  0
 37 33  1  0  0  0
M  END
> <minimizedAffinity>
-8.84987

> <CNNscore>
0.2118730694

> <CNNaffinity>
6.6579756737

> <CNN_VS>
1.4106457233

> <CNNaffinity_variance>
0.1486536711

$$$$
[H]c1nc([H])n(C([H])([H])[C@@]2(c3c([H])c([H])c([H])c([H])c3[H])OC([H])([H])[C@@]([H])(C([H])([H])Oc3c([H])c([H])c(N4C([H])([H])C([H])([H])N(S(=O)(=O)C([H])(C([H])([H])[H])C([H])([H])[H])C([H])([H])C4([H])[H])c([H])c3[H])O2)c1[H]


 37 41  0  0  0  0  0  0  0  0999 V2000
    9.5019   21.6752    1.1587 O   0  0  0  0  0  0  0  0  0  0  0  0
   12.0762   23.8349   -1.3875 C   0  0  0  0  0  0  0  0  0  0  0  0
   11.1956   24.4614   -0.5051 C   0  0  0  0  0  0  0  0  0  0  0  0
   10.3732   23.7457    0.3112 C   0  0  0  0  0  0  0  0  0  0  0  0
   10.3574   22.3466    0.3155 C   0  0  0  0  0  0  0  0  0  0  0  0
   11.2235   21.7206   -0.5562 C   0  0  0  0  0  0  0  0  0  0  0  0
   12.0615   22.4513   -1.3876 C   0  0  0  0  0  0  0  0  0  0  0  0
   14.2433   26.1473   -4.2042 N   0  0  0  0  0  0  0  0  0  0  0  0
   13.4353   26.7762   -3.1875 C   0  0  0  0  0  0  0  0  0  0  0  0
   12.3025   25.7880   -2.8764 C   0  0  0  0  0  0  0  0  0  0  0  0
   12.8946   24.6245   -2.2293 N   0  0  0  0  0  0  0  0  0  0  0  0
   14.3040   24.3801   -2.4786 C   0  0  0  0  0  0  0  0  0  0  0  0
   14.5955   24.7905   -3.8822 C   0  0  0  0  0  0  0  0  0  0  0  0
   15.6277   27.0410   -4.6358 S   0  0  0  0  0  0  0  0  0  0  0  0
   16.4957   26.2349   -5.5518 O   0  0  0  0  0  0  0  0  0  0  0  0
   15.2099   28.2671   -5.3905 O   0  0  0  0  0  0  0  0  0  0  0  0
   17.8962   28.1161   -3.8410 C   0  0  0  0  0  0  0  0  0  0  0  0
   16.6214   27.5012   -3.2473 C   0  0  0  0  0  0  0  0  0  0  0  0
   17.0885   26.3160   -2.4512 C   0  0  0  0  0  0  0  0  0  0  0  0
    8.1158   21.5051    1.0128 C   0  0  0  0  0  0  0  0  0  0  0  0
    7.5115   21.5342    2.4052 C   0  0  0  0  0  0  0  0  0  0  0  0
    7.7747   22.8305    3.1399 C   0  0  0  0  0  0  0  0  0  0  0  0
    7.3845   22.4313    4.4222 O   0  0  0  0  0  0  0  0  0  0  0  0
    7.8748   21.1074    4.5310 C   0  0  0  0  0  0  0  0  0  0  0  0
    7.9931   20.5819    3.2677 O   0  0  0  0  0  0  0  0  0  0  0  0
    6.9553   20.2751    5.3251 C   0  0  0  0  0  0  0  0  0  0  0  0
    7.3977   19.1252    5.9503 C   0  0  0  0  0  0  0  0  0  0  0  0
    6.5743   18.2968    6.6961 C   0  0  0  0  0  0  0  0  0  0  0  0
    5.2538   18.6086    6.8360 C   0  0  0  0  0  0  0  0  0  0  0  0
    4.7704   19.7533    6.2245 C   0  0  0  0  0  0  0  0  0  0  0  0
    5.6070   20.5581    5.4907 C   0  0  0  0  0  0  0  0  0  0  0  0
    9.2355   21.2872    5.1664 C   0  0  0  0  0  0  0  0  0  0  0  0
   10.3357   20.6815    4.5236 N   0  0  0  0  0  0  0  0  0  0  0  0
   10.7494   19.4023    4.7185 C   0  0  0  0  0  0  0  0  0  0  0  0
   11.8577   19.1634    3.9319 C   0  0  0  0  0  0  0  0  0  0  0  0
   12.1042   20.3105    3.2682 N   0  0  0  0  0  0  0  0  0  0  0  0
   11.1744   21.2262    3.6326 C   0  0  0  0  0  0  0  0  0  0  0  0
 17 18  1  0  0  0
 18 19  1  0  0  0
 18 14  1  0  0  0
 14 15  2  0  0  0
 14 16  2  0  0  0
 14  8  1  0  0  0
  8  9  1  0  0  0
  9 10  1  0  0  0
 10 11  1  0  0  0
 11 12  1  0  0  0
 12 13  1  0  0  0
 11  2  1  0  0  0
  2  3  2  0  0  0
  3  4  1  0  0  0
  4  5  2  0  0  0
  5  1  1  0  0  0
  1 20  1  0  0  0
 20 21  1  0  0  0
 21 22  1  0  0  0
 22 23  1  0  0  0
 23 24  1  0  0  0
 24 32  1  0  0  0
 32 33  1  0  0  0
 33 34  1  0  0  0
 34 35  2  0  0  0
 35 36  1  0  0  0
 36 37  2  0  0  0
 24 25  1  0  0  0
 24 26  1  0  0  0
 26 27  2  0  0  0
 27 28  1  0  0  0
 28 29  2  0  0  0
 29 30  1  0  0  0
 30 31  2  0  0  0
  5  6  1  0  0  0
  6  7  2  0  0  0
 13  8  1  0  0  0
  7  2  1  0  0  0
 25 21  1  0  0  0
 31 26  1  0  0  0
 37 33  1  0  0  0
M  END
> <minimizedAffinity>
-6.77050

> <CNNscore>
0.1955027878

> <CNNaffinity>
6.4485654831

> <CNN_VS>
1.2607125044

> <CNNaffinity_variance>
0.1027312651

$$$$
[H]c1nc([H])n(C([H])([H])[C@@]2(c3c([H])c([H])c([H])c([H])c3[H])OC([H])([H])[C@@]([H])(C([H])([H])Oc3c([H])c([H])c(N4C([H])([H])C([H])([H])N(S(=O)(=O)C([H])(C([H])([H])[H])C([H])([H])[H])C([H])([H])C4([H])[H])c([H])c3[H])O2)c1[H]


 37 41  0  0  0  0  0  0  0  0999 V2000
   14.5474   20.9335    0.2671 O   0  0  0  0  0  0  0  0  0  0  0  0
   10.3482   20.6452    0.0263 C   0  0  0  0  0  0  0  0  0  0  0  0
   11.1605   20.7204   -1.1055 C   0  0  0  0  0  0  0  0  0  0  0  0
   12.5159   20.8110   -1.0067 C   0  0  0  0  0  0  0  0  0  0  0  0
   13.1753   20.8362    0.2271 C   0  0  0  0  0  0  0  0  0  0  0  0
   12.3782   20.7648    1.3503 C   0  0  0  0  0  0  0  0  0  0  0  0
   10.9968   20.6723    1.2482 C   0  0  0  0  0  0  0  0  0  0  0  0
    6.1900   20.6300   -0.8022 N   0  0  0  0  0  0  0  0  0  0  0  0
    7.0040   19.4649   -1.0514 C   0  0  0  0  0  0  0  0  0  0  0  0
    8.4134   19.9913   -1.3563 C   0  0  0  0  0  0  0  0  0  0  0  0
    8.9438   20.5735   -0.1305 N   0  0  0  0  0  0  0  0  0  0  0  0
    7.9774   21.0134    0.8599 C   0  0  0  0  0  0  0  0  0  0  0  0
    6.7896   21.5448    0.1317 C   0  0  0  0  0  0  0  0  0  0  0  0
    4.5894   20.2683   -0.3452 S   0  0  0  0  0  0  0  0  0  0  0  0
    4.5763   19.1264    0.6236 O   0  0  0  0  0  0  0  0  0  0  0  0
    3.9966   21.4510    0.3600 O   0  0  0  0  0  0  0  0  0  0  0  0
    3.6083   18.2733   -1.7562 C   0  0  0  0  0  0  0  0  0  0  0  0
    3.5624   19.8067   -1.7087 C   0  0  0  0  0  0  0  0  0  0  0  0
    4.1159   20.2593   -3.0299 C   0  0  0  0  0  0  0  0  0  0  0  0
   15.3176   21.8863    0.9527 C   0  0  0  0  0  0  0  0  0  0  0  0
   15.5644   23.0375   -0.0059 C   0  0  0  0  0  0  0  0  0  0  0  0
   15.9262   24.3279    0.6964 C   0  0  0  0  0  0  0  0  0  0  0  0
   15.7836   25.2051   -0.3835 O   0  0  0  0  0  0  0  0  0  0  0  0
   14.6355   24.7277   -1.0610 C   0  0  0  0  0  0  0  0  0  0  0  0
   14.4867   23.3922   -0.7775 O   0  0  0  0  0  0  0  0  0  0  0  0
   14.7766   24.9083   -2.5158 C   0  0  0  0  0  0  0  0  0  0  0  0
   15.4441   23.9759   -3.2864 C   0  0  0  0  0  0  0  0  0  0  0  0
   15.6203   24.1022   -4.6551 C   0  0  0  0  0  0  0  0  0  0  0  0
   15.1197   25.1947   -5.3007 C   0  0  0  0  0  0  0  0  0  0  0  0
   14.4440   26.1530   -4.5639 C   0  0  0  0  0  0  0  0  0  0  0  0
   14.2824   26.0046   -3.2083 C   0  0  0  0  0  0  0  0  0  0  0  0
   13.5084   25.5334   -0.4543 C   0  0  0  0  0  0  0  0  0  0  0  0
   12.2344   24.9293   -0.4043 N   0  0  0  0  0  0  0  0  0  0  0  0
   11.5795   24.5759    0.7323 C   0  0  0  0  0  0  0  0  0  0  0  0
   10.3696   24.0047    0.3948 C   0  0  0  0  0  0  0  0  0  0  0  0
   10.3085   24.0170   -0.9518 N   0  0  0  0  0  0  0  0  0  0  0  0
   11.4444   24.5814   -1.4283 C   0  0  0  0  0  0  0  0  0  0  0  0
 17 18  1  0  0  0
 18 19  1  0  0  0
 18 14  1  0  0  0
 14 15  2  0  0  0
 14 16  2  0  0  0
 14  8  1  0  0  0
  8  9  1  0  0  0
  9 10  1  0  0  0
 10 11  1  0  0  0
 11 12  1  0  0  0
 12 13  1  0  0  0
 11  2  1  0  0  0
  2  3  2  0  0  0
  3  4  1  0  0  0
  4  5  2  0  0  0
  5  1  1  0  0  0
  1 20  1  0  0  0
 20 21  1  0  0  0
 21 22  1  0  0  0
 22 23  1  0  0  0
 23 24  1  0  0  0
 24 32  1  0  0  0
 32 33  1  0  0  0
 33 34  1  0  0  0
 34 35  2  0  0  0
 35 36  1  0  0  0
 36 37  2  0  0  0
 24 25  1  0  0  0
 24 26  1  0  0  0
 26 27  2  0  0  0
 27 28  1  0  0  0
 28 29  2  0  0  0
 29 30  1  0  0  0
 30 31  2  0  0  0
  5  6  1  0  0  0
  6  7  2  0  0  0
 13  8  1  0  0  0
  7  2  1  0  0  0
 25 21  1  0  0  0
 31 26  1  0  0  0
 37 33  1  0  0  0
M  END
> <minimizedAffinity>
-8.00004

> <CNNscore>
0.1871473044

> <CNNaffinity>
6.7791585922

> <CNN_VS>
1.2687013149

> <CNNaffinity_variance>
0.5313546062

$$$$
[H]c1c([H])c([H])c(C2=Nc3c([H])c([H])c([H])c([H])c3N=C(N3C([H])([H])C([H])([H])N(C([H])([H])[H])C([H])([H])C3([H])[H])c3c([H])c([H])c([H])c([H])c32)c([H])c1[H]


 29 33  0  0  0  0  0  0  0  0999 V2000
   14.3329   21.2827   -4.4489 C   0  0  0  0  0  0  0  0  0  0  0  0
   15.1014   22.2422   -5.0634 C   0  0  0  0  0  0  0  0  0  0  0  0
   15.5420   23.3640   -4.4093 C   0  0  0  0  0  0  0  0  0  0  0  0
   15.1847   23.5114   -3.0906 C   0  0  0  0  0  0  0  0  0  0  0  0
   14.4078   22.5341   -2.4664 C   0  0  0  0  0  0  0  0  0  0  0  0
   13.9690   21.4132   -3.1228 C   0  0  0  0  0  0  0  0  0  0  0  0
   13.9798   22.4112   -1.0646 C   0  0  0  0  0  0  0  0  0  0  0  0
   14.5492   22.7781    0.0462 N   0  0  0  0  0  0  0  0  0  0  0  0
   15.7990   23.4350    0.3155 C   0  0  0  0  0  0  0  0  0  0  0  0
   16.2758   22.9476    1.5033 C   0  0  0  0  0  0  0  0  0  0  0  0
   17.4618   23.3643    2.0610 C   0  0  0  0  0  0  0  0  0  0  0  0
   18.2267   24.3179    1.4131 C   0  0  0  0  0  0  0  0  0  0  0  0
   17.7675   24.8377    0.1956 C   0  0  0  0  0  0  0  0  0  0  0  0
   16.5872   24.4006   -0.3263 C   0  0  0  0  0  0  0  0  0  0  0  0
   16.3550   25.1183   -1.5635 N   0  0  0  0  0  0  0  0  0  0  0  0
   15.7776   24.7738   -2.7104 C   0  0  0  0  0  0  0  0  0  0  0  0
   12.7373   21.7736   -0.9573 N   0  0  0  0  0  0  0  0  0  0  0  0
   11.5684   22.3491   -1.5527 C   0  0  0  0  0  0  0  0  0  0  0  0
   10.4242   22.2017   -0.5778 C   0  0  0  0  0  0  0  0  0  0  0  0
   10.1536   20.8512   -0.2120 N   0  0  0  0  0  0  0  0  0  0  0  0
    8.8771   20.3642   -0.6616 C   0  0  0  0  0  0  0  0  0  0  0  0
   11.2283   19.9335   -0.3914 C   0  0  0  0  0  0  0  0  0  0  0  0
   12.5920   20.5532   -0.2163 C   0  0  0  0  0  0  0  0  0  0  0  0
   15.7669   25.8431   -3.6677 C   0  0  0  0  0  0  0  0  0  0  0  0
   14.9280   25.8829   -4.7319 C   0  0  0  0  0  0  0  0  0  0  0  0
   15.0106   26.9312   -5.6359 C   0  0  0  0  0  0  0  0  0  0  0  0
   15.9133   27.9641   -5.5195 C   0  0  0  0  0  0  0  0  0  0  0  0
   16.7549   27.8835   -4.4100 C   0  0  0  0  0  0  0  0  0  0  0  0
   16.6892   26.8692   -3.5189 C   0  0  0  0  0  0  0  0  0  0  0  0
  1  2  2  0  0  0
  2  3  1  0  0  0
  3  4  2  0  0  0
  4  5  1  0  0  0
  5  6  2  0  0  0
  5  7  1  0  0  0
  7 17  1  0  0  0
 17 18  1  0  0  0
 18 19  1  0  0  0
 19 20  1  0  0  0
 20 21  1  0  0  0
 20 22  1  0  0  0
 22 23  1  0  0  0
  7  8  2  0  0  0
  8  9  1  0  0  0
  9 10  2  0  0  0
 10 11  1  0  0  0
 11 12  2  0  0  0
 12 13  1  0  0  0
 13 14  2  0  0  0
 14 15  1  0  0  0
 15 16  2  0  0  0
 16 24  1  0  0  0
 24 25  2  0  0  0
 25 26  1  0  0  0
 26 27  2  0  0  0
 27 28  1  0  0  0
 28 29  2  0  0  0
  6  1  1  0  0  0
 23 17  1  0  0  0
 14  9  1  0  0  0
 29 24  1  0  0  0
 16  4  1  0  0  0
M  END
> <minimizedAffinity>
2.11059

> <CNNscore>
0.6564285755

> <CNNaffinity>
7.5711202621

> <CNN_VS>
4.9698996544

> <CNNaffinity_variance>
0.7524870634

$$$$
[H]c1c([H])c([H])c(C2=Nc3c([H])c([H])c([H])c([H])c3N=C(N3C([H])([H])C([H])([H])N(C([H])([H])[H])C([H])([H])C3([H])[H])c3c([H])c([H])c([H])c([H])c32)c([H])c1[H]


 29 33  0  0  0  0  0  0  0  0999 V2000
   13.1082   20.7978   -2.4762 C   0  0  0  0  0  0  0  0  0  0  0  0
   13.7006   21.3758   -3.5733 C   0  0  0  0  0  0  0  0  0  0  0  0
   14.4346   22.5312   -3.4915 C   0  0  0  0  0  0  0  0  0  0  0  0
   14.5644   23.1146   -2.2541 C   0  0  0  0  0  0  0  0  0  0  0  0
   13.9659   22.5242   -1.1399 C   0  0  0  0  0  0  0  0  0  0  0  0
   13.2329   21.3686   -1.2245 C   0  0  0  0  0  0  0  0  0  0  0  0
   14.0344   22.8910    0.2828 C   0  0  0  0  0  0  0  0  0  0  0  0
   14.9793   23.4432    0.9864 N   0  0  0  0  0  0  0  0  0  0  0  0
   16.2980   23.8970    0.6385 C   0  0  0  0  0  0  0  0  0  0  0  0
   17.1080   23.6867    1.7226 C   0  0  0  0  0  0  0  0  0  0  0  0
   18.4449   24.0094    1.7317 C   0  0  0  0  0  0  0  0  0  0  0  0
   19.0220   24.5731    0.6078 C   0  0  0  0  0  0  0  0  0  0  0  0
   18.2212   24.8019   -0.5190 C   0  0  0  0  0  0  0  0  0  0  0  0
   16.9001   24.4692   -0.4910 C   0  0  0  0  0  0  0  0  0  0  0  0
   16.3221   24.8346   -1.7685 N   0  0  0  0  0  0  0  0  0  0  0  0
   15.3594   24.2946   -2.5095 C   0  0  0  0  0  0  0  0  0  0  0  0
   12.8530   22.5615    0.9593 N   0  0  0  0  0  0  0  0  0  0  0  0
   12.7742   21.3707    1.7518 C   0  0  0  0  0  0  0  0  0  0  0  0
   11.4351   20.7221    1.4923 C   0  0  0  0  0  0  0  0  0  0  0  0
   10.3239   21.5634    1.7893 N   0  0  0  0  0  0  0  0  0  0  0  0
    9.5160   21.1053    2.8876 C   0  0  0  0  0  0  0  0  0  0  0  0
   10.5918   22.9626    1.8013 C   0  0  0  0  0  0  0  0  0  0  0  0
   11.6804   23.3808    0.8451 C   0  0  0  0  0  0  0  0  0  0  0  0
   15.1151   25.0275   -3.7191 C   0  0  0  0  0  0  0  0  0  0  0  0
   14.2257   26.0468   -3.8067 C   0  0  0  0  0  0  0  0  0  0  0  0
   14.0164   26.6763   -5.0245 C   0  0  0  0  0  0  0  0  0  0  0  0
   14.6723   26.3249   -6.1828 C   0  0  0  0  0  0  0  0  0  0  0  0
   15.5785   25.2734   -6.0462 C   0  0  0  0  0  0  0  0  0  0  0  0
   15.7950   24.6477   -4.8677 C   0  0  0  0  0  0  0  0  0  0  0  0
  1  2  2  0  0  0
  2  3  1  0  0  0
  3  4  2  0  0  0
  4  5  1  0  0  0
  5  6  2  0  0  0
  5  7  1  0  0  0
  7 17  1  0  0  0
 17 18  1  0  0  0
 18 19  1  0  0  0
 19 20  1  0  0  0
 20 21  1  0  0  0
 20 22  1  0  0  0
 22 23  1  0  0  0
  7  8  2  0  0  0
  8  9  1  0  0  0
  9 10  2  0  0  0
 10 11  1  0  0  0
 11 12  2  0  0  0
 12 13  1  0  0  0
 13 14  2  0  0  0
 14 15  1  0  0  0
 15 16  2  0  0  0
 16 24  1  0  0  0
 24 25  2  0  0  0
 25 26  1  0  0  0
 26 27  2  0  0  0
 27 28  1  0  0  0
 28 29  2  0  0  0
  6  1  1  0  0  0
 23 17  1  0  0  0
 14  9  1  0  0  0
 29 24  1  0  0  0
 16  4  1  0  0  0
M  END
> <minimizedAffinity>
4.08923

> <CNNscore>
0.6488162875

> <CNNaffinity>
7.5413451195

> <CNN_VS>
4.8929476738

> <CNNaffinity_variance>
0.7991199493

$$$$
[H]c1c([H])c([H])c(C2=Nc3c([H])c([H])c([H])c([H])c3N=C(N3C([H])([H])C([H])([H])N(C([H])([H])[H])C([H])([H])C3([H])[H])c3c([H])c([H])c([H])c([H])c32)c([H])c1[H]


 29 33  0  0  0  0  0  0  0  0999 V2000
   12.8109   25.4911    1.4952 C   0  0  0  0  0  0  0  0  0  0  0  0
   14.1135   25.8093    1.7964 C   0  0  0  0  0  0  0  0  0  0  0  0
   15.1391   25.6409    0.9019 C   0  0  0  0  0  0  0  0  0  0  0  0
   14.8256   25.1299   -0.3346 C   0  0  0  0  0  0  0  0  0  0  0  0
   13.5016   24.8113   -0.6409 C   0  0  0  0  0  0  0  0  0  0  0  0
   12.4779   24.9812    0.2553 C   0  0  0  0  0  0  0  0  0  0  0  0
   12.9016   24.3494   -1.9019 C   0  0  0  0  0  0  0  0  0  0  0  0
   13.2129   24.5867   -3.1427 N   0  0  0  0  0  0  0  0  0  0  0  0
   14.2506   25.3826   -3.7390 C   0  0  0  0  0  0  0  0  0  0  0  0
   13.7527   25.9092   -4.9012 C   0  0  0  0  0  0  0  0  0  0  0  0
   14.4875   26.7272   -5.7272 C   0  0  0  0  0  0  0  0  0  0  0  0
   15.7910   27.0478   -5.3920 C   0  0  0  0  0  0  0  0  0  0  0  0
   16.3313   26.5255   -4.2094 C   0  0  0  0  0  0  0  0  0  0  0  0
   15.5729   25.7182   -3.4159 C   0  0  0  0  0  0  0  0  0  0  0  0
   16.3864   25.3121   -2.2876 N   0  0  0  0  0  0  0  0  0  0  0  0
   16.0997   25.0612   -1.0139 C   0  0  0  0  0  0  0  0  0  0  0  0
   11.7997   23.5150   -1.6751 N   0  0  0  0  0  0  0  0  0  0  0  0
   10.4888   24.0677   -1.5067 C   0  0  0  0  0  0  0  0  0  0  0  0
    9.8099   23.3294   -0.3774 C   0  0  0  0  0  0  0  0  0  0  0  0
    9.7077   21.9242   -0.5912 N   0  0  0  0  0  0  0  0  0  0  0  0
    8.3590   21.4487   -0.7443 C   0  0  0  0  0  0  0  0  0  0  0  0
   10.6345   21.3699   -1.5205 C   0  0  0  0  0  0  0  0  0  0  0  0
   11.9572   22.0930   -1.5638 C   0  0  0  0  0  0  0  0  0  0  0  0
   17.2525   24.6694   -0.2540 C   0  0  0  0  0  0  0  0  0  0  0  0
   17.2506   24.5517    1.0965 C   0  0  0  0  0  0  0  0  0  0  0  0
   18.4192   24.2097    1.7602 C   0  0  0  0  0  0  0  0  0  0  0  0
   19.6146   23.9740    1.1193 C   0  0  0  0  0  0  0  0  0  0  0  0
   19.5702   24.1047   -0.2687 C   0  0  0  0  0  0  0  0  0  0  0  0
   18.4407   24.4378   -0.9325 C   0  0  0  0  0  0  0  0  0  0  0  0
  1  2  2  0  0  0
  2  3  1  0  0  0
  3  4  2  0  0  0
  4  5  1  0  0  0
  5  6  2  0  0  0
  5  7  1  0  0  0
  7 17  1  0  0  0
 17 18  1  0  0  0
 18 19  1  0  0  0
 19 20  1  0  0  0
 20 21  1  0  0  0
 20 22  1  0  0  0
 22 23  1  0  0  0
  7  8  2  0  0  0
  8  9  1  0  0  0
  9 10  2  0  0  0
 10 11  1  0  0  0
 11 12  2  0  0  0
 12 13  1  0  0  0
 13 14  2  0  0  0
 14 15  1  0  0  0
 15 16  2  0  0  0
 16 24  1  0  0  0
 24 25  2  0  0  0
 25 26  1  0  0  0
 26 27  2  0  0  0
 27 28  1  0  0  0
 28 29  2  0  0  0
  6  1  1  0  0  0
 23 17  1  0  0  0
 14  9  1  0  0  0
 29 24  1  0  0  0
 16  4  1  0  0  0
M  END
> <minimizedAffinity>
9.24121

> <CNNscore>
0.6194267869

> <CNNaffinity>
7.3409361839

> <CNN_VS>
4.5471725464

> <CNNaffinity_variance>
0.8377567530

$$$$
[H]c1c([H])c([H])c(C2=Nc3c([H])c([H])c([H])c([H])c3N=C(N3C([H])([H])C([H])([H])N(C([H])([H])[H])C([H])([H])C3([H])[H])c3c([H])c([H])c([H])c([H])c32)c([H])c1[H]


 29 33  0  0  0  0  0  0  0  0999 V2000
   11.8615   21.2240   -1.8274 C   0  0  0  0  0  0  0  0  0  0  0  0
   12.3602   21.7937   -2.9744 C   0  0  0  0  0  0  0  0  0  0  0  0
   13.2259   22.8569   -2.9531 C   0  0  0  0  0  0  0  0  0  0  0  0
   13.5902   23.3544   -1.7250 C   0  0  0  0  0  0  0  0  0  0  0  0
   13.0865   22.7721   -0.5608 C   0  0  0  0  0  0  0  0  0  0  0  0
   12.2213   21.7088   -0.5850 C   0  0  0  0  0  0  0  0  0  0  0  0
   13.3912   23.0511    0.8509 C   0  0  0  0  0  0  0  0  0  0  0  0
   14.4807   23.4588    1.4337 N   0  0  0  0  0  0  0  0  0  0  0  0
   15.7824   23.7858    0.9194 C   0  0  0  0  0  0  0  0  0  0  0  0
   16.7040   23.4304    1.8681 C   0  0  0  0  0  0  0  0  0  0  0  0
   18.0575   23.6059    1.6993 C   0  0  0  0  0  0  0  0  0  0  0  0
   18.5358   24.1645    0.5274 C   0  0  0  0  0  0  0  0  0  0  0  0
   17.6194   24.5396   -0.4641 C   0  0  0  0  0  0  0  0  0  0  0  0
   16.2854   24.3505   -0.2612 C   0  0  0  0  0  0  0  0  0  0  0  0
   15.5834   24.8454   -1.4282 N   0  0  0  0  0  0  0  0  0  0  0  0
   14.4726   24.4538   -2.0449 C   0  0  0  0  0  0  0  0  0  0  0  0
   12.2839   22.8146    1.6754 N   0  0  0  0  0  0  0  0  0  0  0  0
   12.2734   21.7059    2.5824 C   0  0  0  0  0  0  0  0  0  0  0  0
   10.9056   21.0676    2.5275 C   0  0  0  0  0  0  0  0  0  0  0  0
    9.8437   21.9591    2.8567 N   0  0  0  0  0  0  0  0  0  0  0  0
    9.1507   21.6255    4.0721 C   0  0  0  0  0  0  0  0  0  0  0  0
   10.1303   23.3465    2.7062 C   0  0  0  0  0  0  0  0  0  0  0  0
   11.1170   23.6471    1.6060 C   0  0  0  0  0  0  0  0  0  0  0  0
   14.1503   25.2738   -3.1780 C   0  0  0  0  0  0  0  0  0  0  0  0
   14.8349   25.2322   -4.3474 C   0  0  0  0  0  0  0  0  0  0  0  0
   14.4869   26.0891   -5.3806 C   0  0  0  0  0  0  0  0  0  0  0  0
   13.4619   27.0042   -5.2947 C   0  0  0  0  0  0  0  0  0  0  0  0
   12.7844   27.0113   -4.0755 C   0  0  0  0  0  0  0  0  0  0  0  0
   13.1098   26.1841   -3.0572 C   0  0  0  0  0  0  0  0  0  0  0  0
  1  2  2  0  0  0
  2  3  1  0  0  0
  3  4  2  0  0  0
  4  5  1  0  0  0
  5  6  2  0  0  0
  5  7  1  0  0  0
  7 17  1  0  0  0
 17 18  1  0  0  0
 18 19  1  0  0  0
 19 20  1  0  0  0
 20 21  1  0  0  0
 20 22  1  0  0  0
 22 23  1  0  0  0
  7  8  2  0  0  0
  8  9  1  0  0  0
  9 10  2  0  0  0
 10 11  1  0  0  0
 11 12  2  0  0  0
 12 13  1  0  0  0
 13 14  2  0  0  0
 14 15  1  0  0  0
 15 16  2  0  0  0
 16 24  1  0  0  0
 24 25  2  0  0  0
 25 26  1  0  0  0
 26 27  2  0  0  0
 27 28  1  0  0  0
 28 29  2  0  0  0
  6  1  1  0  0  0
 23 17  1  0  0  0
 14  9  1  0  0  0
 29 24  1  0  0  0
 16  4  1  0  0  0
M  END
> <minimizedAffinity>
7.16156

> <CNNscore>
0.6047809720

> <CNNaffinity>
7.3574333191

> <CNN_VS>
4.4496355057

> <CNNaffinity_variance>
1.1768968105

$$$$
[H]c1c([H])c([H])c(C2=Nc3c([H])c([H])c([H])c([H])c3N=C(N3C([H])([H])C([H])([H])N(C([H])([H])[H])C([H])([H])C3([H])[H])c3c([H])c([H])c([H])c([H])c32)c([H])c1[H]


 29 33  0  0  0  0  0  0  0  0999 V2000
   11.3481   25.1961   -0.8785 C   0  0  0  0  0  0  0  0  0  0  0  0
   12.0739   26.0381   -1.6866 C   0  0  0  0  0  0  0  0  0  0  0  0
   13.1935   25.6268   -2.3632 C   0  0  0  0  0  0  0  0  0  0  0  0
   13.5846   24.3187   -2.2073 C   0  0  0  0  0  0  0  0  0  0  0  0
   12.8442   23.4634   -1.3897 C   0  0  0  0  0  0  0  0  0  0  0  0
   11.7248   23.8772   -0.7148 C   0  0  0  0  0  0  0  0  0  0  0  0
   12.9945   22.0222   -1.1374 C   0  0  0  0  0  0  0  0  0  0  0  0
   13.4222   21.0542   -1.8944 N   0  0  0  0  0  0  0  0  0  0  0  0
   13.9032   21.0326   -3.2487 C   0  0  0  0  0  0  0  0  0  0  0  0
   13.5223   19.8402   -3.8046 C   0  0  0  0  0  0  0  0  0  0  0  0
   13.8204   19.4897   -5.1006 C   0  0  0  0  0  0  0  0  0  0  0  0
   14.5363   20.3631   -5.8999 C   0  0  0  0  0  0  0  0  0  0  0  0
   14.9416   21.5918   -5.3620 C   0  0  0  0  0  0  0  0  0  0  0  0
   14.6279   21.9045   -4.0734 C   0  0  0  0  0  0  0  0  0  0  0  0
   15.1874   23.2093   -3.7834 N   0  0  0  0  0  0  0  0  0  0  0  0
   14.7777   24.2154   -3.0170 C   0  0  0  0  0  0  0  0  0  0  0  0
   12.5855   21.6784    0.1573 N   0  0  0  0  0  0  0  0  0  0  0  0
   13.5442   21.2723    1.1413 C   0  0  0  0  0  0  0  0  0  0  0  0
   12.9698   20.0992    1.8999 C   0  0  0  0  0  0  0  0  0  0  0  0
   11.7272   20.3823    2.5375 N   0  0  0  0  0  0  0  0  0  0  0  0
   11.7827   20.3517    3.9744 C   0  0  0  0  0  0  0  0  0  0  0  0
   10.9914   21.4783    2.0017 C   0  0  0  0  0  0  0  0  0  0  0  0
   11.1976   21.6829    0.5219 C   0  0  0  0  0  0  0  0  0  0  0  0
   15.6856   25.3269   -3.0308 C   0  0  0  0  0  0  0  0  0  0  0  0
   16.5661   25.5829   -2.0323 C   0  0  0  0  0  0  0  0  0  0  0  0
   17.3801   26.7035   -2.1016 C   0  0  0  0  0  0  0  0  0  0  0  0
   17.3529   27.5975   -3.1482 C   0  0  0  0  0  0  0  0  0  0  0  0
   16.4341   27.2944   -4.1530 C   0  0  0  0  0  0  0  0  0  0  0  0
   15.6323   26.2073   -4.1022 C   0  0  0  0  0  0  0  0  0  0  0  0
  1  2  2  0  0  0
  2  3  1  0  0  0
  3  4  2  0  0  0
  4  5  1  0  0  0
  5  6  2  0  0  0
  5  7  1  0  0  0
  7 17  1  0  0  0
 17 18  1  0  0  0
 18 19  1  0  0  0
 19 20  1  0  0  0
 20 21  1  0  0  0
 20 22  1  0  0  0
 22 23  1  0  0  0
  7  8  2  0  0  0
  8  9  1  0  0  0
  9 10  2  0  0  0
 10 11  1  0  0  0
 11 12  2  0  0  0
 12 13  1  0  0  0
 13 14  2  0  0  0
 14 15  1  0  0  0
 15 16  2  0  0  0
 16 24  1  0  0  0
 24 25  2  0  0  0
 25 26  1  0  0  0
 26 27  2  0  0  0
 27 28  1  0  0  0
 28 29  2  0  0  0
  6  1  1  0  0  0
 23 17  1  0  0  0
 14  9  1  0  0  0
 29 24  1  0  0  0
 16  4  1  0  0  0
M  END
> <minimizedAffinity>
5.80897

> <CNNscore>
0.5251692533

> <CNNaffinity>
7.1271209717

> <CNN_VS>
3.7429447174

> <CNNaffinity_variance>
0.6861604452

$$$$
[H]c1c([H])c([H])c(C2=Nc3c([H])c([H])c([H])c([H])c3N=C(N3C([H])([H])C([H])([H])N(C([H])([H])[H])C([H])([H])C3([H])[H])c3c([H])c([H])c([H])c([H])c32)c([H])c1[H]


 29 33  0  0  0  0  0  0  0  0999 V2000
   14.3985   22.6009    0.6631 C   0  0  0  0  0  0  0  0  0  0  0  0
   15.3487   22.1960   -0.2435 C   0  0  0  0  0  0  0  0  0  0  0  0
   15.3045   22.5533   -1.5667 C   0  0  0  0  0  0  0  0  0  0  0  0
   14.2580   23.3443   -1.9760 C   0  0  0  0  0  0  0  0  0  0  0  0
   13.2960   23.7584   -1.0534 C   0  0  0  0  0  0  0  0  0  0  0  0
   13.3429   23.4000    0.2692 C   0  0  0  0  0  0  0  0  0  0  0  0
   12.1529   24.6697   -1.2154 C   0  0  0  0  0  0  0  0  0  0  0  0
   11.9801   25.7090   -1.9788 N   0  0  0  0  0  0  0  0  0  0  0  0
   12.8350   26.3491   -2.9407 C   0  0  0  0  0  0  0  0  0  0  0  0
   12.5697   27.6922   -2.9018 C   0  0  0  0  0  0  0  0  0  0  0  0
   13.2164   28.6061   -3.7005 C   0  0  0  0  0  0  0  0  0  0  0  0
   14.1827   28.1753   -4.5921 C   0  0  0  0  0  0  0  0  0  0  0  0
   14.4784   26.8072   -4.6573 C   0  0  0  0  0  0  0  0  0  0  0  0
   13.8167   25.9312   -3.8502 C   0  0  0  0  0  0  0  0  0  0  0  0
   14.3040   24.5989   -4.1457 N   0  0  0  0  0  0  0  0  0  0  0  0
   14.4900   23.5196   -3.3920 C   0  0  0  0  0  0  0  0  0  0  0  0
   11.0898   24.3205   -0.3729 N   0  0  0  0  0  0  0  0  0  0  0  0
   10.9847   24.8831    0.9403 C   0  0  0  0  0  0  0  0  0  0  0  0
   10.5751   23.7829    1.8907 C   0  0  0  0  0  0  0  0  0  0  0  0
    9.3435   23.1555    1.5441 N   0  0  0  0  0  0  0  0  0  0  0  0
    8.2843   23.3744    2.4922 C   0  0  0  0  0  0  0  0  0  0  0  0
    8.9467   23.2799    0.1815 C   0  0  0  0  0  0  0  0  0  0  0  0
   10.1032   23.3624   -0.7829 C   0  0  0  0  0  0  0  0  0  0  0  0
   14.9897   22.4015   -4.1404 C   0  0  0  0  0  0  0  0  0  0  0  0
   14.3366   21.2175   -4.2376 C   0  0  0  0  0  0  0  0  0  0  0  0
   14.9084   20.1709   -4.9452 C   0  0  0  0  0  0  0  0  0  0  0  0
   16.1298   20.2584   -5.5745 C   0  0  0  0  0  0  0  0  0  0  0  0
   16.7651   21.4939   -5.4499 C   0  0  0  0  0  0  0  0  0  0  0  0
   16.2234   22.5249   -4.7638 C   0  0  0  0  0  0  0  0  0  0  0  0
  1  2  2  0  0  0
  2  3  1  0  0  0
  3  4  2  0  0  0
  4  5  1  0  0  0
  5  6  2  0  0  0
  5  7  1  0  0  0
  7 17  1  0  0  0
 17 18  1  0  0  0
 18 19  1  0  0  0
 19 20  1  0  0  0
 20 21  1  0  0  0
 20 22  1  0  0  0
 22 23  1  0  0  0
  7  8  2  0  0  0
  8  9  1  0  0  0
  9 10  2  0  0  0
 10 11  1  0  0  0
 11 12  2  0  0  0
 12 13  1  0  0  0
 13 14  2  0  0  0
 14 15  1  0  0  0
 15 16  2  0  0  0
 16 24  1  0  0  0
 24 25  2  0  0  0
 25 26  1  0  0  0
 26 27  2  0  0  0
 27 28  1  0  0  0
 28 29  2  0  0  0
  6  1  1  0  0  0
 23 17  1  0  0  0
 14  9  1  0  0  0
 29 24  1  0  0  0
 16  4  1  0  0  0
M  END
> <minimizedAffinity>
17.89330

> <CNNscore>
0.4789505601

> <CNNaffinity>
7.0975441933

> <CNN_VS>
3.3993728161

> <CNNaffinity_variance>
1.2340945005

$$$$
[H]c1c([H])c([H])c(C2=Nc3c([H])c([H])c([H])c([H])c3N=C(N3C([H])([H])C([H])([H])N(C([H])([H])[H])C([H])([H])C3([H])[H])c3c([H])c([H])c([H])c([H])c32)c([H])c1[H]


 29 33  0  0  0  0  0  0  0  0999 V2000
    8.8238   23.8022   -1.0432 C   0  0  0  0  0  0  0  0  0  0  0  0
    9.5275   24.0370   -2.2002 C   0  0  0  0  0  0  0  0  0  0  0  0
   10.8979   24.0187   -2.2460 C   0  0  0  0  0  0  0  0  0  0  0  0
   11.5687   23.7562   -1.0758 C   0  0  0  0  0  0  0  0  0  0  0  0
   10.8529   23.5137    0.0977 C   0  0  0  0  0  0  0  0  0  0  0  0
    9.4826   23.5320    0.1405 C   0  0  0  0  0  0  0  0  0  0  0  0
   11.3232   23.1211    1.4348 C   0  0  0  0  0  0  0  0  0  0  0  0
   12.3401   22.4040    1.8151 N   0  0  0  0  0  0  0  0  0  0  0  0
   13.3745   21.7333    1.0762 C   0  0  0  0  0  0  0  0  0  0  0  0
   13.7036   20.5954    1.7638 C   0  0  0  0  0  0  0  0  0  0  0  0
   14.6660   19.7126    1.3328 C   0  0  0  0  0  0  0  0  0  0  0  0
   15.3473   19.9621    0.1548 C   0  0  0  0  0  0  0  0  0  0  0  0
   15.0350   21.1178   -0.5733 C   0  0  0  0  0  0  0  0  0  0  0  0
   14.0753   21.9695   -0.1148 C   0  0  0  0  0  0  0  0  0  0  0  0
   13.9812   23.0762   -1.0455 N   0  0  0  0  0  0  0  0  0  0  0  0
   12.9625   23.8271   -1.4525 C   0  0  0  0  0  0  0  0  0  0  0  0
   10.4935   23.6264    2.4438 N   0  0  0  0  0  0  0  0  0  0  0  0
    9.9834   22.7648    3.4683 C   0  0  0  0  0  0  0  0  0  0  0  0
    8.5349   23.1224    3.7039 C   0  0  0  0  0  0  0  0  0  0  0  0
    8.3348   24.4811    4.0844 N   0  0  0  0  0  0  0  0  0  0  0  0
    7.8392   24.6501    5.4240 C   0  0  0  0  0  0  0  0  0  0  0  0
    9.3759   25.3848    3.7253 C   0  0  0  0  0  0  0  0  0  0  0  0
   10.0985   25.0060    2.4569 C   0  0  0  0  0  0  0  0  0  0  0  0
   13.3593   24.8343   -2.3949 C   0  0  0  0  0  0  0  0  0  0  0  0
   14.4636   24.7322   -3.1747 C   0  0  0  0  0  0  0  0  0  0  0  0
   14.8018   25.7702   -4.0299 C   0  0  0  0  0  0  0  0  0  0  0  0
   14.0682   26.9297   -4.1431 C   0  0  0  0  0  0  0  0  0  0  0  0
   12.9407   26.9911   -3.3243 C   0  0  0  0  0  0  0  0  0  0  0  0
   12.5958   25.9897   -2.4843 C   0  0  0  0  0  0  0  0  0  0  0  0
  1  2  2  0  0  0
  2  3  1  0  0  0
  3  4  2  0  0  0
  4  5  1  0  0  0
  5  6  2  0  0  0
  5  7  1  0  0  0
  7 17  1  0  0  0
 17 18  1  0  0  0
 18 19  1  0  0  0
 19 20  1  0  0  0
 20 21  1  0  0  0
 20 22  1  0  0  0
 22 23  1  0  0  0
  7  8  2  0  0  0
  8  9  1  0  0  0
  9 10  2  0  0  0
 10 11  1  0  0  0
 11 12  2  0  0  0
 12 13  1  0  0  0
 13 14  2  0  0  0
 14 15  1  0  0  0
 15 16  2  0  0  0
 16 24  1  0  0  0
 24 25  2  0  0  0
 25 26  1  0  0  0
 26 27  2  0  0  0
 27 28  1  0  0  0
 28 29  2  0  0  0
  6  1  1  0  0  0
 23 17  1  0  0  0
 14  9  1  0  0  0
 29 24  1  0  0  0
 16  4  1  0  0  0
M  END
> <minimizedAffinity>
0.31742

> <CNNscore>
0.4613722563

> <CNNaffinity>
6.6381034851

> <CNN_VS>
3.0626368523

> <CNNaffinity_variance>
0.6571036577

$$$$
[H]c1c([H])c([H])c(C2=Nc3c([H])c([H])c([H])c([H])c3N=C(N3C([H])([H])C([H])([H])N(C([H])([H])[H])C([H])([H])C3([H])[H])c3c([H])c([H])c([H])c([H])c32)c([H])c1[H]


 29 33  0  0  0  0  0  0  0  0999 V2000
   12.4153   26.6757    0.4928 C   0  0  0  0  0  0  0  0  0  0  0  0
   11.5175   26.1017    1.3606 C   0  0  0  0  0  0  0  0  0  0  0  0
   11.2466   24.7574    1.3585 C   0  0  0  0  0  0  0  0  0  0  0  0
   11.9095   23.9777    0.4414 C   0  0  0  0  0  0  0  0  0  0  0  0
   12.8243   24.5612   -0.4365 C   0  0  0  0  0  0  0  0  0  0  0  0
   13.0937   25.9056   -0.4318 C   0  0  0  0  0  0  0  0  0  0  0  0
   13.7180   23.9435   -1.4281 C   0  0  0  0  0  0  0  0  0  0  0  0
   14.3180   22.7892   -1.4474 N   0  0  0  0  0  0  0  0  0  0  0  0
   14.3315   21.6962   -0.5141 C   0  0  0  0  0  0  0  0  0  0  0  0
   15.5721   21.1188   -0.5702 C   0  0  0  0  0  0  0  0  0  0  0  0
   15.9298   20.0376    0.2008 C   0  0  0  0  0  0  0  0  0  0  0  0
   15.0135   19.4895    1.0808 C   0  0  0  0  0  0  0  0  0  0  0  0
   13.7347   20.0563    1.1627 C   0  0  0  0  0  0  0  0  0  0  0  0
   13.4163   21.1273    0.3828 C   0  0  0  0  0  0  0  0  0  0  0  0
   12.0389   21.4837    0.6573 N   0  0  0  0  0  0  0  0  0  0  0  0
   11.3973   22.6478    0.6833 C   0  0  0  0  0  0  0  0  0  0  0  0
   13.9373   24.7882   -2.5237 N   0  0  0  0  0  0  0  0  0  0  0  0
   15.1142   24.6484   -3.3283 C   0  0  0  0  0  0  0  0  0  0  0  0
   15.6390   26.0308   -3.6364 C   0  0  0  0  0  0  0  0  0  0  0  0
   14.6995   26.8630   -4.3115 N   0  0  0  0  0  0  0  0  0  0  0  0
   15.0799   27.2108   -5.6542 C   0  0  0  0  0  0  0  0  0  0  0  0
   13.3304   26.4970   -4.1653 C   0  0  0  0  0  0  0  0  0  0  0  0
   13.0150   25.8396   -2.8452 C   0  0  0  0  0  0  0  0  0  0  0  0
   10.0043   22.5050    0.9983 C   0  0  0  0  0  0  0  0  0  0  0  0
    9.0094   22.9918    0.2167 C   0  0  0  0  0  0  0  0  0  0  0  0
    7.6884   22.8496    0.6142 C   0  0  0  0  0  0  0  0  0  0  0  0
    7.3105   22.2276    1.7828 C   0  0  0  0  0  0  0  0  0  0  0  0
    8.3657   21.7411    2.5545 C   0  0  0  0  0  0  0  0  0  0  0  0
    9.6590   21.8710    2.1835 C   0  0  0  0  0  0  0  0  0  0  0  0
  1  2  2  0  0  0
  2  3  1  0  0  0
  3  4  2  0  0  0
  4  5  1  0  0  0
  5  6  2  0  0  0
  5  7  1  0  0  0
  7 17  1  0  0  0
 17 18  1  0  0  0
 18 19  1  0  0  0
 19 20  1  0  0  0
 20 21  1  0  0  0
 20 22  1  0  0  0
 22 23  1  0  0  0
  7  8  2  0  0  0
  8  9  1  0  0  0
  9 10  2  0  0  0
 10 11  1  0  0  0
 11 12  2  0  0  0
 12 13  1  0  0  0
 13 14  2  0  0  0
 14 15  1  0  0  0
 15 16  2  0  0  0
 16 24  1  0  0  0
 24 25  2  0  0  0
 25 26  1  0  0  0
 26 27  2  0  0  0
 27 28  1  0  0  0
 28 29  2  0  0  0
  6  1  1  0  0  0
 23 17  1  0  0  0
 14  9  1  0  0  0
 29 24  1  0  0  0
 16  4  1  0  0  0
M  END
> <minimizedAffinity>
1.24107

> <CNNscore>
0.4250683486

> <CNNaffinity>
7.1698670387

> <CNN_VS>
3.0476834774

> <CNNaffinity_variance>
0.7812665701

$$$$
[H]c1c([H])c([H])c(C2=Nc3c([H])c([H])c([H])c([H])c3N=C(N3C([H])([H])C([H])([H])N(C([H])([H])[H])C([H])([H])C3([H])[H])c3c([H])c([H])c([H])c([H])c32)c([H])c1[H]


 29 33  0  0  0  0  0  0  0  0999 V2000
   11.5923   25.7908   -2.1561 C   0  0  0  0  0  0  0  0  0  0  0  0
   11.0692   24.9933   -1.1666 C   0  0  0  0  0  0  0  0  0  0  0  0
   11.7896   23.9905   -0.5702 C   0  0  0  0  0  0  0  0  0  0  0  0
   13.0803   23.7947   -0.9990 C   0  0  0  0  0  0  0  0  0  0  0  0
   13.6120   24.6081   -2.0010 C   0  0  0  0  0  0  0  0  0  0  0  0
   12.8895   25.6104   -2.5953 C   0  0  0  0  0  0  0  0  0  0  0  0
   14.9718   24.6645   -2.5587 C   0  0  0  0  0  0  0  0  0  0  0  0
   16.1343   24.4337   -2.0218 N   0  0  0  0  0  0  0  0  0  0  0  0
   16.5200   24.0409   -0.6941 C   0  0  0  0  0  0  0  0  0  0  0  0
   17.7257   24.6304   -0.4215 C   0  0  0  0  0  0  0  0  0  0  0  0
   18.3866   24.4646    0.7732 C   0  0  0  0  0  0  0  0  0  0  0  0
   17.8297   23.6716    1.7608 C   0  0  0  0  0  0  0  0  0  0  0  0
   16.5966   23.0536    1.5141 C   0  0  0  0  0  0  0  0  0  0  0  0
   15.9713   23.2409    0.3181 C   0  0  0  0  0  0  0  0  0  0  0  0
   14.7423   22.4734    0.3336 N   0  0  0  0  0  0  0  0  0  0  0  0
   13.5440   22.6802   -0.2037 C   0  0  0  0  0  0  0  0  0  0  0  0
   14.9625   25.0453   -3.9066 N   0  0  0  0  0  0  0  0  0  0  0  0
   15.1148   24.0670   -4.9419 C   0  0  0  0  0  0  0  0  0  0  0  0
   16.0427   24.6339   -5.9903 C   0  0  0  0  0  0  0  0  0  0  0  0
   15.5854   25.8581   -6.5586 N   0  0  0  0  0  0  0  0  0  0  0  0
   15.2440   25.7682   -7.9529 C   0  0  0  0  0  0  0  0  0  0  0  0
   14.6543   26.5964   -5.7727 C   0  0  0  0  0  0  0  0  0  0  0  0
   14.8428   26.4240   -4.2864 C   0  0  0  0  0  0  0  0  0  0  0  0
   12.6218   21.6160    0.0742 C   0  0  0  0  0  0  0  0  0  0  0  0
   11.8787   21.0049   -0.8809 C   0  0  0  0  0  0  0  0  0  0  0  0
   10.9778   20.0130   -0.5236 C   0  0  0  0  0  0  0  0  0  0  0  0
   10.7843   19.5953    0.7739 C   0  0  0  0  0  0  0  0  0  0  0  0
   11.5702   20.2495    1.7226 C   0  0  0  0  0  0  0  0  0  0  0  0
   12.4528   21.2188    1.3931 C   0  0  0  0  0  0  0  0  0  0  0  0
  1  2  2  0  0  0
  2  3  1  0  0  0
  3  4  2  0  0  0
  4  5  1  0  0  0
  5  6  2  0  0  0
  5  7  1  0  0  0
  7 17  1  0  0  0
 17 18  1  0  0  0
 18 19  1  0  0  0
 19 20  1  0  0  0
 20 21  1  0  0  0
 20 22  1  0  0  0
 22 23  1  0  0  0
  7  8  2  0  0  0
  8  9  1  0  0  0
  9 10  2  0  0  0
 10 11  1  0  0  0
 11 12  2  0  0  0
 12 13  1  0  0  0
 13 14  2  0  0  0
 14 15  1  0  0  0
 15 16  2  0  0  0
 16 24  1  0  0  0
 24 25  2  0  0  0
 25 26  1  0  0  0
 26 27  2  0  0  0
 27 28  1  0  0  0
 28 29  2  0  0  0
  6  1  1  0  0  0
 23 17  1  0  0  0
 14  9  1  0  0  0
 29 24  1  0  0  0
 16  4  1  0  0  0
M  END
> <minimizedAffinity>
1.39274

> <CNNscore>
0.4023272693

> <CNNaffinity>
7.3818635941

> <CNN_VS>
2.9699249268

> <CNNaffinity_variance>
0.7376177907

$$$$
[H]/C(C(=O)N1C([H])([H])C([H])([H])N(c2c([H])c([H])c([H])c([H])c2[H])C([H])([H])[C@@]1([H])C([H])([H])[H])=C(/[H])c1c([H])c([H])c([H])c([H])c1F


 24 26  0  0  0  0  0  0  0  0999 V2000
   12.2605   23.2733   -2.2062 C   0  0  0  0  0  0  0  0  0  0  0  0
   12.5261   24.6755   -2.5600 C   0  0  0  0  0  0  0  0  0  0  0  0
   13.7559   24.8845   -3.4610 C   0  0  0  0  0  0  0  0  0  0  0  0
   13.6364   26.2503   -3.9344 N   0  0  0  0  0  0  0  0  0  0  0  0
   12.6825   27.1752   -3.4343 C   0  0  0  0  0  0  0  0  0  0  0  0
   12.3155   27.0104   -1.9827 C   0  0  0  0  0  0  0  0  0  0  0  0
   12.6979   25.6399   -1.5350 N   0  0  0  0  0  0  0  0  0  0  0  0
   13.1927   25.5316   -0.2492 C   0  0  0  0  0  0  0  0  0  0  0  0
   13.1978   26.5692    0.5327 O   0  0  0  0  0  0  0  0  0  0  0  0
   14.5767   26.6267   -4.9644 C   0  0  0  0  0  0  0  0  0  0  0  0
   15.4073   27.7099   -4.8173 C   0  0  0  0  0  0  0  0  0  0  0  0
   16.3235   28.0671   -5.8078 C   0  0  0  0  0  0  0  0  0  0  0  0
   16.4247   27.3395   -6.9737 C   0  0  0  0  0  0  0  0  0  0  0  0
   15.5943   26.2543   -7.1245 C   0  0  0  0  0  0  0  0  0  0  0  0
   14.6918   25.9029   -6.1477 C   0  0  0  0  0  0  0  0  0  0  0  0
   13.7537   24.3410    0.4071 C   0  0  0  0  0  0  0  0  0  0  0  0
   14.4955   23.4714   -0.1851 C   0  0  0  0  0  0  0  0  0  0  0  0
   15.0832   22.2794    0.3869 C   0  0  0  0  0  0  0  0  0  0  0  0
   14.4203   21.0417    0.2000 C   0  0  0  0  0  0  0  0  0  0  0  0
   14.8712   19.8628    0.6868 C   0  0  0  0  0  0  0  0  0  0  0  0
   16.0369   19.8223    1.4101 C   0  0  0  0  0  0  0  0  0  0  0  0
   16.7233   20.9797    1.6256 C   0  0  0  0  0  0  0  0  0  0  0  0
   16.2392   22.1994    1.1110 C   0  0  0  0  0  0  0  0  0  0  0  0
   16.9761   23.3041    1.3662 F   0  0  0  0  0  0  0  0  0  0  0  0
  1  2  1  0  0  0
  2  3  1  0  0  0
  3  4  1  0  0  0
  4  5  1  0  0  0
  5  6  1  0  0  0
  6  7  1  0  0  0
  7  8  1  0  0  0
  8  9  2  0  0  0
  8 16  1  0  0  0
 16 17  2  0  0  0
 17 18  1  0  0  0
 18 19  2  0  0  0
 19 20  1  0  0  0
 20 21  2  0  0  0
 21 22  1  0  0  0
 22 23  2  0  0  0
 23 24  1  0  0  0
  4 10  1  0  0  0
 10 11  2  0  0  0
 11 12  1  0  0  0
 12 13  2  0  0  0
 13 14  1  0  0  0
 14 15  2  0  0  0
  7  2  1  0  0  0
 23 18  1  0  0  0
 15 10  1  0  0  0
M  END
> <minimizedAffinity>
4.95796

> <CNNscore>
0.6001063585

> <CNNaffinity>
6.6533532143

> <CNN_VS>
3.9927196503

> <CNNaffinity_variance>
0.8576676250

$$$$
[H]/C(C(=O)N1C([H])([H])C([H])([H])N(c2c([H])c([H])c([H])c([H])c2[H])C([H])([H])[C@@]1([H])C([H])([H])[H])=C(/[H])c1c([H])c([H])c([H])c([H])c1F


 24 26  0  0  0  0  0  0  0  0999 V2000
   14.1024   21.9025   -2.6128 C   0  0  0  0  0  0  0  0  0  0  0  0
   13.4654   21.7259   -1.2995 C   0  0  0  0  0  0  0  0  0  0  0  0
   11.9279   21.7852   -1.3228 C   0  0  0  0  0  0  0  0  0  0  0  0
   11.5212   21.2760   -0.0270 N   0  0  0  0  0  0  0  0  0  0  0  0
   12.4256   21.0229    1.0376 C   0  0  0  0  0  0  0  0  0  0  0  0
   13.6264   21.9303    1.1009 C   0  0  0  0  0  0  0  0  0  0  0  0
   13.8144   22.5843   -0.2264 N   0  0  0  0  0  0  0  0  0  0  0  0
   14.2373   23.8999   -0.2063 C   0  0  0  0  0  0  0  0  0  0  0  0
   14.5550   24.4612    0.9216 O   0  0  0  0  0  0  0  0  0  0  0  0
   10.1031   21.0455    0.1236 C   0  0  0  0  0  0  0  0  0  0  0  0
    9.4068   21.5333    1.2018 C   0  0  0  0  0  0  0  0  0  0  0  0
    8.0347   21.3199    1.3418 C   0  0  0  0  0  0  0  0  0  0  0  0
    7.3292   20.6077    0.3962 C   0  0  0  0  0  0  0  0  0  0  0  0
    8.0232   20.1176   -0.6846 C   0  0  0  0  0  0  0  0  0  0  0  0
    9.3755   20.3285   -0.8218 C   0  0  0  0  0  0  0  0  0  0  0  0
   14.3877   24.8194   -1.3441 C   0  0  0  0  0  0  0  0  0  0  0  0
   15.4237   24.8617   -2.1072 C   0  0  0  0  0  0  0  0  0  0  0  0
   15.6478   25.7324   -3.2406 C   0  0  0  0  0  0  0  0  0  0  0  0
   14.9337   25.4818   -4.4379 C   0  0  0  0  0  0  0  0  0  0  0  0
   15.0594   26.2247   -5.5615 C   0  0  0  0  0  0  0  0  0  0  0  0
   15.9204   27.2933   -5.5823 C   0  0  0  0  0  0  0  0  0  0  0  0
   16.6376   27.5880   -4.4616 C   0  0  0  0  0  0  0  0  0  0  0  0
   16.4943   26.8034   -3.2993 C   0  0  0  0  0  0  0  0  0  0  0  0
   17.2392   27.1588   -2.2282 F   0  0  0  0  0  0  0  0  0  0  0  0
  1  2  1  0  0  0
  2  3  1  0  0  0
  3  4  1  0  0  0
  4  5  1  0  0  0
  5  6  1  0  0  0
  6  7  1  0  0  0
  7  8  1  0  0  0
  8  9  2  0  0  0
  8 16  1  0  0  0
 16 17  2  0  0  0
 17 18  1  0  0  0
 18 19  2  0  0  0
 19 20  1  0  0  0
 20 21  2  0  0  0
 21 22  1  0  0  0
 22 23  2  0  0  0
 23 24  1  0  0  0
  4 10  1  0  0  0
 10 11  2  0  0  0
 11 12  1  0  0  0
 12 13  2  0  0  0
 13 14  1  0  0  0
 14 15  2  0  0  0
  7  2  1  0  0  0
 23 18  1  0  0  0
 15 10  1  0  0  0
M  END
> <minimizedAffinity>
-8.33484

> <CNNscore>
0.5723529458

> <CNNaffinity>
6.8320670128

> <CNN_VS>
3.9103536606

> <CNNaffinity_variance>
0.0814891607

$$$$
[H]/C(C(=O)N1C([H])([H])C([H])([H])N(c2c([H])c([H])c([H])c([H])c2[H])C([H])([H])[C@@]1([H])C([H])([H])[H])=C(/[H])c1c([H])c([H])c([H])c([H])c1F


 24 26  0  0  0  0  0  0  0  0999 V2000
   11.1853   23.9571   -1.6164 C   0  0  0  0  0  0  0  0  0  0  0  0
   11.2590   23.3958   -0.2595 C   0  0  0  0  0  0  0  0  0  0  0  0
   10.6592   24.2942    0.8364 C   0  0  0  0  0  0  0  0  0  0  0  0
   10.5461   23.4318    1.9971 N   0  0  0  0  0  0  0  0  0  0  0  0
   11.1065   22.1292    2.0665 C   0  0  0  0  0  0  0  0  0  0  0  0
   12.3836   21.9284    1.2934 C   0  0  0  0  0  0  0  0  0  0  0  0
   12.5142   23.0117    0.2765 N   0  0  0  0  0  0  0  0  0  0  0  0
   13.7903   23.4945    0.0566 C   0  0  0  0  0  0  0  0  0  0  0  0
   14.8060   22.9291    0.6369 O   0  0  0  0  0  0  0  0  0  0  0  0
    9.8196   23.9954    3.1112 C   0  0  0  0  0  0  0  0  0  0  0  0
    9.4156   25.3076    3.1150 C   0  0  0  0  0  0  0  0  0  0  0  0
    8.7041   25.8492    4.1866 C   0  0  0  0  0  0  0  0  0  0  0  0
    8.3821   25.0795    5.2834 C   0  0  0  0  0  0  0  0  0  0  0  0
    8.7853   23.7653    5.2832 C   0  0  0  0  0  0  0  0  0  0  0  0
    9.4863   23.2323    4.2265 C   0  0  0  0  0  0  0  0  0  0  0  0
   14.1957   24.6282   -0.7880 C   0  0  0  0  0  0  0  0  0  0  0  0
   14.9622   24.5249   -1.8171 C   0  0  0  0  0  0  0  0  0  0  0  0
   15.4056   25.5859   -2.6951 C   0  0  0  0  0  0  0  0  0  0  0  0
   16.6643   26.1867   -2.4483 C   0  0  0  0  0  0  0  0  0  0  0  0
   17.1840   27.1858   -3.1980 C   0  0  0  0  0  0  0  0  0  0  0  0
   16.4799   27.6736   -4.2704 C   0  0  0  0  0  0  0  0  0  0  0  0
   15.2612   27.1379   -4.5617 C   0  0  0  0  0  0  0  0  0  0  0  0
   14.7347   26.0973   -3.7700 C   0  0  0  0  0  0  0  0  0  0  0  0
   13.5205   25.6177   -4.1225 F   0  0  0  0  0  0  0  0  0  0  0  0
  1  2  1  0  0  0
  2  3  1  0  0  0
  3  4  1  0  0  0
  4  5  1  0  0  0
  5  6  1  0  0  0
  6  7  1  0  0  0
  7  8  1  0  0  0
  8  9  2  0  0  0
  8 16  1  0  0  0
 16 17  2  0  0  0
 17 18  1  0  0  0
 18 19  2  0  0  0
 19 20  1  0  0  0
 20 21  2  0  0  0
 21 22  1  0  0  0
 22 23  2  0  0  0
 23 24  1  0  0  0
  4 10  1  0  0  0
 10 11  2  0  0  0
 11 12  1  0  0  0
 12 13  2  0  0  0
 13 14  1  0  0  0
 14 15  2  0  0  0
  7  2  1  0  0  0
 23 18  1  0  0  0
 15 10  1  0  0  0
M  END
> <minimizedAffinity>
-9.42462

> <CNNscore>
0.4766062796

> <CNNaffinity>
6.4369087219

> <CNN_VS>
3.0678710938

> <CNNaffinity_variance>
0.2601064146

$$$$
[H]/C(C(=O)N1C([H])([H])C([H])([H])N(c2c([H])c([H])c([H])c([H])c2[H])C([H])([H])[C@@]1([H])C([H])([H])[H])=C(/[H])c1c([H])c([H])c([H])c([H])c1F


 24 26  0  0  0  0  0  0  0  0999 V2000
   14.1730   21.9436   -2.6334 C   0  0  0  0  0  0  0  0  0  0  0  0
   13.5303   21.7025   -1.3332 C   0  0  0  0  0  0  0  0  0  0  0  0
   11.9970   21.8323   -1.3453 C   0  0  0  0  0  0  0  0  0  0  0  0
   11.5694   21.2508   -0.0872 N   0  0  0  0  0  0  0  0  0  0  0  0
   12.4628   20.8820    0.9526 C   0  0  0  0  0  0  0  0  0  0  0  0
   13.7034   21.7277    1.0749 C   0  0  0  0  0  0  0  0  0  0  0  0
   13.9190   22.4656   -0.2032 N   0  0  0  0  0  0  0  0  0  0  0  0
   14.4009   23.7560   -0.0914 C   0  0  0  0  0  0  0  0  0  0  0  0
   14.7451   24.2207    1.0721 O   0  0  0  0  0  0  0  0  0  0  0  0
   10.1425   21.0740    0.0529 C   0  0  0  0  0  0  0  0  0  0  0  0
    9.4170   20.3424   -0.8545 C   0  0  0  0  0  0  0  0  0  0  0  0
    8.0402   20.1625   -0.7132 C   0  0  0  0  0  0  0  0  0  0  0  0
    7.3595   20.7173    0.3488 C   0  0  0  0  0  0  0  0  0  0  0  0
    8.0826   21.4507    1.2592 C   0  0  0  0  0  0  0  0  0  0  0  0
    9.4396   21.6274    1.1192 C   0  0  0  0  0  0  0  0  0  0  0  0
   14.5912   24.7467   -1.1615 C   0  0  0  0  0  0  0  0  0  0  0  0
   15.6970   24.9202   -1.7975 C   0  0  0  0  0  0  0  0  0  0  0  0
   15.9643   25.8685   -2.8570 C   0  0  0  0  0  0  0  0  0  0  0  0
   16.9667   26.8479   -2.6514 C   0  0  0  0  0  0  0  0  0  0  0  0
   17.3044   27.7859   -3.5658 C   0  0  0  0  0  0  0  0  0  0  0  0
   16.6602   27.8237   -4.7772 C   0  0  0  0  0  0  0  0  0  0  0  0
   15.6851   26.9080   -5.0376 C   0  0  0  0  0  0  0  0  0  0  0  0
   15.3458   25.9373   -4.0735 C   0  0  0  0  0  0  0  0  0  0  0  0
   14.3689   25.0634   -4.4058 F   0  0  0  0  0  0  0  0  0  0  0  0
  1  2  1  0  0  0
  2  3  1  0  0  0
  3  4  1  0  0  0
  4  5  1  0  0  0
  5  6  1  0  0  0
  6  7  1  0  0  0
  7  8  1  0  0  0
  8  9  2  0  0  0
  8 16  1  0  0  0
 16 17  2  0  0  0
 17 18  1  0  0  0
 18 19  2  0  0  0
 19 20  1  0  0  0
 20 21  2  0  0  0
 21 22  1  0  0  0
 22 23  2  0  0  0
 23 24  1  0  0  0
  4 10  1  0  0  0
 10 11  2  0  0  0
 11 12  1  0  0  0
 12 13  2  0  0  0
 13 14  1  0  0  0
 14 15  2  0  0  0
  7  2  1  0  0  0
 23 18  1  0  0  0
 15 10  1  0  0  0
M  END
> <minimizedAffinity>
-8.41563

> <CNNscore>
0.4551926851

> <CNNaffinity>
6.7406692505

> <CNN_VS>
3.0683033466

> <CNNaffinity_variance>
0.0341810882

$$$$
[H]/C(C(=O)N1C([H])([H])C([H])([H])N(c2c([H])c([H])c([H])c([H])c2[H])C([H])([H])[C@@]1([H])C([H])([H])[H])=C(/[H])c1c([H])c([H])c([H])c([H])c1F


 24 26  0  0  0  0  0  0  0  0999 V2000
   14.4615   21.1300   -2.2494 C   0  0  0  0  0  0  0  0  0  0  0  0
   13.6697   21.2207   -1.0138 C   0  0  0  0  0  0  0  0  0  0  0  0
   12.1556   21.3813   -1.2364 C   0  0  0  0  0  0  0  0  0  0  0  0
   11.5643   21.1261    0.0632 N   0  0  0  0  0  0  0  0  0  0  0  0
   12.3192   20.9933    1.2582 C   0  0  0  0  0  0  0  0  0  0  0  0
   13.5811   21.8133    1.3250 C   0  0  0  0  0  0  0  0  0  0  0  0
   13.9722   22.2208   -0.0554 N   0  0  0  0  0  0  0  0  0  0  0  0
   14.5049   23.4887   -0.1918 C   0  0  0  0  0  0  0  0  0  0  0  0
   14.7441   24.2080    0.8634 O   0  0  0  0  0  0  0  0  0  0  0  0
   10.1235   21.0226    0.0716 C   0  0  0  0  0  0  0  0  0  0  0  0
    9.4477   20.3280   -0.9010 C   0  0  0  0  0  0  0  0  0  0  0  0
    8.0564   20.2188   -0.8868 C   0  0  0  0  0  0  0  0  0  0  0  0
    7.3105   20.8088    0.1104 C   0  0  0  0  0  0  0  0  0  0  0  0
    7.9837   21.5053    1.0859 C   0  0  0  0  0  0  0  0  0  0  0  0
    9.3550   21.6123    1.0711 C   0  0  0  0  0  0  0  0  0  0  0  0
   14.8612   24.1916   -1.4335 C   0  0  0  0  0  0  0  0  0  0  0  0
   14.0054   24.5987   -2.3047 C   0  0  0  0  0  0  0  0  0  0  0  0
   14.2735   25.2938   -3.5449 C   0  0  0  0  0  0  0  0  0  0  0  0
   15.1875   24.7164   -4.4601 C   0  0  0  0  0  0  0  0  0  0  0  0
   15.5184   25.2717   -5.6485 C   0  0  0  0  0  0  0  0  0  0  0  0
   14.9562   26.4656   -6.0258 C   0  0  0  0  0  0  0  0  0  0  0  0
   14.0683   27.0733   -5.1896 C   0  0  0  0  0  0  0  0  0  0  0  0
   13.7347   26.4806   -3.9549 C   0  0  0  0  0  0  0  0  0  0  0  0
   12.8462   27.1436   -3.1807 F   0  0  0  0  0  0  0  0  0  0  0  0
  1  2  1  0  0  0
  2  3  1  0  0  0
  3  4  1  0  0  0
  4  5  1  0  0  0
  5  6  1  0  0  0
  6  7  1  0  0  0
  7  8  1  0  0  0
  8  9  2  0  0  0
  8 16  1  0  0  0
 16 17  2  0  0  0
 17 18  1  0  0  0
 18 19  2  0  0  0
 19 20  1  0  0  0
 20 21  2  0  0  0
 21 22  1  0  0  0
 22 23  2  0  0  0
 23 24  1  0  0  0
  4 10  1  0  0  0
 10 11  2  0  0  0
 11 12  1  0  0  0
 12 13  2  0  0  0
 13 14  1  0  0  0
 14 15  2  0  0  0
  7  2  1  0  0  0
 23 18  1  0  0  0
 15 10  1  0  0  0
M  END
> <minimizedAffinity>
-8.30949

> <CNNscore>
0.3464553654

> <CNNaffinity>
6.5351166725

> <CNN_VS>
2.2641263008

> <CNNaffinity_variance>
0.0400117710

$$$$
[H]/C(C(=O)N1C([H])([H])C([H])([H])N(c2c([H])c([H])c([H])c([H])c2[H])C([H])([H])[C@@]1([H])C([H])([H])[H])=C(/[H])c1c([H])c([H])c([H])c([H])c1F


 24 26  0  0  0  0  0  0  0  0999 V2000
   14.4609   21.9087   -0.7433 C   0  0  0  0  0  0  0  0  0  0  0  0
   13.1443   22.0784   -0.1113 C   0  0  0  0  0  0  0  0  0  0  0  0
   11.9597   21.5889   -0.9629 C   0  0  0  0  0  0  0  0  0  0  0  0
   10.8382   21.5500   -0.0439 N   0  0  0  0  0  0  0  0  0  0  0  0
   10.8799   22.0845    1.2707 C   0  0  0  0  0  0  0  0  0  0  0  0
   11.7633   23.2906    1.4549 C   0  0  0  0  0  0  0  0  0  0  0  0
   12.7320   23.3636    0.3231 N   0  0  0  0  0  0  0  0  0  0  0  0
   13.0305   24.6285   -0.1468 C   0  0  0  0  0  0  0  0  0  0  0  0
   12.5638   25.6745    0.4665 O   0  0  0  0  0  0  0  0  0  0  0  0
    9.6419   20.9282   -0.5625 C   0  0  0  0  0  0  0  0  0  0  0  0
    9.4667   20.7194   -1.9082 C   0  0  0  0  0  0  0  0  0  0  0  0
    8.3157   20.1087   -2.4084 C   0  0  0  0  0  0  0  0  0  0  0  0
    7.3106   19.6929   -1.5622 C   0  0  0  0  0  0  0  0  0  0  0  0
    7.4826   19.9006   -0.2142 C   0  0  0  0  0  0  0  0  0  0  0  0
    8.6174   20.5024    0.2779 C   0  0  0  0  0  0  0  0  0  0  0  0
   13.8476   24.9903   -1.3149 C   0  0  0  0  0  0  0  0  0  0  0  0
   13.3868   25.1059   -2.5114 C   0  0  0  0  0  0  0  0  0  0  0  0
   14.1208   25.4561   -3.7079 C   0  0  0  0  0  0  0  0  0  0  0  0
   13.8500   26.7005   -4.3279 C   0  0  0  0  0  0  0  0  0  0  0  0
   14.4700   27.1364   -5.4485 C   0  0  0  0  0  0  0  0  0  0  0  0
   15.4243   26.3549   -6.0504 C   0  0  0  0  0  0  0  0  0  0  0  0
   15.7315   25.1453   -5.5031 C   0  0  0  0  0  0  0  0  0  0  0  0
   15.0758   24.7065   -4.3350 C   0  0  0  0  0  0  0  0  0  0  0  0
   15.4354   23.4958   -3.8522 F   0  0  0  0  0  0  0  0  0  0  0  0
  1  2  1  0  0  0
  2  3  1  0  0  0
  3  4  1  0  0  0
  4  5  1  0  0  0
  5  6  1  0  0  0
  6  7  1  0  0  0
  7  8  1  0  0  0
  8  9  2  0  0  0
  8 16  1  0  0  0
 16 17  2  0  0  0
 17 18  1  0  0  0
 18 19  2  0  0  0
 19 20  1  0  0  0
 20 21  2  0  0  0
 21 22  1  0  0  0
 22 23  2  0  0  0
 23 24  1  0  0  0
  4 10  1  0  0  0
 10 11  2  0  0  0
 11 12  1  0  0  0
 12 13  2  0  0  0
 13 14  1  0  0  0
 14 15  2  0  0  0
  7  2  1  0  0  0
 23 18  1  0  0  0
 15 10  1  0  0  0
M  END
> <minimizedAffinity>
-7.95271

> <CNNscore>
0.3227016926

> <CNNaffinity>
6.3945598602

> <CNN_VS>
2.0635352135

> <CNNaffinity_variance>
0.1072548777

$$$$
[H]/C(C(=O)N1C([H])([H])C([H])([H])N(c2c([H])c([H])c([H])c([H])c2[H])C([H])([H])[C@@]1([H])C([H])([H])[H])=C(/[H])c1c([H])c([H])c([H])c([H])c1F


 24 26  0  0  0  0  0  0  0  0999 V2000
   10.6613   21.6906   -1.3196 C   0  0  0  0  0  0  0  0  0  0  0  0
   10.9441   21.7383    0.1225 C   0  0  0  0  0  0  0  0  0  0  0  0
   10.3739   22.9719    0.8443 C   0  0  0  0  0  0  0  0  0  0  0  0
   10.4835   22.6548    2.2554 N   0  0  0  0  0  0  0  0  0  0  0  0
   11.1865   21.5275    2.7557 C   0  0  0  0  0  0  0  0  0  0  0  0
   12.3854   21.0985    1.9508 C   0  0  0  0  0  0  0  0  0  0  0  0
   12.2849   21.6766    0.5795 N   0  0  0  0  0  0  0  0  0  0  0  0
   13.4689   22.0966    0.0038 C   0  0  0  0  0  0  0  0  0  0  0  0
   14.5977   21.8747    0.6078 O   0  0  0  0  0  0  0  0  0  0  0  0
    9.8266   23.5839    3.1454 C   0  0  0  0  0  0  0  0  0  0  0  0
    9.4028   23.2038    4.3948 C   0  0  0  0  0  0  0  0  0  0  0  0
    8.7779   24.1043    5.2589 C   0  0  0  0  0  0  0  0  0  0  0  0
    8.5644   25.4130    4.8836 C   0  0  0  0  0  0  0  0  0  0  0  0
    8.9873   25.7970    3.6332 C   0  0  0  0  0  0  0  0  0  0  0  0
    9.6031   24.9088    2.7823 C   0  0  0  0  0  0  0  0  0  0  0  0
   13.6534   22.8061   -1.2711 C   0  0  0  0  0  0  0  0  0  0  0  0
   13.8353   24.0766   -1.3715 C   0  0  0  0  0  0  0  0  0  0  0  0
   14.0234   24.8465   -2.5819 C   0  0  0  0  0  0  0  0  0  0  0  0
   13.1226   25.9042   -2.8578 C   0  0  0  0  0  0  0  0  0  0  0  0
   13.1962   26.6916   -3.9554 C   0  0  0  0  0  0  0  0  0  0  0  0
   14.1889   26.4847   -4.8804 C   0  0  0  0  0  0  0  0  0  0  0  0
   15.0885   25.4822   -4.6735 C   0  0  0  0  0  0  0  0  0  0  0  0
   14.9972   24.6712   -3.5243 C   0  0  0  0  0  0  0  0  0  0  0  0
   15.9263   23.6981   -3.3894 F   0  0  0  0  0  0  0  0  0  0  0  0
  1  2  1  0  0  0
  2  3  1  0  0  0
  3  4  1  0  0  0
  4  5  1  0  0  0
  5  6  1  0  0  0
  6  7  1  0  0  0
  7  8  1  0  0  0
  8  9  2  0  0  0
  8 16  1  0  0  0
 16 17  2  0  0  0
 17 18  1  0  0  0
 18 19  2  0  0  0
 19 20  1  0  0  0
 20 21  2  0  0  0
 21 22  1  0  0  0
 22 23  2  0  0  0
 23 24  1  0  0  0
  4 10  1  0  0  0
 10 11  2  0  0  0
 11 12  1  0  0  0
 12 13  2  0  0  0
 13 14  1  0  0  0
 14 15  2  0  0  0
  7  2  1  0  0  0
 23 18  1  0  0  0
 15 10  1  0  0  0
M  END
> <minimizedAffinity>
-9.92090

> <CNNscore>
0.2900802791

> <CNNaffinity>
6.1669759750

> <CNN_VS>
1.7889181376

> <CNNaffinity_variance>
0.1982075721

$$$$
[H]/C(C(=O)N1C([H])([H])C([H])([H])N(c2c([H])c([H])c([H])c([H])c2[H])C([H])([H])[C@@]1([H])C([H])([H])[H])=C(/[H])c1c([H])c([H])c([H])c([H])c1F


 24 26  0  0  0  0  0  0  0  0999 V2000
   10.9699   21.4464   -1.3119 C   0  0  0  0  0  0  0  0  0  0  0  0
   11.1469   21.5188    0.1459 C   0  0  0  0  0  0  0  0  0  0  0  0
   10.5936   22.8006    0.7931 C   0  0  0  0  0  0  0  0  0  0  0  0
   10.5803   22.5173    2.2155 N   0  0  0  0  0  0  0  0  0  0  0  0
   11.1809   21.3685    2.7942 C   0  0  0  0  0  0  0  0  0  0  0  0
   12.4108   20.8541    2.0927 C   0  0  0  0  0  0  0  0  0  0  0  0
   12.4445   21.3985    0.7045 N   0  0  0  0  0  0  0  0  0  0  0  0
   13.6895   21.7387    0.2103 C   0  0  0  0  0  0  0  0  0  0  0  0
   14.7562   21.4738    0.9031 O   0  0  0  0  0  0  0  0  0  0  0  0
    9.9114   23.5044    3.0310 C   0  0  0  0  0  0  0  0  0  0  0  0
    9.4355   23.1991    4.2822 C   0  0  0  0  0  0  0  0  0  0  0  0
    8.7990   24.1556    5.0745 C   0  0  0  0  0  0  0  0  0  0  0  0
    8.6259   25.4463    4.6237 C   0  0  0  0  0  0  0  0  0  0  0  0
    9.1010   25.7555    3.3713 C   0  0  0  0  0  0  0  0  0  0  0  0
    9.7283   24.8122    2.5911 C   0  0  0  0  0  0  0  0  0  0  0  0
   14.0070   22.4018   -1.0634 C   0  0  0  0  0  0  0  0  0  0  0  0
   13.8719   23.6645   -1.2743 C   0  0  0  0  0  0  0  0  0  0  0  0
   14.1605   24.3900   -2.4924 C   0  0  0  0  0  0  0  0  0  0  0  0
   15.1511   23.8784   -3.3659 C   0  0  0  0  0  0  0  0  0  0  0  0
   15.5078   24.4674   -4.5305 C   0  0  0  0  0  0  0  0  0  0  0  0
   14.8962   25.6315   -4.9237 C   0  0  0  0  0  0  0  0  0  0  0  0
   13.9337   26.1758   -4.1273 C   0  0  0  0  0  0  0  0  0  0  0  0
   13.5742   25.5489   -2.9171 C   0  0  0  0  0  0  0  0  0  0  0  0
   12.6110   26.1492   -2.1821 F   0  0  0  0  0  0  0  0  0  0  0  0
  1  2  1  0  0  0
  2  3  1  0  0  0
  3  4  1  0  0  0
  4  5  1  0  0  0
  5  6  1  0  0  0
  6  7  1  0  0  0
  7  8  1  0  0  0
  8  9  2  0  0  0
  8 16  1  0  0  0
 16 17  2  0  0  0
 17 18  1  0  0  0
 18 19  2  0  0  0
 19 20  1  0  0  0
 20 21  2  0  0  0
 21 22  1  0  0  0
 22 23  2  0  0  0
 23 24  1  0  0  0
  4 10  1  0  0  0
 10 11  2  0  0  0
 11 12  1  0  0  0
 12 13  2  0  0  0
 13 14  1  0  0  0
 14 15  2  0  0  0
  7  2  1  0  0  0
 23 18  1  0  0  0
 15 10  1  0  0  0
M  END
> <minimizedAffinity>
-9.91315

> <CNNscore>
0.2682934701

> <CNNaffinity>
6.1555919647

> <CNN_VS>
1.6515051126

> <CNNaffinity_variance>
0.1804052889

$$$$
[H]/C(C(=O)N1C([H])([H])C([H])([H])N(c2c([H])c([H])c([H])c([H])c2[H])C([H])([H])[C@@]1([H])C([H])([H])[H])=C(/[H])c1c([H])c([H])c([H])c([H])c1F


 24 26  0  0  0  0  0  0  0  0999 V2000
   11.9102   25.1677    0.6542 C   0  0  0  0  0  0  0  0  0  0  0  0
   13.2111   24.9371    0.0091 C   0  0  0  0  0  0  0  0  0  0  0  0
   13.1786   24.9859   -1.5286 C   0  0  0  0  0  0  0  0  0  0  0  0
   14.5724   25.0595   -1.9231 N   0  0  0  0  0  0  0  0  0  0  0  0
   15.6551   24.8864   -1.0213 C   0  0  0  0  0  0  0  0  0  0  0  0
   15.4054   23.9359    0.1203 C   0  0  0  0  0  0  0  0  0  0  0  0
   13.9350   23.7503    0.2882 N   0  0  0  0  0  0  0  0  0  0  0  0
   13.5132   22.4791    0.6292 C   0  0  0  0  0  0  0  0  0  0  0  0
   14.3878   21.5556    0.8944 O   0  0  0  0  0  0  0  0  0  0  0  0
   14.7996   25.3156   -3.3265 C   0  0  0  0  0  0  0  0  0  0  0  0
   15.4556   24.4112   -4.1245 C   0  0  0  0  0  0  0  0  0  0  0  0
   15.6655   24.6537   -5.4828 C   0  0  0  0  0  0  0  0  0  0  0  0
   15.2185   25.8169   -6.0712 C   0  0  0  0  0  0  0  0  0  0  0  0
   14.5615   26.7249   -5.2752 C   0  0  0  0  0  0  0  0  0  0  0  0
   14.3549   26.4849   -3.9366 C   0  0  0  0  0  0  0  0  0  0  0  0
   12.1332   21.9831    0.7403 C   0  0  0  0  0  0  0  0  0  0  0  0
   11.2843   21.9852   -0.2275 C   0  0  0  0  0  0  0  0  0  0  0  0
    9.9154   21.5177   -0.1993 C   0  0  0  0  0  0  0  0  0  0  0  0
    9.5791   20.3636   -0.9484 C   0  0  0  0  0  0  0  0  0  0  0  0
    8.3356   19.8334   -1.0008 C   0  0  0  0  0  0  0  0  0  0  0  0
    7.3117   20.4202   -0.3000 C   0  0  0  0  0  0  0  0  0  0  0  0
    7.5695   21.5344    0.4411 C   0  0  0  0  0  0  0  0  0  0  0  0
    8.8712   22.0735    0.4846 C   0  0  0  0  0  0  0  0  0  0  0  0
    9.0480   23.1795    1.2422 F   0  0  0  0  0  0  0  0  0  0  0  0
  1  2  1  0  0  0
  2  3  1  0  0  0
  3  4  1  0  0  0
  4  5  1  0  0  0
  5  6  1  0  0  0
  6  7  1  0  0  0
  7  8  1  0  0  0
  8  9  2  0  0  0
  8 16  1  0  0  0
 16 17  2  0  0  0
 17 18  1  0  0  0
 18 19  2  0  0  0
 19 20  1  0  0  0
 20 21  2  0  0  0
 21 22  1  0  0  0
 22 23  2  0  0  0
 23 24  1  0  0  0
  4 10  1  0  0  0
 10 11  2  0  0  0
 11 12  1  0  0  0
 12 13  2  0  0  0
 13 14  1  0  0  0
 14 15  2  0  0  0
  7  2  1  0  0  0
 23 18  1  0  0  0
 15 10  1  0  0  0
M  END
> <minimizedAffinity>
-8.30888

> <CNNscore>
0.1140349507

> <CNNaffinity>
6.2497982979

> <CNN_VS>
0.7126954198

> <CNNaffinity_variance>
0.1100793034

$$$$
[H]O[C@@]([H])(C([H])([H])N([H])C(=O)c1c(C([H])([H])[H])c(/C([H])=C2\C(=O)N([H])c3c([H])c([H])c(F)c([H])c32)n([H])c1C([H])([H])[H])C([H])([H])N(C([H])([H])[H])C([H])([H])[H]


 33 35  0  0  0  0  0  0  0  0999 V2000
   11.5173   26.1325    2.6129 C   0  0  0  0  0  0  0  0  0  0  0  0
   11.4392   25.5943    1.2245 C   0  0  0  0  0  0  0  0  0  0  0  0
   12.1188   26.1038    0.1700 N   0  0  0  0  0  0  0  0  0  0  0  0
   11.8676   25.4120   -0.9461 C   0  0  0  0  0  0  0  0  0  0  0  0
   10.9933   24.4153   -0.6034 C   0  0  0  0  0  0  0  0  0  0  0  0
   10.4307   23.3375   -1.4952 C   0  0  0  0  0  0  0  0  0  0  0  0
   10.7084   24.5168    0.7729 C   0  0  0  0  0  0  0  0  0  0  0  0
   12.7508   26.9216    0.2171 H   0  0  0  0  0  0  0  0  0  0  0  0
   12.4854   25.6818   -2.2334 C   0  0  0  0  0  0  0  0  0  0  0  0
   13.5530   25.0659   -2.6856 C   0  0  0  0  0  0  0  0  0  0  0  0
   14.3121   24.0230   -2.0323 C   0  0  0  0  0  0  0  0  0  0  0  0
   14.0499   23.5095   -0.9125 O   0  0  0  0  0  0  0  0  0  0  0  0
   15.3934   23.7042   -2.9069 N   0  0  0  0  0  0  0  0  0  0  0  0
   15.3295   24.5088   -4.0738 C   0  0  0  0  0  0  0  0  0  0  0  0
   16.1050   24.6088   -5.2169 C   0  0  0  0  0  0  0  0  0  0  0  0
   15.8202   25.4923   -6.2320 C   0  0  0  0  0  0  0  0  0  0  0  0
   14.7161   26.3264   -6.1270 C   0  0  0  0  0  0  0  0  0  0  0  0
   14.4205   27.2088   -7.1295 F   0  0  0  0  0  0  0  0  0  0  0  0
   13.9463   26.2268   -4.9912 C   0  0  0  0  0  0  0  0  0  0  0  0
   14.2325   25.3418   -3.9760 C   0  0  0  0  0  0  0  0  0  0  0  0
   16.1085   22.9944   -2.7110 H   0  0  0  0  0  0  0  0  0  0  0  0
    9.8040   23.6619    1.5155 C   0  0  0  0  0  0  0  0  0  0  0  0
    8.7304   24.2398    1.9355 O   0  0  0  0  0  0  0  0  0  0  0  0
    9.9604   22.3095    1.8246 N   0  0  0  0  0  0  0  0  0  0  0  0
   10.7856   21.7320    1.5502 H   0  0  0  0  0  0  0  0  0  0  0  0
    8.9632   21.5556    2.5924 C   0  0  0  0  0  0  0  0  0  0  0  0
    7.6814   21.3357    1.8629 C   0  0  0  0  0  0  0  0  0  0  0  0
    6.8415   20.5506    2.6825 O   0  0  0  0  0  0  0  0  0  0  0  0
    7.3892   19.9244    3.2561 H   0  0  0  0  0  0  0  0  0  0  0  0
    7.9570   20.5171    0.5940 C   0  0  0  0  0  0  0  0  0  0  0  0
    6.9393   20.7029   -0.3959 N   0  0  0  0  0  0  0  0  0  0  0  0
    6.0504   21.8145   -0.1392 C   0  0  0  0  0  0  0  0  0  0  0  0
    6.1253   19.5160   -0.5437 C   0  0  0  0  0  0  0  0  0  0  0  0
  1  2  1  0  0  0
  2  3  1  0  0  0
  3  4  1  0  0  0
  4  9  1  0  0  0
  9 10  2  0  0  0
 10 11  1  0  0  0
 11 12  2  0  0  0
 11 13  1  0  0  0
 13 14  1  0  0  0
 14 15  2  0  0  0
 15 16  1  0  0  0
 16 17  2  0  0  0
 17 18  1  0  0  0
 17 19  1  0  0  0
 19 20  2  0  0  0
  4  5  2  0  0  0
  5  6  1  0  0  0
  5  7  1  0  0  0
  7 22  1  0  0  0
 22 23  2  0  0  0
 22 24  1  0  0  0
 24 26  1  0  0  0
 26 27  1  0  0  0
 27 28  1  0  0  0
 27 30  1  0  0  0
 30 31  1  0  0  0
 31 32  1  0  0  0
 31 33  1  0  0  0
  7  2  2  0  0  0
 20 10  1  0  0  0
 20 14  1  0  0  0
  3  8  1  0  0  0
 13 21  1  0  0  0
 24 25  1  0  0  0
 28 29  1  0  0  0
M  END
> <minimizedAffinity>
-0.27427

> <CNNscore>
0.5400028825

> <CNNaffinity>
6.7960939407

> <CNN_VS>
3.6699104309

> <CNNaffinity_variance>
0.9296256304

$$$$
[H]O[C@@]([H])(C([H])([H])N([H])C(=O)c1c(C([H])([H])[H])c(/C([H])=C2\C(=O)N([H])c3c([H])c([H])c(F)c([H])c32)n([H])c1C([H])([H])[H])C([H])([H])N(C([H])([H])[H])C([H])([H])[H]


 33 35  0  0  0  0  0  0  0  0999 V2000
   15.4596   24.5586   -5.0757 C   0  0  0  0  0  0  0  0  0  0  0  0
   14.5428   25.4169   -4.2718 C   0  0  0  0  0  0  0  0  0  0  0  0
   14.1055   26.6381   -4.6602 N   0  0  0  0  0  0  0  0  0  0  0  0
   13.2843   27.1692   -3.7486 C   0  0  0  0  0  0  0  0  0  0  0  0
   13.1835   26.2585   -2.7310 C   0  0  0  0  0  0  0  0  0  0  0  0
   12.3458   26.3632   -1.4817 C   0  0  0  0  0  0  0  0  0  0  0  0
   13.9786   25.1385   -3.0457 C   0  0  0  0  0  0  0  0  0  0  0  0
   14.3699   27.1034   -5.5456 H   0  0  0  0  0  0  0  0  0  0  0  0
   12.6116   28.4485   -3.8989 C   0  0  0  0  0  0  0  0  0  0  0  0
   11.4133   28.5986   -4.4136 C   0  0  0  0  0  0  0  0  0  0  0  0
   10.5340   27.5665   -4.9162 C   0  0  0  0  0  0  0  0  0  0  0  0
   10.7716   26.3296   -4.9169 O   0  0  0  0  0  0  0  0  0  0  0  0
    9.3664   28.2312   -5.3963 N   0  0  0  0  0  0  0  0  0  0  0  0
    9.4911   29.6319   -5.2080 C   0  0  0  0  0  0  0  0  0  0  0  0
    8.6742   30.7160   -5.4831 C   0  0  0  0  0  0  0  0  0  0  0  0
    9.0362   32.0108   -5.1920 C   0  0  0  0  0  0  0  0  0  0  0  0
   10.2648   32.2636   -4.5986 C   0  0  0  0  0  0  0  0  0  0  0  0
   10.6369   33.5462   -4.3025 F   0  0  0  0  0  0  0  0  0  0  0  0
   11.0759   31.1864   -4.3257 C   0  0  0  0  0  0  0  0  0  0  0  0
   10.7122   29.8910   -4.6176 C   0  0  0  0  0  0  0  0  0  0  0  0
    8.5589   27.7559   -5.8154 H   0  0  0  0  0  0  0  0  0  0  0  0
   14.1613   23.9684   -2.2105 C   0  0  0  0  0  0  0  0  0  0  0  0
   15.1919   23.2490   -2.4992 O   0  0  0  0  0  0  0  0  0  0  0  0
   13.3623   23.5373   -1.1498 N   0  0  0  0  0  0  0  0  0  0  0  0
   12.4990   24.0253   -0.8237 H   0  0  0  0  0  0  0  0  0  0  0  0
   13.6591   22.3231   -0.3817 C   0  0  0  0  0  0  0  0  0  0  0  0
   13.5518   21.0661   -1.1766 C   0  0  0  0  0  0  0  0  0  0  0  0
   12.3640   21.1304   -1.9372 O   0  0  0  0  0  0  0  0  0  0  0  0
   11.6580   21.6638   -1.4494 H   0  0  0  0  0  0  0  0  0  0  0  0
   13.4040   19.8750   -0.2198 C   0  0  0  0  0  0  0  0  0  0  0  0
   13.9373   20.1600    1.0780 N   0  0  0  0  0  0  0  0  0  0  0  0
   12.9569   20.6050    2.0436 C   0  0  0  0  0  0  0  0  0  0  0  0
   14.9750   21.1660    1.0117 C   0  0  0  0  0  0  0  0  0  0  0  0
  1  2  1  0  0  0
  2  3  1  0  0  0
  3  4  1  0  0  0
  4  9  1  0  0  0
  9 10  2  0  0  0
 10 11  1  0  0  0
 11 12  2  0  0  0
 11 13  1  0  0  0
 13 14  1  0  0  0
 14 15  2  0  0  0
 15 16  1  0  0  0
 16 17  2  0  0  0
 17 18  1  0  0  0
 17 19  1  0  0  0
 19 20  2  0  0  0
  4  5  2  0  0  0
  5  6  1  0  0  0
  5  7  1  0  0  0
  7 22  1  0  0  0
 22 23  2  0  0  0
 22 24  1  0  0  0
 24 26  1  0  0  0
 26 27  1  0  0  0
 27 28  1  0  0  0
 27 30  1  0  0  0
 30 31  1  0  0  0
 31 32  1  0  0  0
 31 33  1  0  0  0
  7  2  2  0  0  0
 20 10  1  0  0  0
 20 14  1  0  0  0
  3  8  1  0  0  0
 13 21  1  0  0  0
 24 25  1  0  0  0
 28 29  1  0  0  0
M  END
> <minimizedAffinity>
26.27245

> <CNNscore>
0.5070051551

> <CNNaffinity>
6.2546882629

> <CNN_VS>
3.1711592674

> <CNNaffinity_variance>
0.7517169714

$$$$
[H]O[C@@]([H])(C([H])([H])N([H])C(=O)c1c(C([H])([H])[H])c(/C([H])=C2\C(=O)N([H])c3c([H])c([H])c(F)c([H])c32)n([H])c1C([H])([H])[H])C([H])([H])N(C([H])([H])[H])C([H])([H])[H]


 33 35  0  0  0  0  0  0  0  0999 V2000
   11.4026   25.3972   -2.6377 C   0  0  0  0  0  0  0  0  0  0  0  0
   12.0963   24.7297   -1.4990 C   0  0  0  0  0  0  0  0  0  0  0  0
   13.3889   24.9482   -1.1599 N   0  0  0  0  0  0  0  0  0  0  0  0
   13.7363   24.2251   -0.0904 C   0  0  0  0  0  0  0  0  0  0  0  0
   12.6278   23.5112    0.2795 C   0  0  0  0  0  0  0  0  0  0  0  0
   12.4856   22.5738    1.4519 C   0  0  0  0  0  0  0  0  0  0  0  0
   11.5757   23.8182   -0.6061 C   0  0  0  0  0  0  0  0  0  0  0  0
   14.0278   25.5899   -1.6603 H   0  0  0  0  0  0  0  0  0  0  0  0
   15.0418   24.2788    0.5455 C   0  0  0  0  0  0  0  0  0  0  0  0
   16.1827   24.2576   -0.1036 C   0  0  0  0  0  0  0  0  0  0  0  0
   16.3819   24.1862   -1.5340 C   0  0  0  0  0  0  0  0  0  0  0  0
   15.4733   24.1585   -2.4059 O   0  0  0  0  0  0  0  0  0  0  0  0
   17.7930   24.1583   -1.7429 N   0  0  0  0  0  0  0  0  0  0  0  0
   18.4709   24.2110   -0.4976 C   0  0  0  0  0  0  0  0  0  0  0  0
   19.8058   24.2153   -0.1285 C   0  0  0  0  0  0  0  0  0  0  0  0
   20.2126   24.2771    1.1840 C   0  0  0  0  0  0  0  0  0  0  0  0
   19.2641   24.3383    2.1950 C   0  0  0  0  0  0  0  0  0  0  0  0
   19.6546   24.4015    3.5044 F   0  0  0  0  0  0  0  0  0  0  0  0
   17.9383   24.3339    1.8278 C   0  0  0  0  0  0  0  0  0  0  0  0
   17.5325   24.2721    0.5135 C   0  0  0  0  0  0  0  0  0  0  0  0
   18.2425   24.1073   -2.6643 H   0  0  0  0  0  0  0  0  0  0  0  0
   10.2439   23.2481   -0.5685 C   0  0  0  0  0  0  0  0  0  0  0  0
    9.3131   24.0625   -0.2034 O   0  0  0  0  0  0  0  0  0  0  0  0
    9.8605   21.9409   -0.8744 N   0  0  0  0  0  0  0  0  0  0  0  0
   10.5176   21.1868   -1.1735 H   0  0  0  0  0  0  0  0  0  0  0  0
    8.4676   21.4878   -0.7918 C   0  0  0  0  0  0  0  0  0  0  0  0
    8.1283   20.8145    0.4948 C   0  0  0  0  0  0  0  0  0  0  0  0
    7.3480   19.6756    0.1992 O   0  0  0  0  0  0  0  0  0  0  0  0
    6.7917   19.8314   -0.6298 H   0  0  0  0  0  0  0  0  0  0  0  0
    7.2501   21.7497    1.3374 C   0  0  0  0  0  0  0  0  0  0  0  0
    8.0078   22.4434    2.3347 N   0  0  0  0  0  0  0  0  0  0  0  0
    9.1430   21.7062    2.8442 C   0  0  0  0  0  0  0  0  0  0  0  0
    7.1810   22.8104    3.4639 C   0  0  0  0  0  0  0  0  0  0  0  0
  1  2  1  0  0  0
  2  3  1  0  0  0
  3  4  1  0  0  0
  4  9  1  0  0  0
  9 10  2  0  0  0
 10 11  1  0  0  0
 11 12  2  0  0  0
 11 13  1  0  0  0
 13 14  1  0  0  0
 14 15  2  0  0  0
 15 16  1  0  0  0
 16 17  2  0  0  0
 17 18  1  0  0  0
 17 19  1  0  0  0
 19 20  2  0  0  0
  4  5  2  0  0  0
  5  6  1  0  0  0
  5  7  1  0  0  0
  7 22  1  0  0  0
 22 23  2  0  0  0
 22 24  1  0  0  0
 24 26  1  0  0  0
 26 27  1  0  0  0
 27 28  1  0  0  0
 27 30  1  0  0  0
 30 31  1  0  0  0
 31 32  1  0  0  0
 31 33  1  0  0  0
  7  2  2  0  0  0
 20 10  1  0  0  0
 20 14  1  0  0  0
  3  8  1  0  0  0
 13 21  1  0  0  0
 24 25  1  0  0  0
 28 29  1  0  0  0
M  END
> <minimizedAffinity>
9.03967

> <CNNscore>
0.5043366551

> <CNNaffinity>
6.6421914101

> <CNN_VS>
3.3499004841

> <CNNaffinity_variance>
0.5962054133

$$$$
[H]O[C@@]([H])(C([H])([H])N([H])C(=O)c1c(C([H])([H])[H])c(/C([H])=C2\C(=O)N([H])c3c([H])c([H])c(F)c([H])c32)n([H])c1C([H])([H])[H])C([H])([H])N(C([H])([H])[H])C([H])([H])[H]


 33 35  0  0  0  0  0  0  0  0999 V2000
   10.2808   23.9320    2.2474 C   0  0  0  0  0  0  0  0  0  0  0  0
   11.0807   23.5527    1.0475 C   0  0  0  0  0  0  0  0  0  0  0  0
   11.4398   24.4147    0.0669 N   0  0  0  0  0  0  0  0  0  0  0  0
   12.1648   23.8009   -0.8738 C   0  0  0  0  0  0  0  0  0  0  0  0
   12.2818   22.4918   -0.4893 C   0  0  0  0  0  0  0  0  0  0  0  0
   13.0387   21.3912   -1.1888 C   0  0  0  0  0  0  0  0  0  0  0  0
   11.5971   22.3153    0.7295 C   0  0  0  0  0  0  0  0  0  0  0  0
   11.1881   25.4180    0.0445 H   0  0  0  0  0  0  0  0  0  0  0  0
   12.7404   24.4680   -2.0293 C   0  0  0  0  0  0  0  0  0  0  0  0
   13.9732   24.9155   -2.0875 C   0  0  0  0  0  0  0  0  0  0  0  0
   14.9881   24.8396   -1.0602 C   0  0  0  0  0  0  0  0  0  0  0  0
   14.8569   24.2975    0.0691 O   0  0  0  0  0  0  0  0  0  0  0  0
   16.1433   25.4906   -1.5869 N   0  0  0  0  0  0  0  0  0  0  0  0
   15.8805   25.9633   -2.8986 C   0  0  0  0  0  0  0  0  0  0  0  0
   16.6297   26.6440   -3.8438 C   0  0  0  0  0  0  0  0  0  0  0  0
   16.1292   26.9929   -5.0767 C   0  0  0  0  0  0  0  0  0  0  0  0
   14.8235   26.6592   -5.4074 C   0  0  0  0  0  0  0  0  0  0  0  0
   14.3134   26.9987   -6.6303 F   0  0  0  0  0  0  0  0  0  0  0  0
   14.0798   25.9831   -4.4680 C   0  0  0  0  0  0  0  0  0  0  0  0
   14.5821   25.6345   -3.2344 C   0  0  0  0  0  0  0  0  0  0  0  0
   17.0307   25.5963   -1.0820 H   0  0  0  0  0  0  0  0  0  0  0  0
   11.4628   21.0662    1.4519 C   0  0  0  0  0  0  0  0  0  0  0  0
   10.6809   20.2006    0.9019 O   0  0  0  0  0  0  0  0  0  0  0  0
   12.0702   20.7001    2.6546 N   0  0  0  0  0  0  0  0  0  0  0  0
   12.7157   21.3121    3.2011 H   0  0  0  0  0  0  0  0  0  0  0  0
   11.8455   19.3953    3.2865 C   0  0  0  0  0  0  0  0  0  0  0  0
   11.5015   19.4787    4.7350 C   0  0  0  0  0  0  0  0  0  0  0  0
   10.9285   18.2469    5.1194 O   0  0  0  0  0  0  0  0  0  0  0  0
   10.4284   17.8308    4.3462 H   0  0  0  0  0  0  0  0  0  0  0  0
   10.4241   20.5532    4.9368 C   0  0  0  0  0  0  0  0  0  0  0  0
    9.1623   20.1576    4.3877 N   0  0  0  0  0  0  0  0  0  0  0  0
    8.5035   21.1796    3.6047 C   0  0  0  0  0  0  0  0  0  0  0  0
    8.2441   19.7402    5.4250 C   0  0  0  0  0  0  0  0  0  0  0  0
  1  2  1  0  0  0
  2  3  1  0  0  0
  3  4  1  0  0  0
  4  9  1  0  0  0
  9 10  2  0  0  0
 10 11  1  0  0  0
 11 12  2  0  0  0
 11 13  1  0  0  0
 13 14  1  0  0  0
 14 15  2  0  0  0
 15 16  1  0  0  0
 16 17  2  0  0  0
 17 18  1  0  0  0
 17 19  1  0  0  0
 19 20  2  0  0  0
  4  5  2  0  0  0
  5  6  1  0  0  0
  5  7  1  0  0  0
  7 22  1  0  0  0
 22 23  2  0  0  0
 22 24  1  0  0  0
 24 26  1  0  0  0
 26 27  1  0  0  0
 27 28  1  0  0  0
 27 30  1  0  0  0
 30 31  1  0  0  0
 31 32  1  0  0  0
 31 33  1  0  0  0
  7  2  2  0  0  0
 20 10  1  0  0  0
 20 14  1  0  0  0
  3  8  1  0  0  0
 13 21  1  0  0  0
 24 25  1  0  0  0
 28 29  1  0  0  0
M  END
> <minimizedAffinity>
-9.00218

> <CNNscore>
0.4865540564

> <CNNaffinity>
6.8223009109

> <CNN_VS>
3.3194181919

> <CNNaffinity_variance>
0.0711972043

$$$$
[H]O[C@@]([H])(C([H])([H])N([H])C(=O)c1c(C([H])([H])[H])c(/C([H])=C2\C(=O)N([H])c3c([H])c([H])c(F)c([H])c32)n([H])c1C([H])([H])[H])C([H])([H])N(C([H])([H])[H])C([H])([H])[H]


 33 35  0  0  0  0  0  0  0  0999 V2000
   14.3069   20.4223    0.8987 C   0  0  0  0  0  0  0  0  0  0  0  0
   13.6780   21.4972    0.0788 C   0  0  0  0  0  0  0  0  0  0  0  0
   14.3334   22.2253   -0.8560 N   0  0  0  0  0  0  0  0  0  0  0  0
   13.5160   23.1053   -1.4431 C   0  0  0  0  0  0  0  0  0  0  0  0
   12.2835   22.9419   -0.8690 C   0  0  0  0  0  0  0  0  0  0  0  0
   11.0065   23.6684   -1.2082 C   0  0  0  0  0  0  0  0  0  0  0  0
   12.3681   21.9246    0.1022 C   0  0  0  0  0  0  0  0  0  0  0  0
   15.3358   22.1181   -1.0887 H   0  0  0  0  0  0  0  0  0  0  0  0
   13.9099   23.9957   -2.5218 C   0  0  0  0  0  0  0  0  0  0  0  0
   14.9291   24.8213   -2.4651 C   0  0  0  0  0  0  0  0  0  0  0  0
   15.8488   25.0123   -1.3657 C   0  0  0  0  0  0  0  0  0  0  0  0
   15.8345   24.3856   -0.2733 O   0  0  0  0  0  0  0  0  0  0  0  0
   16.7565   26.0348   -1.7735 N   0  0  0  0  0  0  0  0  0  0  0  0
   16.4330   26.4802   -3.0811 C   0  0  0  0  0  0  0  0  0  0  0  0
   16.9735   27.4262   -3.9363 C   0  0  0  0  0  0  0  0  0  0  0  0
   16.4618   27.6726   -5.1891 C   0  0  0  0  0  0  0  0  0  0  0  0
   15.3600   26.9559   -5.6342 C   0  0  0  0  0  0  0  0  0  0  0  0
   14.8417   27.1897   -6.8782 F   0  0  0  0  0  0  0  0  0  0  0  0
   14.8236   26.0164   -4.7843 C   0  0  0  0  0  0  0  0  0  0  0  0
   15.3369   25.7708   -3.5305 C   0  0  0  0  0  0  0  0  0  0  0  0
   17.5280   26.3897   -1.1969 H   0  0  0  0  0  0  0  0  0  0  0  0
   11.2838   21.4717    0.9504 C   0  0  0  0  0  0  0  0  0  0  0  0
   11.0677   20.2006    0.9256 O   0  0  0  0  0  0  0  0  0  0  0  0
   10.4598   22.2404    1.7746 N   0  0  0  0  0  0  0  0  0  0  0  0
   10.5272   23.2772    1.8764 H   0  0  0  0  0  0  0  0  0  0  0  0
    9.3878   21.6535    2.5862 C   0  0  0  0  0  0  0  0  0  0  0  0
    9.4060   22.0870    4.0128 C   0  0  0  0  0  0  0  0  0  0  0  0
    9.8288   23.4334    4.0548 O   0  0  0  0  0  0  0  0  0  0  0  0
   10.4701   23.6283    3.2986 H   0  0  0  0  0  0  0  0  0  0  0  0
   10.4551   21.2668    4.7762 C   0  0  0  0  0  0  0  0  0  0  0  0
   10.4224   19.8824    4.4124 N   0  0  0  0  0  0  0  0  0  0  0  0
    9.8167   19.0178    5.4011 C   0  0  0  0  0  0  0  0  0  0  0  0
   11.7510   19.3769    4.1432 C   0  0  0  0  0  0  0  0  0  0  0  0
  1  2  1  0  0  0
  2  3  1  0  0  0
  3  4  1  0  0  0
  4  9  1  0  0  0
  9 10  2  0  0  0
 10 11  1  0  0  0
 11 12  2  0  0  0
 11 13  1  0  0  0
 13 14  1  0  0  0
 14 15  2  0  0  0
 15 16  1  0  0  0
 16 17  2  0  0  0
 17 18  1  0  0  0
 17 19  1  0  0  0
 19 20  2  0  0  0
  4  5  2  0  0  0
  5  6  1  0  0  0
  5  7  1  0  0  0
  7 22  1  0  0  0
 22 23  2  0  0  0
 22 24  1  0  0  0
 24 26  1  0  0  0
 26 27  1  0  0  0
 27 28  1  0  0  0
 27 30  1  0  0  0
 30 31  1  0  0  0
 31 32  1  0  0  0
 31 33  1  0  0  0
  7  2  2  0  0  0
 20 10  1  0  0  0
 20 14  1  0  0  0
  3  8  1  0  0  0
 13 21  1  0  0  0
 24 25  1  0  0  0
 28 29  1  0  0  0
M  END
> <minimizedAffinity>
-8.94169

> <CNNscore>
0.4765020311

> <CNNaffinity>
7.0494165421

> <CNN_VS>
3.3590612411

> <CNNaffinity_variance>
0.0643327162

$$$$
[H]O[C@@]([H])(C([H])([H])N([H])C(=O)c1c(C([H])([H])[H])c(/C([H])=C2\C(=O)N([H])c3c([H])c([H])c(F)c([H])c32)n([H])c1C([H])([H])[H])C([H])([H])N(C([H])([H])[H])C([H])([H])[H]


 33 35  0  0  0  0  0  0  0  0999 V2000
   14.4908   20.4076    0.8151 C   0  0  0  0  0  0  0  0  0  0  0  0
   13.8974   21.5944    0.1349 C   0  0  0  0  0  0  0  0  0  0  0  0
   14.4559   22.2234   -0.9262 N   0  0  0  0  0  0  0  0  0  0  0  0
   13.6967   23.2444   -1.3366 C   0  0  0  0  0  0  0  0  0  0  0  0
   12.6039   23.2791   -0.5122 C   0  0  0  0  0  0  0  0  0  0  0  0
   11.4285   24.2210   -0.5810 C   0  0  0  0  0  0  0  0  0  0  0  0
   12.7154   22.2381    0.4308 C   0  0  0  0  0  0  0  0  0  0  0  0
   15.3529   21.9528   -1.3651 H   0  0  0  0  0  0  0  0  0  0  0  0
   14.0012   24.0816   -2.4847 C   0  0  0  0  0  0  0  0  0  0  0  0
   14.9927   24.9408   -2.5320 C   0  0  0  0  0  0  0  0  0  0  0  0
   15.9627   25.2253   -1.4981 C   0  0  0  0  0  0  0  0  0  0  0  0
   16.0287   24.6640   -0.3724 O   0  0  0  0  0  0  0  0  0  0  0  0
   16.8113   26.2501   -2.0134 N   0  0  0  0  0  0  0  0  0  0  0  0
   16.4030   26.6071   -3.3244 C   0  0  0  0  0  0  0  0  0  0  0  0
   16.8637   27.5175   -4.2609 C   0  0  0  0  0  0  0  0  0  0  0  0
   16.2774   27.6732   -5.4955 C   0  0  0  0  0  0  0  0  0  0  0  0
   15.1789   26.8971   -5.8370 C   0  0  0  0  0  0  0  0  0  0  0  0
   14.5869   27.0406   -7.0618 F   0  0  0  0  0  0  0  0  0  0  0  0
   14.7217   25.9931   -4.9063 C   0  0  0  0  0  0  0  0  0  0  0  0
   15.3096   25.8382   -3.6710 C   0  0  0  0  0  0  0  0  0  0  0  0
   17.5998   26.6625   -1.5017 H   0  0  0  0  0  0  0  0  0  0  0  0
   11.7732   21.9554    1.4951 C   0  0  0  0  0  0  0  0  0  0  0  0
   12.2775   21.9525    2.6820 O   0  0  0  0  0  0  0  0  0  0  0  0
   10.4073   21.6882    1.3842 N   0  0  0  0  0  0  0  0  0  0  0  0
    9.8831   21.6536    0.4821 H   0  0  0  0  0  0  0  0  0  0  0  0
    9.5605   21.4126    2.5501 C   0  0  0  0  0  0  0  0  0  0  0  0
    8.1139   21.6953    2.3243 C   0  0  0  0  0  0  0  0  0  0  0  0
    7.3687   20.6387    2.8915 O   0  0  0  0  0  0  0  0  0  0  0  0
    7.8864   19.7723    2.8422 H   0  0  0  0  0  0  0  0  0  0  0  0
    7.8268   21.6836    0.8165 C   0  0  0  0  0  0  0  0  0  0  0  0
    7.6562   20.3541    0.3132 N   0  0  0  0  0  0  0  0  0  0  0  0
    8.4703   20.0419   -0.8408 C   0  0  0  0  0  0  0  0  0  0  0  0
    6.2771   20.0979   -0.0413 C   0  0  0  0  0  0  0  0  0  0  0  0
  1  2  1  0  0  0
  2  3  1  0  0  0
  3  4  1  0  0  0
  4  9  1  0  0  0
  9 10  2  0  0  0
 10 11  1  0  0  0
 11 12  2  0  0  0
 11 13  1  0  0  0
 13 14  1  0  0  0
 14 15  2  0  0  0
 15 16  1  0  0  0
 16 17  2  0  0  0
 17 18  1  0  0  0
 17 19  1  0  0  0
 19 20  2  0  0  0
  4  5  2  0  0  0
  5  6  1  0  0  0
  5  7  1  0  0  0
  7 22  1  0  0  0
 22 23  2  0  0  0
 22 24  1  0  0  0
 24 26  1  0  0  0
 26 27  1  0  0  0
 27 28  1  0  0  0
 27 30  1  0  0  0
 30 31  1  0  0  0
 31 32  1  0  0  0
 31 33  1  0  0  0
  7  2  2  0  0  0
 20 10  1  0  0  0
 20 14  1  0  0  0
  3  8  1  0  0  0
 13 21  1  0  0  0
 24 25  1  0  0  0
 28 29  1  0  0  0
M  END
> <minimizedAffinity>
-8.94608

> <CNNscore>
0.4749257565

> <CNNaffinity>
7.2991538048

> <CNN_VS>
3.4665560722

> <CNNaffinity_variance>
0.2161397040

$$$$
[H]O[C@@]([H])(C([H])([H])N([H])C(=O)c1c(C([H])([H])[H])c(/C([H])=C2\C(=O)N([H])c3c([H])c([H])c(F)c([H])c32)n([H])c1C([H])([H])[H])C([H])([H])N(C([H])([H])[H])C([H])([H])[H]


 33 35  0  0  0  0  0  0  0  0999 V2000
   11.0034   24.2245   -0.9810 C   0  0  0  0  0  0  0  0  0  0  0  0
   12.3395   24.6712   -1.4695 C   0  0  0  0  0  0  0  0  0  0  0  0
   12.5265   25.5311   -2.4986 N   0  0  0  0  0  0  0  0  0  0  0  0
   13.8272   25.7620   -2.7045 C   0  0  0  0  0  0  0  0  0  0  0  0
   14.5102   25.0256   -1.7737 C   0  0  0  0  0  0  0  0  0  0  0  0
   16.0015   24.9690   -1.5586 C   0  0  0  0  0  0  0  0  0  0  0  0
   13.5803   24.3241   -0.9808 C   0  0  0  0  0  0  0  0  0  0  0  0
   11.7654   25.9562   -3.0557 H   0  0  0  0  0  0  0  0  0  0  0  0
   14.3479   26.6790   -3.7043 C   0  0  0  0  0  0  0  0  0  0  0  0
   14.9419   26.3049   -4.8137 C   0  0  0  0  0  0  0  0  0  0  0  0
   15.1915   24.9551   -5.2682 C   0  0  0  0  0  0  0  0  0  0  0  0
   14.8486   23.8998   -4.6722 O   0  0  0  0  0  0  0  0  0  0  0  0
   15.8888   25.0702   -6.5076 N   0  0  0  0  0  0  0  0  0  0  0  0
   16.0774   26.4377   -6.8351 C   0  0  0  0  0  0  0  0  0  0  0  0
   16.6729   27.0994   -7.8962 C   0  0  0  0  0  0  0  0  0  0  0  0
   16.7226   28.4714   -7.9814 C   0  0  0  0  0  0  0  0  0  0  0  0
   16.1595   29.2430   -6.9748 C   0  0  0  0  0  0  0  0  0  0  0  0
   16.2006   30.6083   -7.0474 F   0  0  0  0  0  0  0  0  0  0  0  0
   15.5683   28.5852   -5.9211 C   0  0  0  0  0  0  0  0  0  0  0  0
   15.5192   27.2118   -5.8371 C   0  0  0  0  0  0  0  0  0  0  0  0
   16.2039   24.2732   -7.0724 H   0  0  0  0  0  0  0  0  0  0  0  0
   13.9051   23.4123    0.0978 C   0  0  0  0  0  0  0  0  0  0  0  0
   13.2390   23.5976    1.1864 O   0  0  0  0  0  0  0  0  0  0  0  0
   14.8414   22.3766    0.0941 N   0  0  0  0  0  0  0  0  0  0  0  0
   15.4476   22.1307   -0.7194 H   0  0  0  0  0  0  0  0  0  0  0  0
   15.0771   21.5225    1.2634 C   0  0  0  0  0  0  0  0  0  0  0  0
   14.1799   20.3334    1.3316 C   0  0  0  0  0  0  0  0  0  0  0  0
   14.5483   19.4483    0.2951 O   0  0  0  0  0  0  0  0  0  0  0  0
   14.9042   19.9605   -0.4999 H   0  0  0  0  0  0  0  0  0  0  0  0
   12.7367   20.7734    1.0497 C   0  0  0  0  0  0  0  0  0  0  0  0
   12.1987   20.1351   -0.1136 N   0  0  0  0  0  0  0  0  0  0  0  0
   12.2657   20.9321   -1.3186 C   0  0  0  0  0  0  0  0  0  0  0  0
   10.8166   19.7563    0.0851 C   0  0  0  0  0  0  0  0  0  0  0  0
  1  2  1  0  0  0
  2  3  1  0  0  0
  3  4  1  0  0  0
  4  9  1  0  0  0
  9 10  2  0  0  0
 10 11  1  0  0  0
 11 12  2  0  0  0
 11 13  1  0  0  0
 13 14  1  0  0  0
 14 15  2  0  0  0
 15 16  1  0  0  0
 16 17  2  0  0  0
 17 18  1  0  0  0
 17 19  1  0  0  0
 19 20  2  0  0  0
  4  5  2  0  0  0
  5  6  1  0  0  0
  5  7  1  0  0  0
  7 22  1  0  0  0
 22 23  2  0  0  0
 22 24  1  0  0  0
 24 26  1  0  0  0
 26 27  1  0  0  0
 27 28  1  0  0  0
 27 30  1  0  0  0
 30 31  1  0  0  0
 31 32  1  0  0  0
 31 33  1  0  0  0
  7  2  2  0  0  0
 20 10  1  0  0  0
 20 14  1  0  0  0
  3  8  1  0  0  0
 13 21  1  0  0  0
 24 25  1  0  0  0
 28 29  1  0  0  0
M  END
> <minimizedAffinity>
3.15313

> <CNNscore>
0.4444865286

> <CNNaffinity>
6.8029241562

> <CNN_VS>
3.0238082409

> <CNNaffinity_variance>
0.2433291376

$$$$
[H]O[C@@]([H])(C([H])([H])N([H])C(=O)c1c(C([H])([H])[H])c(/C([H])=C2\C(=O)N([H])c3c([H])c([H])c(F)c([H])c32)n([H])c1C([H])([H])[H])C([H])([H])N(C([H])([H])[H])C([H])([H])[H]


 33 35  0  0  0  0  0  0  0  0999 V2000
   10.1751   24.7837   -2.1871 C   0  0  0  0  0  0  0  0  0  0  0  0
   11.0220   24.2529   -1.0806 C   0  0  0  0  0  0  0  0  0  0  0  0
   12.3569   24.4552   -0.9779 N   0  0  0  0  0  0  0  0  0  0  0  0
   12.8497   23.8763    0.1218 C   0  0  0  0  0  0  0  0  0  0  0  0
   11.7954   23.2767    0.7576 C   0  0  0  0  0  0  0  0  0  0  0  0
   11.8156   22.5242    2.0640 C   0  0  0  0  0  0  0  0  0  0  0  0
   10.6252   23.5044    0.0063 C   0  0  0  0  0  0  0  0  0  0  0  0
   12.9253   24.9874   -1.6591 H   0  0  0  0  0  0  0  0  0  0  0  0
   14.2398   23.9574    0.5371 C   0  0  0  0  0  0  0  0  0  0  0  0
   15.2395   24.2232   -0.2713 C   0  0  0  0  0  0  0  0  0  0  0  0
   15.1781   24.4893   -1.6913 C   0  0  0  0  0  0  0  0  0  0  0  0
   14.1309   24.5351   -2.3896 O   0  0  0  0  0  0  0  0  0  0  0  0
   16.5238   24.6878   -2.1220 N   0  0  0  0  0  0  0  0  0  0  0  0
   17.4115   24.5558   -1.0231 C   0  0  0  0  0  0  0  0  0  0  0  0
   18.7858   24.6506   -0.8800 C   0  0  0  0  0  0  0  0  0  0  0  0
   19.4197   24.4782    0.3285 C   0  0  0  0  0  0  0  0  0  0  0  0
   18.6713   24.1973    1.4628 C   0  0  0  0  0  0  0  0  0  0  0  0
   19.2885   24.0248    2.6713 F   0  0  0  0  0  0  0  0  0  0  0  0
   17.3062   24.1032    1.3200 C   0  0  0  0  0  0  0  0  0  0  0  0
   16.6731   24.2760    0.1097 C   0  0  0  0  0  0  0  0  0  0  0  0
   16.7990   24.8953   -3.0889 H   0  0  0  0  0  0  0  0  0  0  0  0
    9.3019   23.0102    0.3299 C   0  0  0  0  0  0  0  0  0  0  0  0
    8.4013   23.9214    0.4767 O   0  0  0  0  0  0  0  0  0  0  0  0
    8.8983   21.6845    0.5002 N   0  0  0  0  0  0  0  0  0  0  0  0
    9.5312   20.8586    0.4165 H   0  0  0  0  0  0  0  0  0  0  0  0
    7.5174   21.3170    0.8323 C   0  0  0  0  0  0  0  0  0  0  0  0
    6.7566   20.7371   -0.3115 C   0  0  0  0  0  0  0  0  0  0  0  0
    5.5911   21.5118   -0.4985 O   0  0  0  0  0  0  0  0  0  0  0  0
    5.2707   21.8900    0.3821 H   0  0  0  0  0  0  0  0  0  0  0  0
    6.2951   19.3201    0.0560 C   0  0  0  0  0  0  0  0  0  0  0  0
    6.9347   18.3222   -0.7473 N   0  0  0  0  0  0  0  0  0  0  0  0
    7.1944   18.7277   -2.1110 C   0  0  0  0  0  0  0  0  0  0  0  0
    6.1557   17.1039   -0.7931 C   0  0  0  0  0  0  0  0  0  0  0  0
  1  2  1  0  0  0
  2  3  1  0  0  0
  3  4  1  0  0  0
  4  9  1  0  0  0
  9 10  2  0  0  0
 10 11  1  0  0  0
 11 12  2  0  0  0
 11 13  1  0  0  0
 13 14  1  0  0  0
 14 15  2  0  0  0
 15 16  1  0  0  0
 16 17  2  0  0  0
 17 18  1  0  0  0
 17 19  1  0  0  0
 19 20  2  0  0  0
  4  5  2  0  0  0
  5  6  1  0  0  0
  5  7  1  0  0  0
  7 22  1  0  0  0
 22 23  2  0  0  0
 22 24  1  0  0  0
 24 26  1  0  0  0
 26 27  1  0  0  0
 27 28  1  0  0  0
 27 30  1  0  0  0
 30 31  1  0  0  0
 31 32  1  0  0  0
 31 33  1  0  0  0
  7  2  2  0  0  0
 20 10  1  0  0  0
 20 14  1  0  0  0
  3  8  1  0  0  0
 13 21  1  0  0  0
 24 25  1  0  0  0
 28 29  1  0  0  0
M  END
> <minimizedAffinity>
4.24865

> <CNNscore>
0.4377549589

> <CNNaffinity>
6.5393648148

> <CNN_VS>
2.8626394272

> <CNNaffinity_variance>
0.6632496119

$$$$
[H]O[C@@]([H])(C([H])([H])N([H])C(=O)c1c(C([H])([H])[H])c(/C([H])=C2\C(=O)N([H])c3c([H])c([H])c(F)c([H])c32)n([H])c1C([H])([H])[H])C([H])([H])N(C([H])([H])[H])C([H])([H])[H]


 33 35  0  0  0  0  0  0  0  0999 V2000
    5.4542   29.2913    4.4305 C   0  0  0  0  0  0  0  0  0  0  0  0
    6.1803   28.8599    3.2016 C   0  0  0  0  0  0  0  0  0  0  0  0
    6.3324   29.6279    2.0968 N   0  0  0  0  0  0  0  0  0  0  0  0
    7.0387   28.9892    1.1584 C   0  0  0  0  0  0  0  0  0  0  0  0
    7.3582   27.7612    1.6734 C   0  0  0  0  0  0  0  0  0  0  0  0
    8.1812   26.6769    1.0249 C   0  0  0  0  0  0  0  0  0  0  0  0
    6.8191   27.6608    2.9714 C   0  0  0  0  0  0  0  0  0  0  0  0
    5.9531   30.5843    1.9885 H   0  0  0  0  0  0  0  0  0  0  0  0
    7.4133   29.5684   -0.1206 C   0  0  0  0  0  0  0  0  0  0  0  0
    6.9855   29.1342   -1.2834 C   0  0  0  0  0  0  0  0  0  0  0  0
    6.0803   28.0350   -1.5353 C   0  0  0  0  0  0  0  0  0  0  0  0
    5.5254   27.3196   -0.6596 O   0  0  0  0  0  0  0  0  0  0  0  0
    5.9497   27.9381   -2.9527 N   0  0  0  0  0  0  0  0  0  0  0  0
    6.7376   28.9349   -3.5838 C   0  0  0  0  0  0  0  0  0  0  0  0
    6.9702   29.2845   -4.9037 C   0  0  0  0  0  0  0  0  0  0  0  0
    7.7987   30.3227   -5.2614 C   0  0  0  0  0  0  0  0  0  0  0  0
    8.4371   31.0628   -4.2764 C   0  0  0  0  0  0  0  0  0  0  0  0
    9.2626   32.0986   -4.6180 F   0  0  0  0  0  0  0  0  0  0  0  0
    8.2058   30.7149   -2.9656 C   0  0  0  0  0  0  0  0  0  0  0  0
    7.3763   29.6756   -2.6090 C   0  0  0  0  0  0  0  0  0  0  0  0
    5.3677   27.2441   -3.4358 H   0  0  0  0  0  0  0  0  0  0  0  0
    6.9144   26.5050    3.8405 C   0  0  0  0  0  0  0  0  0  0  0  0
    5.8078   25.8686    4.0232 O   0  0  0  0  0  0  0  0  0  0  0  0
    8.0461   26.0122    4.4928 N   0  0  0  0  0  0  0  0  0  0  0  0
    8.9963   26.4404    4.4330 H   0  0  0  0  0  0  0  0  0  0  0  0
    8.0057   24.8252    5.3541 C   0  0  0  0  0  0  0  0  0  0  0  0
    7.3468   23.6455    4.7235 C   0  0  0  0  0  0  0  0  0  0  0  0
    6.0884   23.4675    5.3385 O   0  0  0  0  0  0  0  0  0  0  0  0
    6.1184   23.7683    6.3027 H   0  0  0  0  0  0  0  0  0  0  0  0
    8.1715   22.3863    5.0241 C   0  0  0  0  0  0  0  0  0  0  0  0
    7.9457   21.3538    4.0583 N   0  0  0  0  0  0  0  0  0  0  0  0
    7.0905   21.7402    2.9577 C   0  0  0  0  0  0  0  0  0  0  0  0
    7.3674   20.1773    4.6705 C   0  0  0  0  0  0  0  0  0  0  0  0
  1  2  1  0  0  0
  2  3  1  0  0  0
  3  4  1  0  0  0
  4  9  1  0  0  0
  9 10  2  0  0  0
 10 11  1  0  0  0
 11 12  2  0  0  0
 11 13  1  0  0  0
 13 14  1  0  0  0
 14 15  2  0  0  0
 15 16  1  0  0  0
 16 17  2  0  0  0
 17 18  1  0  0  0
 17 19  1  0  0  0
 19 20  2  0  0  0
  4  5  2  0  0  0
  5  6  1  0  0  0
  5  7  1  0  0  0
  7 22  1  0  0  0
 22 23  2  0  0  0
 22 24  1  0  0  0
 24 26  1  0  0  0
 26 27  1  0  0  0
 27 28  1  0  0  0
 27 30  1  0  0  0
 30 31  1  0  0  0
 31 32  1  0  0  0
 31 33  1  0  0  0
  7  2  2  0  0  0
 20 10  1  0  0  0
 20 14  1  0  0  0
  3  8  1  0  0  0
 13 21  1  0  0  0
 24 25  1  0  0  0
 28 29  1  0  0  0
M  END
> <minimizedAffinity>
21.08676

> <CNNscore>
0.4275644422

> <CNNaffinity>
5.1991147995

> <CNN_VS>
2.2229566574

> <CNNaffinity_variance>
0.1754070967

$$$$
[H]OC([H])([H])C([H])([H])C([H])([H])C([H])([H])Oc1nc2c([H])c(C([H])([H])N3C([H])([H])C([H])([H])C(C([H])([H])[H])(C([H])([H])[H])C3([H])[H])c([H])c([H])c2c(C([H])([H])[H])c1[H]


 26 28  0  0  0  0  0  0  0  0999 V2000
   15.2969   21.0826    1.0172 C   0  0  0  0  0  0  0  0  0  0  0  0
   13.9631   21.4340    0.4613 C   0  0  0  0  0  0  0  0  0  0  0  0
   12.8549   20.6611    0.7285 C   0  0  0  0  0  0  0  0  0  0  0  0
   11.6258   20.9976    0.2076 C   0  0  0  0  0  0  0  0  0  0  0  0
   11.5372   22.0925   -0.5631 N   0  0  0  0  0  0  0  0  0  0  0  0
   12.5735   22.8914   -0.8651 C   0  0  0  0  0  0  0  0  0  0  0  0
   12.4429   24.0227   -1.6704 C   0  0  0  0  0  0  0  0  0  0  0  0
   13.5250   24.8251   -1.9641 C   0  0  0  0  0  0  0  0  0  0  0  0
   14.7403   24.4604   -1.4271 C   0  0  0  0  0  0  0  0  0  0  0  0
   14.8901   23.3422   -0.6262 C   0  0  0  0  0  0  0  0  0  0  0  0
   13.8072   22.5597   -0.3463 C   0  0  0  0  0  0  0  0  0  0  0  0
   10.5322   20.1873    0.5039 O   0  0  0  0  0  0  0  0  0  0  0  0
    9.2499   20.7040    0.1934 C   0  0  0  0  0  0  0  0  0  0  0  0
    8.7247   20.0137   -1.0333 C   0  0  0  0  0  0  0  0  0  0  0  0
    7.2292   20.0729   -1.1341 C   0  0  0  0  0  0  0  0  0  0  0  0
    6.6397   18.7072   -0.8361 C   0  0  0  0  0  0  0  0  0  0  0  0
    6.3871   18.5612    0.5290 O   0  0  0  0  0  0  0  0  0  0  0  0
    6.0884   19.4527    0.8936 H   0  0  0  0  0  0  0  0  0  0  0  0
   13.3522   26.0169   -2.8256 C   0  0  0  0  0  0  0  0  0  0  0  0
   13.7762   25.8461   -4.1784 N   0  0  0  0  0  0  0  0  0  0  0  0
   13.3724   27.0643   -4.8882 C   0  0  0  0  0  0  0  0  0  0  0  0
   14.5372   28.0071   -4.6657 C   0  0  0  0  0  0  0  0  0  0  0  0
   15.6996   27.0666   -4.9038 C   0  0  0  0  0  0  0  0  0  0  0  0
   16.9902   27.5850   -4.3208 C   0  0  0  0  0  0  0  0  0  0  0  0
   15.8270   26.8921   -6.4010 C   0  0  0  0  0  0  0  0  0  0  0  0
   15.2229   25.8042   -4.2518 C   0  0  0  0  0  0  0  0  0  0  0  0
  1  2  1  0  0  0
  2  3  2  0  0  0
  3  4  1  0  0  0
  4 12  1  0  0  0
 12 13  1  0  0  0
 13 14  1  0  0  0
 14 15  1  0  0  0
 15 16  1  0  0  0
 16 17  1  0  0  0
  4  5  2  0  0  0
  5  6  1  0  0  0
  6  7  2  0  0  0
  7  8  1  0  0  0
  8 19  1  0  0  0
 19 20  1  0  0  0
 20 21  1  0  0  0
 21 22  1  0  0  0
 22 23  1  0  0  0
 23 24  1  0  0  0
 23 25  1  0  0  0
 23 26  1  0  0  0
  8  9  2  0  0  0
  9 10  1  0  0  0
 10 11  2  0  0  0
 11  2  1  0  0  0
 11  6  1  0  0  0
 26 20  1  0  0  0
 17 18  1  0  0  0
M  END
> <minimizedAffinity>
-6.24232

> <CNNscore>
0.3514205813

> <CNNaffinity>
6.5924158096

> <CNN_VS>
2.3167107105

> <CNNaffinity_variance>
0.0722832829

$$$$
[H]OC([H])([H])C([H])([H])C([H])([H])C([H])([H])Oc1nc2c([H])c(C([H])([H])N3C([H])([H])C([H])([H])C(C([H])([H])[H])(C([H])([H])[H])C3([H])[H])c([H])c([H])c2c(C([H])([H])[H])c1[H]


 26 28  0  0  0  0  0  0  0  0999 V2000
   16.8939   24.8216   -0.3911 C   0  0  0  0  0  0  0  0  0  0  0  0
   15.7910   24.8451   -1.3884 C   0  0  0  0  0  0  0  0  0  0  0  0
   16.0450   25.0597   -2.7250 C   0  0  0  0  0  0  0  0  0  0  0  0
   15.0148   25.0789   -3.6379 C   0  0  0  0  0  0  0  0  0  0  0  0
   13.7638   24.8843   -3.1930 N   0  0  0  0  0  0  0  0  0  0  0  0
   13.4427   24.6698   -1.9069 C   0  0  0  0  0  0  0  0  0  0  0  0
   12.1294   24.4712   -1.4814 C   0  0  0  0  0  0  0  0  0  0  0  0
   11.8289   24.2530   -0.1535 C   0  0  0  0  0  0  0  0  0  0  0  0
   12.8827   24.2398    0.7340 C   0  0  0  0  0  0  0  0  0  0  0  0
   14.1920   24.4348    0.3314 C   0  0  0  0  0  0  0  0  0  0  0  0
   14.4702   24.6493   -0.9876 C   0  0  0  0  0  0  0  0  0  0  0  0
   15.3176   25.2993   -4.9795 O   0  0  0  0  0  0  0  0  0  0  0  0
   14.8635   26.5156   -5.5469 C   0  0  0  0  0  0  0  0  0  0  0  0
   16.0448   27.4031   -5.8197 C   0  0  0  0  0  0  0  0  0  0  0  0
   16.3341   28.3442   -4.6881 C   0  0  0  0  0  0  0  0  0  0  0  0
   17.5729   27.8855   -3.9422 C   0  0  0  0  0  0  0  0  0  0  0  0
   18.5614   28.8709   -3.9655 O   0  0  0  0  0  0  0  0  0  0  0  0
   18.1121   29.7723   -3.9154 H   0  0  0  0  0  0  0  0  0  0  0  0
   10.4233   24.0495    0.2649 C   0  0  0  0  0  0  0  0  0  0  0  0
   10.1110   22.7242    0.6950 N   0  0  0  0  0  0  0  0  0  0  0  0
    9.3076   22.1272   -0.3769 C   0  0  0  0  0  0  0  0  0  0  0  0
   10.3450   21.5528   -1.3198 C   0  0  0  0  0  0  0  0  0  0  0  0
   11.2937   20.9154   -0.3268 C   0  0  0  0  0  0  0  0  0  0  0  0
   12.6559   20.6517   -0.9178 C   0  0  0  0  0  0  0  0  0  0  0  0
   10.6541   19.6221    0.1277 C   0  0  0  0  0  0  0  0  0  0  0  0
   11.3166   21.9248    0.7807 C   0  0  0  0  0  0  0  0  0  0  0  0
  1  2  1  0  0  0
  2  3  2  0  0  0
  3  4  1  0  0  0
  4 12  1  0  0  0
 12 13  1  0  0  0
 13 14  1  0  0  0
 14 15  1  0  0  0
 15 16  1  0  0  0
 16 17  1  0  0  0
  4  5  2  0  0  0
  5  6  1  0  0  0
  6  7  2  0  0  0
  7  8  1  0  0  0
  8 19  1  0  0  0
 19 20  1  0  0  0
 20 21  1  0  0  0
 21 22  1  0  0  0
 22 23  1  0  0  0
 23 24  1  0  0  0
 23 25  1  0  0  0
 23 26  1  0  0  0
  8  9  2  0  0  0
  9 10  1  0  0  0
 10 11  2  0  0  0
 11  2  1  0  0  0
 11  6  1  0  0  0
 26 20  1  0  0  0
 17 18  1  0  0  0
M  END
> <minimizedAffinity>
-7.44695

> <CNNscore>
0.3391037583

> <CNNaffinity>
6.9204797745

> <CNN_VS>
2.3467607498

> <CNNaffinity_variance>
0.4472497106

$$$$
[H]OC([H])([H])C([H])([H])C([H])([H])C([H])([H])Oc1nc2c([H])c(C([H])([H])N3C([H])([H])C([H])([H])C(C([H])([H])[H])(C([H])([H])[H])C3([H])[H])c([H])c([H])c2c(C([H])([H])[H])c1[H]


 26 28  0  0  0  0  0  0  0  0999 V2000
   16.4404   24.5106    0.4558 C   0  0  0  0  0  0  0  0  0  0  0  0
   15.4591   24.3468   -0.6496 C   0  0  0  0  0  0  0  0  0  0  0  0
   15.4395   25.2158   -1.7181 C   0  0  0  0  0  0  0  0  0  0  0  0
   14.5259   25.0528   -2.7348 C   0  0  0  0  0  0  0  0  0  0  0  0
   13.6600   24.0306   -2.6573 N   0  0  0  0  0  0  0  0  0  0  0  0
   13.6215   23.1462   -1.6476 C   0  0  0  0  0  0  0  0  0  0  0  0
   12.7060   22.0950   -1.6014 C   0  0  0  0  0  0  0  0  0  0  0  0
   12.6894   21.2014   -0.5514 C   0  0  0  0  0  0  0  0  0  0  0  0
   13.6167   21.3927    0.4496 C   0  0  0  0  0  0  0  0  0  0  0  0
   14.5328   22.4292    0.4218 C   0  0  0  0  0  0  0  0  0  0  0  0
   14.5341   23.3040   -0.6260 C   0  0  0  0  0  0  0  0  0  0  0  0
   14.5420   25.9552   -3.7959 O   0  0  0  0  0  0  0  0  0  0  0  0
   15.8043   26.2456   -4.3702 C   0  0  0  0  0  0  0  0  0  0  0  0
   15.6286   27.2741   -5.4511 C   0  0  0  0  0  0  0  0  0  0  0  0
   14.8657   26.7483   -6.6307 C   0  0  0  0  0  0  0  0  0  0  0  0
   15.5408   25.4987   -7.1637 C   0  0  0  0  0  0  0  0  0  0  0  0
   16.2171   25.7679   -8.3548 O   0  0  0  0  0  0  0  0  0  0  0  0
   16.6023   26.6982   -8.2978 H   0  0  0  0  0  0  0  0  0  0  0  0
   11.7016   20.0987   -0.5317 C   0  0  0  0  0  0  0  0  0  0  0  0
   10.5987   20.2967    0.3535 N   0  0  0  0  0  0  0  0  0  0  0  0
   10.2175   21.7065    0.2197 C   0  0  0  0  0  0  0  0  0  0  0  0
    9.2515   21.7036   -0.9474 C   0  0  0  0  0  0  0  0  0  0  0  0
    8.4189   20.4848   -0.6100 C   0  0  0  0  0  0  0  0  0  0  0  0
    7.6652   19.9526   -1.8030 C   0  0  0  0  0  0  0  0  0  0  0  0
    7.4579   20.8953    0.4837 C   0  0  0  0  0  0  0  0  0  0  0  0
    9.4517   19.5308   -0.0911 C   0  0  0  0  0  0  0  0  0  0  0  0
  1  2  1  0  0  0
  2  3  2  0  0  0
  3  4  1  0  0  0
  4 12  1  0  0  0
 12 13  1  0  0  0
 13 14  1  0  0  0
 14 15  1  0  0  0
 15 16  1  0  0  0
 16 17  1  0  0  0
  4  5  2  0  0  0
  5  6  1  0  0  0
  6  7  2  0  0  0
  7  8  1  0  0  0
  8 19  1  0  0  0
 19 20  1  0  0  0
 20 21  1  0  0  0
 21 22  1  0  0  0
 22 23  1  0  0  0
 23 24  1  0  0  0
 23 25  1  0  0  0
 23 26  1  0  0  0
  8  9  2  0  0  0
  9 10  1  0  0  0
 10 11  2  0  0  0
 11  2  1  0  0  0
 11  6  1  0  0  0
 26 20  1  0  0  0
 17 18  1  0  0  0
M  END
> <minimizedAffinity>
-6.15435

> <CNNscore>
0.3046055138

> <CNNaffinity>
6.5801229477

> <CNN_VS>
2.0043418407

> <CNNaffinity_variance>
0.2054089010

$$$$
[H]OC([H])([H])C([H])([H])C([H])([H])C([H])([H])Oc1nc2c([H])c(C([H])([H])N3C([H])([H])C([H])([H])C(C([H])([H])[H])(C([H])([H])[H])C3([H])[H])c([H])c([H])c2c(C([H])([H])[H])c1[H]


 26 28  0  0  0  0  0  0  0  0999 V2000
   15.9277   22.8895    0.5382 C   0  0  0  0  0  0  0  0  0  0  0  0
   14.5681   23.0904   -0.0299 C   0  0  0  0  0  0  0  0  0  0  0  0
   13.5269   22.2527    0.3033 C   0  0  0  0  0  0  0  0  0  0  0  0
   12.2731   22.4499   -0.2298 C   0  0  0  0  0  0  0  0  0  0  0  0
   12.0939   23.4742   -1.0780 N   0  0  0  0  0  0  0  0  0  0  0  0
   13.0612   24.3292   -1.4471 C   0  0  0  0  0  0  0  0  0  0  0  0
   12.8371   25.3837   -2.3321 C   0  0  0  0  0  0  0  0  0  0  0  0
   13.8498   26.2467   -2.6938 C   0  0  0  0  0  0  0  0  0  0  0  0
   15.0923   26.0216   -2.1424 C   0  0  0  0  0  0  0  0  0  0  0  0
   15.3344   24.9813   -1.2629 C   0  0  0  0  0  0  0  0  0  0  0  0
   14.3193   24.1371   -0.9166 C   0  0  0  0  0  0  0  0  0  0  0  0
   11.2495   21.5784    0.1350 O   0  0  0  0  0  0  0  0  0  0  0  0
   11.6215   20.4262    0.8709 C   0  0  0  0  0  0  0  0  0  0  0  0
   11.3650   20.6702    2.3310 C   0  0  0  0  0  0  0  0  0  0  0  0
   11.0172   19.4147    3.0744 C   0  0  0  0  0  0  0  0  0  0  0  0
   11.6919   19.4185    4.4331 C   0  0  0  0  0  0  0  0  0  0  0  0
   10.8124   19.8574    5.4243 O   0  0  0  0  0  0  0  0  0  0  0  0
    9.8876   19.5249    5.1979 H   0  0  0  0  0  0  0  0  0  0  0  0
   13.5786   27.3537   -3.6388 C   0  0  0  0  0  0  0  0  0  0  0  0
   13.7916   27.0345   -5.0142 N   0  0  0  0  0  0  0  0  0  0  0  0
   15.0209   27.7305   -5.4079 C   0  0  0  0  0  0  0  0  0  0  0  0
   16.1169   26.7535   -5.0346 C   0  0  0  0  0  0  0  0  0  0  0  0
   15.5123   25.4595   -5.5371 C   0  0  0  0  0  0  0  0  0  0  0  0
   16.1529   24.2437   -4.9157 C   0  0  0  0  0  0  0  0  0  0  0  0
   15.6905   25.4428   -7.0392 C   0  0  0  0  0  0  0  0  0  0  0  0
   14.0692   25.6204   -5.1663 C   0  0  0  0  0  0  0  0  0  0  0  0
  1  2  1  0  0  0
  2  3  2  0  0  0
  3  4  1  0  0  0
  4 12  1  0  0  0
 12 13  1  0  0  0
 13 14  1  0  0  0
 14 15  1  0  0  0
 15 16  1  0  0  0
 16 17  1  0  0  0
  4  5  2  0  0  0
  5  6  1  0  0  0
  6  7  2  0  0  0
  7  8  1  0  0  0
  8 19  1  0  0  0
 19 20  1  0  0  0
 20 21  1  0  0  0
 21 22  1  0  0  0
 22 23  1  0  0  0
 23 24  1  0  0  0
 23 25  1  0  0  0
 23 26  1  0  0  0
  8  9  2  0  0  0
  9 10  1  0  0  0
 10 11  2  0  0  0
 11  2  1  0  0  0
 11  6  1  0  0  0
 26 20  1  0  0  0
 17 18  1  0  0  0
M  END
> <minimizedAffinity>
-3.67998

> <CNNscore>
0.2948309779

> <CNNaffinity>
6.7827248573

> <CNN_VS>
1.9997574091

> <CNNaffinity_variance>
0.3311419487

$$$$
[H]OC([H])([H])C([H])([H])C([H])([H])C([H])([H])Oc1nc2c([H])c(C([H])([H])N3C([H])([H])C([H])([H])C(C([H])([H])[H])(C([H])([H])[H])C3([H])[H])c([H])c([H])c2c(C([H])([H])[H])c1[H]


 26 28  0  0  0  0  0  0  0  0999 V2000
   15.1819   23.6179   -0.2492 C   0  0  0  0  0  0  0  0  0  0  0  0
   13.9802   24.2090   -0.8957 C   0  0  0  0  0  0  0  0  0  0  0  0
   14.0940   25.2440   -1.7974 C   0  0  0  0  0  0  0  0  0  0  0  0
   12.9734   25.7821   -2.3888 C   0  0  0  0  0  0  0  0  0  0  0  0
   11.7743   25.2743   -2.0649 N   0  0  0  0  0  0  0  0  0  0  0  0
   11.5884   24.2677   -1.1957 C   0  0  0  0  0  0  0  0  0  0  0  0
   10.3252   23.7655   -0.8837 C   0  0  0  0  0  0  0  0  0  0  0  0
   10.1641   22.7307    0.0131 C   0  0  0  0  0  0  0  0  0  0  0  0
   11.3056   22.2148    0.5870 C   0  0  0  0  0  0  0  0  0  0  0  0
   12.5672   22.6993    0.2904 C   0  0  0  0  0  0  0  0  0  0  0  0
   12.7069   23.7243   -0.6000 C   0  0  0  0  0  0  0  0  0  0  0  0
   13.1354   26.8277   -3.2948 O   0  0  0  0  0  0  0  0  0  0  0  0
   13.3542   26.4732   -4.6491 C   0  0  0  0  0  0  0  0  0  0  0  0
   14.8134   26.6317   -4.9700 C   0  0  0  0  0  0  0  0  0  0  0  0
   15.3289   25.5463   -5.8679 C   0  0  0  0  0  0  0  0  0  0  0  0
   15.7978   26.1449   -7.1806 C   0  0  0  0  0  0  0  0  0  0  0  0
   16.1029   27.4987   -7.0294 O   0  0  0  0  0  0  0  0  0  0  0  0
   16.5042   27.6333   -6.1141 H   0  0  0  0  0  0  0  0  0  0  0  0
    8.8083   22.2238    0.3248 C   0  0  0  0  0  0  0  0  0  0  0  0
    8.6978   20.8013    0.3818 N   0  0  0  0  0  0  0  0  0  0  0  0
    7.4438   20.5185    1.0877 C   0  0  0  0  0  0  0  0  0  0  0  0
    6.4050   20.5327   -0.0149 C   0  0  0  0  0  0  0  0  0  0  0  0
    7.1323   19.7475   -1.0858 C   0  0  0  0  0  0  0  0  0  0  0  0
    6.5509   19.9697   -2.4595 C   0  0  0  0  0  0  0  0  0  0  0  0
    7.0409   18.2872   -0.7018 C   0  0  0  0  0  0  0  0  0  0  0  0
    8.5361   20.2545   -0.9504 C   0  0  0  0  0  0  0  0  0  0  0  0
  1  2  1  0  0  0
  2  3  2  0  0  0
  3  4  1  0  0  0
  4 12  1  0  0  0
 12 13  1  0  0  0
 13 14  1  0  0  0
 14 15  1  0  0  0
 15 16  1  0  0  0
 16 17  1  0  0  0
  4  5  2  0  0  0
  5  6  1  0  0  0
  6  7  2  0  0  0
  7  8  1  0  0  0
  8 19  1  0  0  0
 19 20  1  0  0  0
 20 21  1  0  0  0
 21 22  1  0  0  0
 22 23  1  0  0  0
 23 24  1  0  0  0
 23 25  1  0  0  0
 23 26  1  0  0  0
  8  9  2  0  0  0
  9 10  1  0  0  0
 10 11  2  0  0  0
 11  2  1  0  0  0
 11  6  1  0  0  0
 26 20  1  0  0  0
 17 18  1  0  0  0
M  END
> <minimizedAffinity>
-6.09717

> <CNNscore>
0.2878812850

> <CNNaffinity>
6.3115892410

> <CNN_VS>
1.8169884682

> <CNNaffinity_variance>
0.2889587283

$$$$
[H]OC([H])([H])C([H])([H])C([H])([H])C([H])([H])Oc1nc2c([H])c(C([H])([H])N3C([H])([H])C([H])([H])C(C([H])([H])[H])(C([H])([H])[H])C3([H])[H])c([H])c([H])c2c(C([H])([H])[H])c1[H]


 26 28  0  0  0  0  0  0  0  0999 V2000
   14.2131   20.2061    2.0046 C   0  0  0  0  0  0  0  0  0  0  0  0
   13.2101   20.6966    1.0221 C   0  0  0  0  0  0  0  0  0  0  0  0
   11.8598   20.5527    1.2519 C   0  0  0  0  0  0  0  0  0  0  0  0
   10.9418   21.0114    0.3342 C   0  0  0  0  0  0  0  0  0  0  0  0
   11.3956   21.5988   -0.7836 N   0  0  0  0  0  0  0  0  0  0  0  0
   12.6952   21.7728   -1.0732 C   0  0  0  0  0  0  0  0  0  0  0  0
   13.1296   22.3889   -2.2468 C   0  0  0  0  0  0  0  0  0  0  0  0
   14.4713   22.5541   -2.5181 C   0  0  0  0  0  0  0  0  0  0  0  0
   15.3635   22.0840   -1.5793 C   0  0  0  0  0  0  0  0  0  0  0  0
   14.9523   21.4703   -0.4094 C   0  0  0  0  0  0  0  0  0  0  0  0
   13.6196   21.3156   -0.1580 C   0  0  0  0  0  0  0  0  0  0  0  0
    9.5862   20.8448    0.6077 O   0  0  0  0  0  0  0  0  0  0  0  0
    8.7536   21.9776    0.4314 C   0  0  0  0  0  0  0  0  0  0  0  0
    7.5984   21.8934    1.3883 C   0  0  0  0  0  0  0  0  0  0  0  0
    6.3738   21.2925    0.7643 C   0  0  0  0  0  0  0  0  0  0  0  0
    6.7693   20.4414   -0.4276 C   0  0  0  0  0  0  0  0  0  0  0  0
    7.0993   19.1457   -0.0264 O   0  0  0  0  0  0  0  0  0  0  0  0
    6.4973   18.8879    0.7404 H   0  0  0  0  0  0  0  0  0  0  0  0
   14.8984   23.2091   -3.7754 C   0  0  0  0  0  0  0  0  0  0  0  0
   15.6843   24.3885   -3.6007 N   0  0  0  0  0  0  0  0  0  0  0  0
   16.0363   24.8463   -4.9488 C   0  0  0  0  0  0  0  0  0  0  0  0
   14.8608   25.7153   -5.3466 C   0  0  0  0  0  0  0  0  0  0  0  0
   14.6500   26.4932   -4.0649 C   0  0  0  0  0  0  0  0  0  0  0  0
   13.2785   27.1156   -3.9866 C   0  0  0  0  0  0  0  0  0  0  0  0
   15.7200   27.5613   -4.0153 C   0  0  0  0  0  0  0  0  0  0  0  0
   14.8833   25.4463   -3.0182 C   0  0  0  0  0  0  0  0  0  0  0  0
  1  2  1  0  0  0
  2  3  2  0  0  0
  3  4  1  0  0  0
  4 12  1  0  0  0
 12 13  1  0  0  0
 13 14  1  0  0  0
 14 15  1  0  0  0
 15 16  1  0  0  0
 16 17  1  0  0  0
  4  5  2  0  0  0
  5  6  1  0  0  0
  6  7  2  0  0  0
  7  8  1  0  0  0
  8 19  1  0  0  0
 19 20  1  0  0  0
 20 21  1  0  0  0
 21 22  1  0  0  0
 22 23  1  0  0  0
 23 24  1  0  0  0
 23 25  1  0  0  0
 23 26  1  0  0  0
  8  9  2  0  0  0
  9 10  1  0  0  0
 10 11  2  0  0  0
 11  2  1  0  0  0
 11  6  1  0  0  0
 26 20  1  0  0  0
 17 18  1  0  0  0
M  END
> <minimizedAffinity>
-2.86932

> <CNNscore>
0.2796429098

> <CNNaffinity>
6.2753987312

> <CNN_VS>
1.7548707724

> <CNNaffinity_variance>
0.2425305545

$$$$
[H]OC([H])([H])C([H])([H])C([H])([H])C([H])([H])Oc1nc2c([H])c(C([H])([H])N3C([H])([H])C([H])([H])C(C([H])([H])[H])(C([H])([H])[H])C3([H])[H])c([H])c([H])c2c(C([H])([H])[H])c1[H]


 26 28  0  0  0  0  0  0  0  0999 V2000
   16.4161   24.5775   -0.9547 C   0  0  0  0  0  0  0  0  0  0  0  0
   15.1468   24.9242   -1.6476 C   0  0  0  0  0  0  0  0  0  0  0  0
   15.1528   25.4711   -2.9117 C   0  0  0  0  0  0  0  0  0  0  0  0
   13.9705   25.7874   -3.5421 C   0  0  0  0  0  0  0  0  0  0  0  0
   12.8189   25.5501   -2.8955 N   0  0  0  0  0  0  0  0  0  0  0  0
   12.7375   25.0202   -1.6643 C   0  0  0  0  0  0  0  0  0  0  0  0
   11.5208   24.7875   -1.0233 C   0  0  0  0  0  0  0  0  0  0  0  0
   11.4673   24.2420    0.2419 C   0  0  0  0  0  0  0  0  0  0  0  0
   12.6682   23.9370    0.8446 C   0  0  0  0  0  0  0  0  0  0  0  0
   13.8851   24.1603    0.2252 C   0  0  0  0  0  0  0  0  0  0  0  0
   13.9182   24.7012   -1.0276 C   0  0  0  0  0  0  0  0  0  0  0  0
   14.0238   26.3386   -4.8202 O   0  0  0  0  0  0  0  0  0  0  0  0
   15.1323   25.9799   -5.6264 C   0  0  0  0  0  0  0  0  0  0  0  0
   15.7448   27.2245   -6.2036 C   0  0  0  0  0  0  0  0  0  0  0  0
   16.0031   28.2763   -5.1657 C   0  0  0  0  0  0  0  0  0  0  0  0
   17.3167   27.9920   -4.4621 C   0  0  0  0  0  0  0  0  0  0  0  0
   17.4070   28.7093   -3.2679 O   0  0  0  0  0  0  0  0  0  0  0  0
   16.4874   28.7585   -2.8570 H   0  0  0  0  0  0  0  0  0  0  0  0
   10.1589   24.0115    0.8954 C   0  0  0  0  0  0  0  0  0  0  0  0
   10.2030   23.9480    2.3212 N   0  0  0  0  0  0  0  0  0  0  0  0
    9.4263   25.0945    2.8039 C   0  0  0  0  0  0  0  0  0  0  0  0
    8.0063   24.5684    2.8466 C   0  0  0  0  0  0  0  0  0  0  0  0
    8.2383   23.2050    3.4629 C   0  0  0  0  0  0  0  0  0  0  0  0
    7.0868   22.2607    3.2248 C   0  0  0  0  0  0  0  0  0  0  0  0
    8.4491   23.4204    4.9452 C   0  0  0  0  0  0  0  0  0  0  0  0
    9.5069   22.7685    2.7950 C   0  0  0  0  0  0  0  0  0  0  0  0
  1  2  1  0  0  0
  2  3  2  0  0  0
  3  4  1  0  0  0
  4 12  1  0  0  0
 12 13  1  0  0  0
 13 14  1  0  0  0
 14 15  1  0  0  0
 15 16  1  0  0  0
 16 17  1  0  0  0
  4  5  2  0  0  0
  5  6  1  0  0  0
  6  7  2  0  0  0
  7  8  1  0  0  0
  8 19  1  0  0  0
 19 20  1  0  0  0
 20 21  1  0  0  0
 21 22  1  0  0  0
 22 23  1  0  0  0
 23 24  1  0  0  0
 23 25  1  0  0  0
 23 26  1  0  0  0
  8  9  2  0  0  0
  9 10  1  0  0  0
 10 11  2  0  0  0
 11  2  1  0  0  0
 11  6  1  0  0  0
 26 20  1  0  0  0
 17 18  1  0  0  0
M  END
> <minimizedAffinity>
-7.46609

> <CNNscore>
0.2793762386

> <CNNaffinity>
6.2015023232

> <CNN_VS>
1.7325524092

> <CNNaffinity_variance>
0.3269107938

$$$$
[H]OC([H])([H])C([H])([H])C([H])([H])C([H])([H])Oc1nc2c([H])c(C([H])([H])N3C([H])([H])C([H])([H])C(C([H])([H])[H])(C([H])([H])[H])C3([H])[H])c([H])c([H])c2c(C([H])([H])[H])c1[H]


 26 28  0  0  0  0  0  0  0  0999 V2000
   16.2112   24.4334    0.8394 C   0  0  0  0  0  0  0  0  0  0  0  0
   14.9757   24.4140    0.0120 C   0  0  0  0  0  0  0  0  0  0  0  0
   13.7315   24.3093    0.5935 C   0  0  0  0  0  0  0  0  0  0  0  0
   12.5957   24.2926   -0.1841 C   0  0  0  0  0  0  0  0  0  0  0  0
   12.7325   24.3803   -1.5161 N   0  0  0  0  0  0  0  0  0  0  0  0
   13.9114   24.4845   -2.1505 C   0  0  0  0  0  0  0  0  0  0  0  0
   14.0145   24.5738   -3.5386 C   0  0  0  0  0  0  0  0  0  0  0  0
   15.2391   24.6799   -4.1634 C   0  0  0  0  0  0  0  0  0  0  0  0
   16.3558   24.6938   -3.3564 C   0  0  0  0  0  0  0  0  0  0  0  0
   16.2741   24.6063   -1.9781 C   0  0  0  0  0  0  0  0  0  0  0  0
   15.0529   24.5019   -1.3773 C   0  0  0  0  0  0  0  0  0  0  0  0
   11.3583   24.1854    0.4465 O   0  0  0  0  0  0  0  0  0  0  0  0
   11.2988   23.3735    1.6062 C   0  0  0  0  0  0  0  0  0  0  0  0
   10.6998   22.0435    1.2461 C   0  0  0  0  0  0  0  0  0  0  0  0
   11.5417   20.8884    1.7010 C   0  0  0  0  0  0  0  0  0  0  0  0
   12.7845   20.7867    0.8369 C   0  0  0  0  0  0  0  0  0  0  0  0
   13.9399   20.8467    1.6179 O   0  0  0  0  0  0  0  0  0  0  0  0
   13.7578   20.3758    2.4908 H   0  0  0  0  0  0  0  0  0  0  0  0
   15.3131   24.7691   -5.6395 C   0  0  0  0  0  0  0  0  0  0  0  0
   15.2401   26.0947   -6.1651 N   0  0  0  0  0  0  0  0  0  0  0  0
   14.2028   26.7832   -5.3901 C   0  0  0  0  0  0  0  0  0  0  0  0
   14.9554   27.3238   -4.1916 C   0  0  0  0  0  0  0  0  0  0  0  0
   16.1990   27.8597   -4.8689 C   0  0  0  0  0  0  0  0  0  0  0  0
   17.3420   28.0560   -3.9048 C   0  0  0  0  0  0  0  0  0  0  0  0
   15.8190   29.1739   -5.5144 C   0  0  0  0  0  0  0  0  0  0  0  0
   16.4729   26.8097   -5.9026 C   0  0  0  0  0  0  0  0  0  0  0  0
  1  2  1  0  0  0
  2  3  2  0  0  0
  3  4  1  0  0  0
  4 12  1  0  0  0
 12 13  1  0  0  0
 13 14  1  0  0  0
 14 15  1  0  0  0
 15 16  1  0  0  0
 16 17  1  0  0  0
  4  5  2  0  0  0
  5  6  1  0  0  0
  6  7  2  0  0  0
  7  8  1  0  0  0
  8 19  1  0  0  0
 19 20  1  0  0  0
 20 21  1  0  0  0
 21 22  1  0  0  0
 22 23  1  0  0  0
 23 24  1  0  0  0
 23 25  1  0  0  0
 23 26  1  0  0  0
  8  9  2  0  0  0
  9 10  1  0  0  0
 10 11  2  0  0  0
 11  2  1  0  0  0
 11  6  1  0  0  0
 26 20  1  0  0  0
 17 18  1  0  0  0
M  END
> <minimizedAffinity>
-5.92444

> <CNNscore>
0.2720171511

> <CNNaffinity>
6.8759613037

> <CNN_VS>
1.8703794479

> <CNNaffinity_variance>
0.2426238954

$$$$
[H]OC([H])([H])C([H])([H])C([H])([H])C([H])([H])Oc1nc2c([H])c(C([H])([H])N3C([H])([H])C([H])([H])C(C([H])([H])[H])(C([H])([H])[H])C3([H])[H])c([H])c([H])c2c(C([H])([H])[H])c1[H]


 26 28  0  0  0  0  0  0  0  0999 V2000
    9.1524   24.0569    1.8443 C   0  0  0  0  0  0  0  0  0  0  0  0
   10.2879   23.1125    1.6698 C   0  0  0  0  0  0  0  0  0  0  0  0
   10.2254   21.8266    2.1593 C   0  0  0  0  0  0  0  0  0  0  0  0
   11.2836   20.9624    1.9908 C   0  0  0  0  0  0  0  0  0  0  0  0
   12.3713   21.4041    1.3408 N   0  0  0  0  0  0  0  0  0  0  0  0
   12.5017   22.6423    0.8378 C   0  0  0  0  0  0  0  0  0  0  0  0
   13.6489   23.0660    0.1671 C   0  0  0  0  0  0  0  0  0  0  0  0
   13.7551   24.3441   -0.3392 C   0  0  0  0  0  0  0  0  0  0  0  0
   12.6785   25.1837   -0.1535 C   0  0  0  0  0  0  0  0  0  0  0  0
   11.5321   24.7820    0.5088 C   0  0  0  0  0  0  0  0  0  0  0  0
   11.4451   23.5127    1.0032 C   0  0  0  0  0  0  0  0  0  0  0  0
   11.1770   19.6711    2.5021 O   0  0  0  0  0  0  0  0  0  0  0  0
   11.8488   19.4078    3.7215 C   0  0  0  0  0  0  0  0  0  0  0  0
   11.0982   20.0598    4.8480 C   0  0  0  0  0  0  0  0  0  0  0  0
    9.9091   19.2593    5.2897 C   0  0  0  0  0  0  0  0  0  0  0  0
    8.6456   20.0827    5.1254 C   0  0  0  0  0  0  0  0  0  0  0  0
    7.5757   19.2788    4.7285 O   0  0  0  0  0  0  0  0  0  0  0  0
    7.6702   18.3806    5.1770 H   0  0  0  0  0  0  0  0  0  0  0  0
   14.9888   24.7629   -1.0426 C   0  0  0  0  0  0  0  0  0  0  0  0
   15.0650   24.3616   -2.4109 N   0  0  0  0  0  0  0  0  0  0  0  0
   13.8174   24.8113   -3.0370 C   0  0  0  0  0  0  0  0  0  0  0  0
   14.1251   26.2331   -3.4600 C   0  0  0  0  0  0  0  0  0  0  0  0
   15.5107   26.0512   -4.0424 C   0  0  0  0  0  0  0  0  0  0  0  0
   16.2709   27.3502   -4.1397 C   0  0  0  0  0  0  0  0  0  0  0  0
   15.3365   25.4355   -5.4131 C   0  0  0  0  0  0  0  0  0  0  0  0
   16.1292   25.0760   -3.0872 C   0  0  0  0  0  0  0  0  0  0  0  0
  1  2  1  0  0  0
  2  3  2  0  0  0
  3  4  1  0  0  0
  4 12  1  0  0  0
 12 13  1  0  0  0
 13 14  1  0  0  0
 14 15  1  0  0  0
 15 16  1  0  0  0
 16 17  1  0  0  0
  4  5  2  0  0  0
  5  6  1  0  0  0
  6  7  2  0  0  0
  7  8  1  0  0  0
  8 19  1  0  0  0
 19 20  1  0  0  0
 20 21  1  0  0  0
 21 22  1  0  0  0
 22 23  1  0  0  0
 23 24  1  0  0  0
 23 25  1  0  0  0
 23 26  1  0  0  0
  8  9  2  0  0  0
  9 10  1  0  0  0
 10 11  2  0  0  0
 11  2  1  0  0  0
 11  6  1  0  0  0
 26 20  1  0  0  0
 17 18  1  0  0  0
M  END
> <minimizedAffinity>
-7.83940

> <CNNscore>
0.2716355026

> <CNNaffinity>
6.2316002846

> <CNN_VS>
1.6927238703

> <CNNaffinity_variance>
0.1487716138

$$$$
[H]c1nc([C@@]2([H])C([H])([H])[C@]2([H])C([H])([H])Oc2nc(C([H])([H])[H])nc([H])c2-c2c([H])nn(C([H])([H])[H])c2[H])c([H])c([H])c1OC([H])([H])[H]


 26 29  0  0  0  0  0  0  0  0999 V2000
   13.0948   24.7877   -2.5967 O   0  0  0  0  0  0  0  0  0  0  0  0
   14.3364   25.3618   -2.8314 C   0  0  0  0  0  0  0  0  0  0  0  0
   14.5587   26.2634   -3.7800 N   0  0  0  0  0  0  0  0  0  0  0  0
   15.7672   26.8278   -4.0148 C   0  0  0  0  0  0  0  0  0  0  0  0
   15.9137   27.8307   -5.1037 C   0  0  0  0  0  0  0  0  0  0  0  0
   16.7860   26.4495   -3.2432 N   0  0  0  0  0  0  0  0  0  0  0  0
   16.6119   25.5484   -2.2789 C   0  0  0  0  0  0  0  0  0  0  0  0
   15.3720   24.9518   -2.0181 C   0  0  0  0  0  0  0  0  0  0  0  0
   15.2487   23.9850   -0.9622 C   0  0  0  0  0  0  0  0  0  0  0  0
   15.4558   24.0830    0.3982 C   0  0  0  0  0  0  0  0  0  0  0  0
   15.2012   22.8846    0.9404 N   0  0  0  0  0  0  0  0  0  0  0  0
   14.8451   22.0179    0.0361 N   0  0  0  0  0  0  0  0  0  0  0  0
   14.5043   20.6292    0.3200 C   0  0  0  0  0  0  0  0  0  0  0  0
   14.8616   22.6564   -1.1510 C   0  0  0  0  0  0  0  0  0  0  0  0
   12.1850   25.5230   -1.8061 C   0  0  0  0  0  0  0  0  0  0  0  0
   11.7777   23.7590    0.0576 C   0  0  0  0  0  0  0  0  0  0  0  0
   11.2027   23.1884   -1.2152 C   0  0  0  0  0  0  0  0  0  0  0  0
   11.2520   24.6560   -1.0184 C   0  0  0  0  0  0  0  0  0  0  0  0
    9.5597   23.3294    3.7011 C   0  0  0  0  0  0  0  0  0  0  0  0
    9.4755   24.5074    2.9888 C   0  0  0  0  0  0  0  0  0  0  0  0
   10.2026   24.6258    1.8102 C   0  0  0  0  0  0  0  0  0  0  0  0
   11.0035   23.6140    1.3255 C   0  0  0  0  0  0  0  0  0  0  0  0
   11.0615   22.4796    2.0463 N   0  0  0  0  0  0  0  0  0  0  0  0
   10.3684   22.3353    3.1923 C   0  0  0  0  0  0  0  0  0  0  0  0
    8.7366   21.8121    5.4189 C   0  0  0  0  0  0  0  0  0  0  0  0
    8.8657   23.1190    4.8954 O   0  0  0  0  0  0  0  0  0  0  0  0
 25 26  1  0  0  0
 26 19  1  0  0  0
 19 20  2  0  0  0
 20 21  1  0  0  0
 21 22  2  0  0  0
 22 23  1  0  0  0
 23 24  2  0  0  0
 22 16  1  0  0  0
 16 17  1  0  0  0
 17 18  1  0  0  0
 18 15  1  0  0  0
 15  1  1  0  0  0
  1  2  1  0  0  0
  2  3  2  0  0  0
  3  4  1  0  0  0
  4  5  1  0  0  0
  4  6  2  0  0  0
  6  7  1  0  0  0
  7  8  2  0  0  0
  8  9  1  0  0  0
  9 10  1  0  0  0
 10 11  2  0  0  0
 11 12  1  0  0  0
 12 13  1  0  0  0
 12 14  1  0  0  0
 24 19  1  0  0  0
 18 16  1  0  0  0
  8  2  1  0  0  0
 14  9  2  0  0  0
M  END
> <minimizedAffinity>
-7.86832

> <CNNscore>
0.8343558311

> <CNNaffinity>
7.4882330894

> <CNN_VS>
6.2478508949

> <CNNaffinity_variance>
0.0940238014

$$$$
[H]c1nc([C@@]2([H])C([H])([H])[C@]2([H])C([H])([H])Oc2nc(C([H])([H])[H])nc([H])c2-c2c([H])nn(C([H])([H])[H])c2[H])c([H])c([H])c1OC([H])([H])[H]


 26 29  0  0  0  0  0  0  0  0999 V2000
   14.7728   23.7254   -2.0423 O   0  0  0  0  0  0  0  0  0  0  0  0
   14.3618   24.7599   -2.8712 C   0  0  0  0  0  0  0  0  0  0  0  0
   15.0111   25.1180   -3.9723 N   0  0  0  0  0  0  0  0  0  0  0  0
   14.6160   26.1261   -4.7858 C   0  0  0  0  0  0  0  0  0  0  0  0
   15.4137   26.4505   -5.9989 C   0  0  0  0  0  0  0  0  0  0  0  0
   13.5099   26.7911   -4.4530 N   0  0  0  0  0  0  0  0  0  0  0  0
   12.8249   26.4685   -3.3580 C   0  0  0  0  0  0  0  0  0  0  0  0
   13.2144   25.4303   -2.5025 C   0  0  0  0  0  0  0  0  0  0  0  0
   12.4318   25.1308   -1.3352 C   0  0  0  0  0  0  0  0  0  0  0  0
   12.6463   25.3896    0.0027 C   0  0  0  0  0  0  0  0  0  0  0  0
   11.6054   24.8989    0.6887 N   0  0  0  0  0  0  0  0  0  0  0  0
   10.7331   24.3422   -0.1016 N   0  0  0  0  0  0  0  0  0  0  0  0
    9.4950   23.7200    0.3515 C   0  0  0  0  0  0  0  0  0  0  0  0
   11.2048   24.4638   -1.3585 C   0  0  0  0  0  0  0  0  0  0  0  0
   14.6196   22.4097   -2.5310 C   0  0  0  0  0  0  0  0  0  0  0  0
   14.0019   21.8290   -0.0750 C   0  0  0  0  0  0  0  0  0  0  0  0
   14.8620   20.6999   -0.5862 C   0  0  0  0  0  0  0  0  0  0  0  0
   14.0197   21.4732   -1.5282 C   0  0  0  0  0  0  0  0  0  0  0  0
   10.5378   20.8971    2.2726 C   0  0  0  0  0  0  0  0  0  0  0  0
   10.6001   20.4826    0.9586 C   0  0  0  0  0  0  0  0  0  0  0  0
   11.7323   20.7951    0.2153 C   0  0  0  0  0  0  0  0  0  0  0  0
   12.7938   21.5020    0.7384 C   0  0  0  0  0  0  0  0  0  0  0  0
   12.6982   21.8900    2.0230 N   0  0  0  0  0  0  0  0  0  0  0  0
   11.6139   21.6021    2.7686 C   0  0  0  0  0  0  0  0  0  0  0  0
    9.2857   21.3262    4.3167 C   0  0  0  0  0  0  0  0  0  0  0  0
    9.4413   20.6296    3.0964 O   0  0  0  0  0  0  0  0  0  0  0  0
 25 26  1  0  0  0
 26 19  1  0  0  0
 19 20  2  0  0  0
 20 21  1  0  0  0
 21 22  2  0  0  0
 22 23  1  0  0  0
 23 24  2  0  0  0
 22 16  1  0  0  0
 16 17  1  0  0  0
 17 18  1  0  0  0
 18 15  1  0  0  0
 15  1  1  0  0  0
  1  2  1  0  0  0
  2  3  2  0  0  0
  3  4  1  0  0  0
  4  5  1  0  0  0
  4  6  2  0  0  0
  6  7  1  0  0  0
  7  8  2  0  0  0
  8  9  1  0  0  0
  9 10  1  0  0  0
 10 11  2  0  0  0
 11 12  1  0  0  0
 12 13  1  0  0  0
 12 14  1  0  0  0
 24 19  1  0  0  0
 18 16  1  0  0  0
  8  2  1  0  0  0
 14  9  2  0  0  0
M  END
> <minimizedAffinity>
-8.60208

> <CNNscore>
0.7795401216

> <CNNaffinity>
7.4999170303

> <CNN_VS>
5.8464860916

> <CNNaffinity_variance>
0.0774463415

$$$$
[H]c1nc([C@@]2([H])C([H])([H])[C@]2([H])C([H])([H])Oc2nc(C([H])([H])[H])nc([H])c2-c2c([H])nn(C([H])([H])[H])c2[H])c([H])c([H])c1OC([H])([H])[H]


 26 29  0  0  0  0  0  0  0  0999 V2000
   13.1159   24.8612   -2.7111 O   0  0  0  0  0  0  0  0  0  0  0  0
   14.3645   25.4428   -2.8815 C   0  0  0  0  0  0  0  0  0  0  0  0
   14.6217   26.3701   -3.7959 N   0  0  0  0  0  0  0  0  0  0  0  0
   15.8372   26.9420   -3.9679 C   0  0  0  0  0  0  0  0  0  0  0  0
   16.0239   27.9743   -5.0227 C   0  0  0  0  0  0  0  0  0  0  0  0
   16.8260   26.5440   -3.1677 N   0  0  0  0  0  0  0  0  0  0  0  0
   16.6164   25.6167   -2.2358 C   0  0  0  0  0  0  0  0  0  0  0  0
   15.3685   25.0119   -2.0399 C   0  0  0  0  0  0  0  0  0  0  0  0
   15.2062   24.0166   -1.0162 C   0  0  0  0  0  0  0  0  0  0  0  0
   15.3635   24.0767    0.3530 C   0  0  0  0  0  0  0  0  0  0  0  0
   15.0886   22.8643    0.8523 N   0  0  0  0  0  0  0  0  0  0  0  0
   14.7654   22.0234   -0.0879 N   0  0  0  0  0  0  0  0  0  0  0  0
   14.4137   20.6279    0.1449 C   0  0  0  0  0  0  0  0  0  0  0  0
   14.8255   22.6943   -1.2555 C   0  0  0  0  0  0  0  0  0  0  0  0
   12.3045   25.3714   -1.6744 C   0  0  0  0  0  0  0  0  0  0  0  0
   10.4541   24.4398   -0.1062 C   0  0  0  0  0  0  0  0  0  0  0  0
   11.7127   24.5435    0.7191 C   0  0  0  0  0  0  0  0  0  0  0  0
   11.8028   24.3128   -0.7416 C   0  0  0  0  0  0  0  0  0  0  0  0
    8.0095   20.9403    0.2896 C   0  0  0  0  0  0  0  0  0  0  0  0
    7.5918   22.1285    0.8517 C   0  0  0  0  0  0  0  0  0  0  0  0
    8.3993   23.2510    0.7116 C   0  0  0  0  0  0  0  0  0  0  0  0
    9.5995   23.2241    0.0341 C   0  0  0  0  0  0  0  0  0  0  0  0
    9.9750   22.0483   -0.5009 N   0  0  0  0  0  0  0  0  0  0  0  0
    9.2138   20.9433   -0.3818 C   0  0  0  0  0  0  0  0  0  0  0  0
    6.9572   19.0279   -0.7900 C   0  0  0  0  0  0  0  0  0  0  0  0
    7.2652   19.7611    0.3788 O   0  0  0  0  0  0  0  0  0  0  0  0
 25 26  1  0  0  0
 26 19  1  0  0  0
 19 20  2  0  0  0
 20 21  1  0  0  0
 21 22  2  0  0  0
 22 23  1  0  0  0
 23 24  2  0  0  0
 22 16  1  0  0  0
 16 17  1  0  0  0
 17 18  1  0  0  0
 18 15  1  0  0  0
 15  1  1  0  0  0
  1  2  1  0  0  0
  2  3  2  0  0  0
  3  4  1  0  0  0
  4  5  1  0  0  0
  4  6  2  0  0  0
  6  7  1  0  0  0
  7  8  2  0  0  0
  8  9  1  0  0  0
  9 10  1  0  0  0
 10 11  2  0  0  0
 11 12  1  0  0  0
 12 13  1  0  0  0
 12 14  1  0  0  0
 24 19  1  0  0  0
 18 16  1  0  0  0
  8  2  1  0  0  0
 14  9  2  0  0  0
M  END
> <minimizedAffinity>
-7.65526

> <CNNscore>
0.6331471801

> <CNNaffinity>
7.3823976517

> <CNN_VS>
4.6741442680

> <CNNaffinity_variance>
0.1094535589

$$$$
[H]c1nc([C@@]2([H])C([H])([H])[C@]2([H])C([H])([H])Oc2nc(C([H])([H])[H])nc([H])c2-c2c([H])nn(C([H])([H])[H])c2[H])c([H])c([H])c1OC([H])([H])[H]


 26 29  0  0  0  0  0  0  0  0999 V2000
   13.1047   24.9771   -2.5996 O   0  0  0  0  0  0  0  0  0  0  0  0
   14.3614   25.5053   -2.8607 C   0  0  0  0  0  0  0  0  0  0  0  0
   14.5943   26.4082   -3.8054 N   0  0  0  0  0  0  0  0  0  0  0  0
   15.8175   26.9279   -4.0658 C   0  0  0  0  0  0  0  0  0  0  0  0
   15.9751   27.9367   -5.1478 C   0  0  0  0  0  0  0  0  0  0  0  0
   16.8403   26.5017   -3.3250 N   0  0  0  0  0  0  0  0  0  0  0  0
   16.6559   25.5971   -2.3659 C   0  0  0  0  0  0  0  0  0  0  0  0
   15.4007   25.0461   -2.0790 C   0  0  0  0  0  0  0  0  0  0  0  0
   15.2669   24.0730   -1.0303 C   0  0  0  0  0  0  0  0  0  0  0  0
   15.2943   24.1970    0.3434 C   0  0  0  0  0  0  0  0  0  0  0  0
   15.1211   22.9773    0.8701 N   0  0  0  0  0  0  0  0  0  0  0  0
   14.9835   22.0728   -0.0565 N   0  0  0  0  0  0  0  0  0  0  0  0
   14.7795   20.6535    0.2064 C   0  0  0  0  0  0  0  0  0  0  0  0
   15.0673   22.7070   -1.2430 C   0  0  0  0  0  0  0  0  0  0  0  0
   12.3263   25.6248   -1.6157 C   0  0  0  0  0  0  0  0  0  0  0  0
   11.4969   23.2151   -1.1091 C   0  0  0  0  0  0  0  0  0  0  0  0
   10.2689   24.0540   -1.3626 C   0  0  0  0  0  0  0  0  0  0  0  0
   11.4911   24.6806   -0.8072 C   0  0  0  0  0  0  0  0  0  0  0  0
   11.4575   20.4260    2.1464 C   0  0  0  0  0  0  0  0  0  0  0  0
   11.1337   19.9941    0.8772 C   0  0  0  0  0  0  0  0  0  0  0  0
   11.1528   20.9146   -0.1640 C   0  0  0  0  0  0  0  0  0  0  0  0
   11.4819   22.2403    0.0212 C   0  0  0  0  0  0  0  0  0  0  0  0
   11.7920   22.6259    1.2722 N   0  0  0  0  0  0  0  0  0  0  0  0
   11.7823   21.7570    2.3015 C   0  0  0  0  0  0  0  0  0  0  0  0
   11.1173   20.0693    4.5313 C   0  0  0  0  0  0  0  0  0  0  0  0
   11.4656   19.5739    3.2538 O   0  0  0  0  0  0  0  0  0  0  0  0
 25 26  1  0  0  0
 26 19  1  0  0  0
 19 20  2  0  0  0
 20 21  1  0  0  0
 21 22  2  0  0  0
 22 23  1  0  0  0
 23 24  2  0  0  0
 22 16  1  0  0  0
 16 17  1  0  0  0
 17 18  1  0  0  0
 18 15  1  0  0  0
 15  1  1  0  0  0
  1  2  1  0  0  0
  2  3  2  0  0  0
  3  4  1  0  0  0
  4  5  1  0  0  0
  4  6  2  0  0  0
  6  7  1  0  0  0
  7  8  2  0  0  0
  8  9  1  0  0  0
  9 10  1  0  0  0
 10 11  2  0  0  0
 11 12  1  0  0  0
 12 13  1  0  0  0
 12 14  1  0  0  0
 24 19  1  0  0  0
 18 16  1  0  0  0
  8  2  1  0  0  0
 14  9  2  0  0  0
M  END
> <minimizedAffinity>
-7.54627

> <CNNscore>
0.6260603070

> <CNNaffinity>
7.6176972389

> <CNN_VS>
4.7691378593

> <CNNaffinity_variance>
0.1416746527

$$$$
[H]c1nc([C@@]2([H])C([H])([H])[C@]2([H])C([H])([H])Oc2nc(C([H])([H])[H])nc([H])c2-c2c([H])nn(C([H])([H])[H])c2[H])c([H])c([H])c1OC([H])([H])[H]


 26 29  0  0  0  0  0  0  0  0999 V2000
   10.7761   22.3587   -1.7961 O   0  0  0  0  0  0  0  0  0  0  0  0
   10.0600   21.2362   -1.4046 C   0  0  0  0  0  0  0  0  0  0  0  0
    8.9149   20.8660   -1.9647 N   0  0  0  0  0  0  0  0  0  0  0  0
    8.2108   19.7722   -1.5880 C   0  0  0  0  0  0  0  0  0  0  0  0
    6.9359   19.4416   -2.2797 C   0  0  0  0  0  0  0  0  0  0  0  0
    8.7046   19.0309   -0.5965 N   0  0  0  0  0  0  0  0  0  0  0  0
    9.8497   19.3622   -0.0039 C   0  0  0  0  0  0  0  0  0  0  0  0
   10.5945   20.4881   -0.3766 C   0  0  0  0  0  0  0  0  0  0  0  0
   11.8238   20.7922    0.3024 C   0  0  0  0  0  0  0  0  0  0  0  0
   12.0740   21.3045    1.5586 C   0  0  0  0  0  0  0  0  0  0  0  0
   13.4022   21.3975    1.7079 N   0  0  0  0  0  0  0  0  0  0  0  0
   14.0316   20.9850    0.6453 N   0  0  0  0  0  0  0  0  0  0  0  0
   15.4828   20.9652    0.5073 C   0  0  0  0  0  0  0  0  0  0  0  0
   13.0947   20.6029   -0.2453 C   0  0  0  0  0  0  0  0  0  0  0  0
   10.5546   23.5490   -1.0696 C   0  0  0  0  0  0  0  0  0  0  0  0
   12.9318   24.3963   -1.6876 C   0  0  0  0  0  0  0  0  0  0  0  0
   12.4664   25.2228   -0.5145 C   0  0  0  0  0  0  0  0  0  0  0  0
   11.4765   24.6615   -1.4632 C   0  0  0  0  0  0  0  0  0  0  0  0
   14.9251   26.3674   -4.9312 C   0  0  0  0  0  0  0  0  0  0  0  0
   15.4015   25.1556   -4.4763 C   0  0  0  0  0  0  0  0  0  0  0  0
   14.7404   24.5335   -3.4238 C   0  0  0  0  0  0  0  0  0  0  0  0
   13.6291   25.0787   -2.8173 C   0  0  0  0  0  0  0  0  0  0  0  0
   13.1927   26.2614   -3.2870 N   0  0  0  0  0  0  0  0  0  0  0  0
   13.8124   26.8884   -4.3056 C   0  0  0  0  0  0  0  0  0  0  0  0
   15.8328   26.3996   -7.1907 C   0  0  0  0  0  0  0  0  0  0  0  0
   15.5234   27.0661   -5.9830 O   0  0  0  0  0  0  0  0  0  0  0  0
 25 26  1  0  0  0
 26 19  1  0  0  0
 19 20  2  0  0  0
 20 21  1  0  0  0
 21 22  2  0  0  0
 22 23  1  0  0  0
 23 24  2  0  0  0
 22 16  1  0  0  0
 16 17  1  0  0  0
 17 18  1  0  0  0
 18 15  1  0  0  0
 15  1  1  0  0  0
  1  2  1  0  0  0
  2  3  2  0  0  0
  3  4  1  0  0  0
  4  5  1  0  0  0
  4  6  2  0  0  0
  6  7  1  0  0  0
  7  8  2  0  0  0
  8  9  1  0  0  0
  9 10  1  0  0  0
 10 11  2  0  0  0
 11 12  1  0  0  0
 12 13  1  0  0  0
 12 14  1  0  0  0
 24 19  1  0  0  0
 18 16  1  0  0  0
  8  2  1  0  0  0
 14  9  2  0  0  0
M  END
> <minimizedAffinity>
-7.84062

> <CNNscore>
0.6191430092

> <CNNaffinity>
7.1496171951

> <CNN_VS>
4.4266357422

> <CNNaffinity_variance>
0.0588682294

$$$$
[H]c1nc([C@@]2([H])C([H])([H])[C@]2([H])C([H])([H])Oc2nc(C([H])([H])[H])nc([H])c2-c2c([H])nn(C([H])([H])[H])c2[H])c([H])c([H])c1OC([H])([H])[H]


 26 29  0  0  0  0  0  0  0  0999 V2000
   11.6611   23.4439    1.4392 O   0  0  0  0  0  0  0  0  0  0  0  0
   11.2230   22.3282    0.7397 C   0  0  0  0  0  0  0  0  0  0  0  0
    9.9468   22.0943    0.4590 N   0  0  0  0  0  0  0  0  0  0  0  0
    9.5121   21.0080   -0.2230 C   0  0  0  0  0  0  0  0  0  0  0  0
    8.0582   20.8366   -0.4875 C   0  0  0  0  0  0  0  0  0  0  0  0
   10.4264   20.1286   -0.6318 N   0  0  0  0  0  0  0  0  0  0  0  0
   11.7184   20.3201   -0.3741 C   0  0  0  0  0  0  0  0  0  0  0  0
   12.1907   21.4354    0.3291 C   0  0  0  0  0  0  0  0  0  0  0  0
   13.5984   21.5849    0.5754 C   0  0  0  0  0  0  0  0  0  0  0  0
   14.5908   20.6562    0.8117 C   0  0  0  0  0  0  0  0  0  0  0  0
   15.7428   21.3191    0.9805 N   0  0  0  0  0  0  0  0  0  0  0  0
   15.5732   22.6055    0.8717 N   0  0  0  0  0  0  0  0  0  0  0  0
   16.6417   23.5881    1.0059 C   0  0  0  0  0  0  0  0  0  0  0  0
   14.2647   22.8117    0.6218 C   0  0  0  0  0  0  0  0  0  0  0  0
   11.7298   24.6624    0.7292 C   0  0  0  0  0  0  0  0  0  0  0  0
   12.0332   25.6626   -1.6495 C   0  0  0  0  0  0  0  0  0  0  0  0
   10.9113   24.6580   -1.7395 C   0  0  0  0  0  0  0  0  0  0  0  0
   11.9855   24.4794   -0.7349 C   0  0  0  0  0  0  0  0  0  0  0  0
   14.9716   25.7551   -4.7700 C   0  0  0  0  0  0  0  0  0  0  0  0
   14.1826   26.8640   -4.5461 C   0  0  0  0  0  0  0  0  0  0  0  0
   13.2362   26.8129   -3.5293 C   0  0  0  0  0  0  0  0  0  0  0  0
   13.0550   25.6996   -2.7370 C   0  0  0  0  0  0  0  0  0  0  0  0
   13.8421   24.6369   -2.9840 N   0  0  0  0  0  0  0  0  0  0  0  0
   14.7680   24.6564   -3.9622 C   0  0  0  0  0  0  0  0  0  0  0  0
   15.6038   26.0021   -7.1087 C   0  0  0  0  0  0  0  0  0  0  0  0
   15.9483   25.7138   -5.7683 O   0  0  0  0  0  0  0  0  0  0  0  0
 25 26  1  0  0  0
 26 19  1  0  0  0
 19 20  2  0  0  0
 20 21  1  0  0  0
 21 22  2  0  0  0
 22 23  1  0  0  0
 23 24  2  0  0  0
 22 16  1  0  0  0
 16 17  1  0  0  0
 17 18  1  0  0  0
 18 15  1  0  0  0
 15  1  1  0  0  0
  1  2  1  0  0  0
  2  3  2  0  0  0
  3  4  1  0  0  0
  4  5  1  0  0  0
  4  6  2  0  0  0
  6  7  1  0  0  0
  7  8  2  0  0  0
  8  9  1  0  0  0
  9 10  1  0  0  0
 10 11  2  0  0  0
 11 12  1  0  0  0
 12 13  1  0  0  0
 12 14  1  0  0  0
 24 19  1  0  0  0
 18 16  1  0  0  0
  8  2  1  0  0  0
 14  9  2  0  0  0
M  END
> <minimizedAffinity>
-6.55892

> <CNNscore>
0.5555629730

> <CNNaffinity>
7.4100203514

> <CNN_VS>
4.1167330742

> <CNNaffinity_variance>
0.0248725377

$$$$
[H]c1nc([C@@]2([H])C([H])([H])[C@]2([H])C([H])([H])Oc2nc(C([H])([H])[H])nc([H])c2-c2c([H])nn(C([H])([H])[H])c2[H])c([H])c([H])c1OC([H])([H])[H]


 26 29  0  0  0  0  0  0  0  0999 V2000
   12.1720   26.2482   -4.6765 O   0  0  0  0  0  0  0  0  0  0  0  0
   12.7112   27.5195   -4.5373 C   0  0  0  0  0  0  0  0  0  0  0  0
   12.0795   28.5211   -3.9373 N   0  0  0  0  0  0  0  0  0  0  0  0
   12.5992   29.7639   -3.7978 C   0  0  0  0  0  0  0  0  0  0  0  0
   11.8104   30.8199   -3.1081 C   0  0  0  0  0  0  0  0  0  0  0  0
   13.8160   29.9841   -4.2951 N   0  0  0  0  0  0  0  0  0  0  0  0
   14.4885   29.0107   -4.9055 C   0  0  0  0  0  0  0  0  0  0  0  0
   13.9713   27.7186   -5.0612 C   0  0  0  0  0  0  0  0  0  0  0  0
   14.7472   26.7109   -5.7300 C   0  0  0  0  0  0  0  0  0  0  0  0
   15.0257   25.4005   -5.4007 C   0  0  0  0  0  0  0  0  0  0  0  0
   15.8009   24.8895   -6.3666 N   0  0  0  0  0  0  0  0  0  0  0  0
   16.0459   25.7677   -7.2962 N   0  0  0  0  0  0  0  0  0  0  0  0
   16.8602   25.5070   -8.4769 C   0  0  0  0  0  0  0  0  0  0  0  0
   15.4143   26.9046   -6.9418 C   0  0  0  0  0  0  0  0  0  0  0  0
   11.8166   25.5668   -3.4921 C   0  0  0  0  0  0  0  0  0  0  0  0
   12.8765   24.8087   -1.2443 C   0  0  0  0  0  0  0  0  0  0  0  0
   12.3244   26.1946   -1.0198 C   0  0  0  0  0  0  0  0  0  0  0  0
   12.7822   25.7903   -2.3696 C   0  0  0  0  0  0  0  0  0  0  0  0
   16.7258   23.8327    0.3712 C   0  0  0  0  0  0  0  0  0  0  0  0
   16.6063   24.1252   -0.9713 C   0  0  0  0  0  0  0  0  0  0  0  0
   15.3493   24.4392   -1.4746 C   0  0  0  0  0  0  0  0  0  0  0  0
   14.2189   24.4696   -0.6864 C   0  0  0  0  0  0  0  0  0  0  0  0
   14.3731   24.1789    0.6181 N   0  0  0  0  0  0  0  0  0  0  0  0
   15.5784   23.8709    1.1349 C   0  0  0  0  0  0  0  0  0  0  0  0
   18.9870   24.4627    1.0198 C   0  0  0  0  0  0  0  0  0  0  0  0
   17.9473   23.5062    0.9661 O   0  0  0  0  0  0  0  0  0  0  0  0
 25 26  1  0  0  0
 26 19  1  0  0  0
 19 20  2  0  0  0
 20 21  1  0  0  0
 21 22  2  0  0  0
 22 23  1  0  0  0
 23 24  2  0  0  0
 22 16  1  0  0  0
 16 17  1  0  0  0
 17 18  1  0  0  0
 18 15  1  0  0  0
 15  1  1  0  0  0
  1  2  1  0  0  0
  2  3  2  0  0  0
  3  4  1  0  0  0
  4  5  1  0  0  0
  4  6  2  0  0  0
  6  7  1  0  0  0
  7  8  2  0  0  0
  8  9  1  0  0  0
  9 10  1  0  0  0
 10 11  2  0  0  0
 11 12  1  0  0  0
 12 13  1  0  0  0
 12 14  1  0  0  0
 24 19  1  0  0  0
 18 16  1  0  0  0
  8  2  1  0  0  0
 14  9  2  0  0  0
M  END
> <minimizedAffinity>
17.40250

> <CNNscore>
0.5513185263

> <CNNaffinity>
6.8380379677

> <CNN_VS>
3.7699370384

> <CNNaffinity_variance>
0.9660083652

$$$$
[H]c1nc([C@@]2([H])C([H])([H])[C@]2([H])C([H])([H])Oc2nc(C([H])([H])[H])nc([H])c2-c2c([H])nn(C([H])([H])[H])c2[H])c([H])c([H])c1OC([H])([H])[H]


 26 29  0  0  0  0  0  0  0  0999 V2000
   12.1733   24.3435   -0.1973 O   0  0  0  0  0  0  0  0  0  0  0  0
   12.9550   23.2543   -0.5563 C   0  0  0  0  0  0  0  0  0  0  0  0
   13.1390   22.1962    0.2239 N   0  0  0  0  0  0  0  0  0  0  0  0
   13.9002   21.1300   -0.1196 C   0  0  0  0  0  0  0  0  0  0  0  0
   14.0439   19.9911    0.8266 C   0  0  0  0  0  0  0  0  0  0  0  0
   14.4948   21.1541   -1.3122 N   0  0  0  0  0  0  0  0  0  0  0  0
   14.3399   22.1935   -2.1294 C   0  0  0  0  0  0  0  0  0  0  0  0
   13.5580   23.3064   -1.7955 C   0  0  0  0  0  0  0  0  0  0  0  0
   13.4302   24.3975   -2.7217 C   0  0  0  0  0  0  0  0  0  0  0  0
   14.1343   24.7165   -3.8643 C   0  0  0  0  0  0  0  0  0  0  0  0
   13.6145   25.8446   -4.3664 N   0  0  0  0  0  0  0  0  0  0  0  0
   12.6280   26.2809   -3.6372 N   0  0  0  0  0  0  0  0  0  0  0  0
   11.8633   27.4874   -3.9289 C   0  0  0  0  0  0  0  0  0  0  0  0
   12.4817   25.4170   -2.6129 C   0  0  0  0  0  0  0  0  0  0  0  0
   12.5396   25.6005   -0.7259 C   0  0  0  0  0  0  0  0  0  0  0  0
   15.0645   25.0838   -1.0558 C   0  0  0  0  0  0  0  0  0  0  0  0
   14.8249   25.1524    0.4321 C   0  0  0  0  0  0  0  0  0  0  0  0
   13.9781   25.9437   -0.4908 C   0  0  0  0  0  0  0  0  0  0  0  0
   18.5633   26.9564   -2.6778 C   0  0  0  0  0  0  0  0  0  0  0  0
   18.6872   25.7736   -1.9794 C   0  0  0  0  0  0  0  0  0  0  0  0
   17.5402   25.1831   -1.4620 C   0  0  0  0  0  0  0  0  0  0  0  0
   16.2855   25.7320   -1.6188 C   0  0  0  0  0  0  0  0  0  0  0  0
   16.2028   26.8859   -2.3055 N   0  0  0  0  0  0  0  0  0  0  0  0
   17.2964   27.4818   -2.8187 C   0  0  0  0  0  0  0  0  0  0  0  0
   19.4549   28.6789   -4.1504 C   0  0  0  0  0  0  0  0  0  0  0  0
   19.6588   27.6222   -3.2337 O   0  0  0  0  0  0  0  0  0  0  0  0
 25 26  1  0  0  0
 26 19  1  0  0  0
 19 20  2  0  0  0
 20 21  1  0  0  0
 21 22  2  0  0  0
 22 23  1  0  0  0
 23 24  2  0  0  0
 22 16  1  0  0  0
 16 17  1  0  0  0
 17 18  1  0  0  0
 18 15  1  0  0  0
 15  1  1  0  0  0
  1  2  1  0  0  0
  2  3  2  0  0  0
  3  4  1  0  0  0
  4  5  1  0  0  0
  4  6  2  0  0  0
  6  7  1  0  0  0
  7  8  2  0  0  0
  8  9  1  0  0  0
  9 10  1  0  0  0
 10 11  2  0  0  0
 11 12  1  0  0  0
 12 13  1  0  0  0
 12 14  1  0  0  0
 24 19  1  0  0  0
 18 16  1  0  0  0
  8  2  1  0  0  0
 14  9  2  0  0  0
M  END
> <minimizedAffinity>
7.96454

> <CNNscore>
0.5424520373

> <CNNaffinity>
7.2355718613

> <CNN_VS>
3.9249505997

> <CNNaffinity_variance>
0.8273057938

$$$$
[H]c1nc([C@@]2([H])C([H])([H])[C@]2([H])C([H])([H])Oc2nc(C([H])([H])[H])nc([H])c2-c2c([H])nn(C([H])([H])[H])c2[H])c([H])c([H])c1OC([H])([H])[H]


 26 29  0  0  0  0  0  0  0  0999 V2000
   13.2606   24.6307   -2.5786 O   0  0  0  0  0  0  0  0  0  0  0  0
   14.5526   24.8335   -2.1139 C   0  0  0  0  0  0  0  0  0  0  0  0
   14.9629   24.4642   -0.9066 N   0  0  0  0  0  0  0  0  0  0  0  0
   16.2217   24.6588   -0.4465 C   0  0  0  0  0  0  0  0  0  0  0  0
   16.5837   24.2078    0.9242 C   0  0  0  0  0  0  0  0  0  0  0  0
   17.0916   25.2564   -1.2605 N   0  0  0  0  0  0  0  0  0  0  0  0
   16.7264   25.6447   -2.4804 C   0  0  0  0  0  0  0  0  0  0  0  0
   15.4310   25.4540   -2.9772 C   0  0  0  0  0  0  0  0  0  0  0  0
   15.0989   25.8957   -4.3036 C   0  0  0  0  0  0  0  0  0  0  0  0
   14.2496   26.8852   -4.7538 C   0  0  0  0  0  0  0  0  0  0  0  0
   14.2994   26.8924   -6.0926 N   0  0  0  0  0  0  0  0  0  0  0  0
   15.1156   25.9840   -6.5444 N   0  0  0  0  0  0  0  0  0  0  0  0
   15.3807   25.7496   -7.9586 C   0  0  0  0  0  0  0  0  0  0  0  0
   15.6296   25.3470   -5.4733 C   0  0  0  0  0  0  0  0  0  0  0  0
   12.2292   25.3644   -1.9529 C   0  0  0  0  0  0  0  0  0  0  0  0
   11.8456   23.6661   -0.0243 C   0  0  0  0  0  0  0  0  0  0  0  0
   11.2878   23.0362   -1.2766 C   0  0  0  0  0  0  0  0  0  0  0  0
   11.3087   24.5109   -1.1364 C   0  0  0  0  0  0  0  0  0  0  0  0
    9.6171   23.3352    3.6230 C   0  0  0  0  0  0  0  0  0  0  0  0
    9.5546   24.5029    2.8918 C   0  0  0  0  0  0  0  0  0  0  0  0
   10.2847   24.5892    1.7122 C   0  0  0  0  0  0  0  0  0  0  0  0
   11.0678   23.5556    1.2449 C   0  0  0  0  0  0  0  0  0  0  0  0
   11.1048   22.4321    1.9840 N   0  0  0  0  0  0  0  0  0  0  0  0
   10.4083   22.3187    3.1313 C   0  0  0  0  0  0  0  0  0  0  0  0
    7.5889   22.6761    4.7989 C   0  0  0  0  0  0  0  0  0  0  0  0
    8.9183   23.1566    4.8198 O   0  0  0  0  0  0  0  0  0  0  0  0
 25 26  1  0  0  0
 26 19  1  0  0  0
 19 20  2  0  0  0
 20 21  1  0  0  0
 21 22  2  0  0  0
 22 23  1  0  0  0
 23 24  2  0  0  0
 22 16  1  0  0  0
 16 17  1  0  0  0
 17 18  1  0  0  0
 18 15  1  0  0  0
 15  1  1  0  0  0
  1  2  1  0  0  0
  2  3  2  0  0  0
  3  4  1  0  0  0
  4  5  1  0  0  0
  4  6  2  0  0  0
  6  7  1  0  0  0
  7  8  2  0  0  0
  8  9  1  0  0  0
  9 10  1  0  0  0
 10 11  2  0  0  0
 11 12  1  0  0  0
 12 13  1  0  0  0
 12 14  1  0  0  0
 24 19  1  0  0  0
 18 16  1  0  0  0
  8  2  1  0  0  0
 14  9  2  0  0  0
M  END
> <minimizedAffinity>
-7.47589

> <CNNscore>
0.4917584062

> <CNNaffinity>
7.2809305191

> <CNN_VS>
3.5804588795

> <CNNaffinity_variance>
0.0954657570

$$$$
[H]c1nc2c(-c3c([H])c([H])c([H])c4c([H])c([H])c([H])c([H])c34)c([H])nn2c([H])c1-c1c([H])c([H])c(N2C([H])([H])C([H])([H])N([H])C([H])([H])C2([H])[H])c([H])c1[H]


 32 37  0  0  0  0  0  0  0  0999 V2000
   10.7018   22.5770    0.2135 C   0  0  0  0  0  0  0  0  0  0  0  0
   11.8913   22.1721   -0.3394 C   0  0  0  0  0  0  0  0  0  0  0  0
   12.6329   23.0159   -1.0712 N   0  0  0  0  0  0  0  0  0  0  0  0
   12.2467   24.3030   -1.2995 C   0  0  0  0  0  0  0  0  0  0  0  0
   12.8209   25.3608   -2.0152 C   0  0  0  0  0  0  0  0  0  0  0  0
   11.9219   26.3873   -1.8545 C   0  0  0  0  0  0  0  0  0  0  0  0
   10.9055   25.9467   -1.1004 N   0  0  0  0  0  0  0  0  0  0  0  0
   11.0792   24.6873   -0.7519 N   0  0  0  0  0  0  0  0  0  0  0  0
   10.3013   23.8810   -0.0123 C   0  0  0  0  0  0  0  0  0  0  0  0
   14.0970   25.2770   -2.6989 C   0  0  0  0  0  0  0  0  0  0  0  0
   15.2080   24.7233   -2.0689 C   0  0  0  0  0  0  0  0  0  0  0  0
   16.4459   24.6386   -2.6506 C   0  0  0  0  0  0  0  0  0  0  0  0
   16.6011   25.1281   -3.9313 C   0  0  0  0  0  0  0  0  0  0  0  0
   15.5243   25.6961   -4.6192 C   0  0  0  0  0  0  0  0  0  0  0  0
   15.7204   26.1631   -5.8936 C   0  0  0  0  0  0  0  0  0  0  0  0
   14.6820   26.7117   -6.5817 C   0  0  0  0  0  0  0  0  0  0  0  0
   13.4427   26.7942   -5.9958 C   0  0  0  0  0  0  0  0  0  0  0  0
   13.2626   26.3129   -4.6967 C   0  0  0  0  0  0  0  0  0  0  0  0
   14.2877   25.7528   -3.9700 C   0  0  0  0  0  0  0  0  0  0  0  0
    8.3380   19.8996    2.4512 C   0  0  0  0  0  0  0  0  0  0  0  0
    9.5640   19.5212    1.9954 C   0  0  0  0  0  0  0  0  0  0  0  0
   10.3959   20.3642    1.2513 C   0  0  0  0  0  0  0  0  0  0  0  0
    9.9172   21.6298    0.9867 C   0  0  0  0  0  0  0  0  0  0  0  0
    8.6679   22.0675    1.4315 C   0  0  0  0  0  0  0  0  0  0  0  0
    7.9087   21.1816    2.1568 C   0  0  0  0  0  0  0  0  0  0  0  0
    5.9465   17.1550    3.4625 C   0  0  0  0  0  0  0  0  0  0  0  0
    6.7983   17.9777    2.5232 C   0  0  0  0  0  0  0  0  0  0  0  0
    7.4568   19.0684    3.2008 N   0  0  0  0  0  0  0  0  0  0  0  0
    7.3037   19.3884    4.6027 C   0  0  0  0  0  0  0  0  0  0  0  0
    6.4135   18.4473    5.3412 C   0  0  0  0  0  0  0  0  0  0  0  0
    6.5330   17.1061    4.7906 N   0  0  0  0  0  0  0  0  0  0  0  0
    7.4907   16.7391    4.7743 H   0  0  0  0  0  0  0  0  0  0  0  0
 26 27  1  0  0  0
 27 28  1  0  0  0
 28 29  1  0  0  0
 29 30  1  0  0  0
 30 31  1  0  0  0
 28 20  1  0  0  0
 20 21  2  0  0  0
 21 22  1  0  0  0
 22 23  2  0  0  0
 23 24  1  0  0  0
 24 25  2  0  0  0
 23  1  1  0  0  0
  1  2  1  0  0  0
  2  3  2  0  0  0
  3  4  1  0  0  0
  4  5  2  0  0  0
  5  6  1  0  0  0
  6  7  2  0  0  0
  7  8  1  0  0  0
  8  9  1  0  0  0
  5 10  1  0  0  0
 10 11  2  0  0  0
 11 12  1  0  0  0
 12 13  2  0  0  0
 13 14  1  0  0  0
 14 15  2  0  0  0
 15 16  1  0  0  0
 16 17  2  0  0  0
 17 18  1  0  0  0
 18 19  2  0  0  0
 31 26  1  0  0  0
 25 20  1  0  0  0
  9  1  2  0  0  0
 19 10  1  0  0  0
  8  4  1  0  0  0
 19 14  1  0  0  0
 31 32  1  0  0  0
M  END
> <minimizedAffinity>
12.57595

> <CNNscore>
0.4014160037

> <CNNaffinity>
6.4531111717

> <CNN_VS>
2.5903820992

> <CNNaffinity_variance>
1.0861052275

$$$$
[H]c1nc2c(-c3c([H])c([H])c([H])c4c([H])c([H])c([H])c([H])c34)c([H])nn2c([H])c1-c1c([H])c([H])c(N2C([H])([H])C([H])([H])N([H])C([H])([H])C2([H])[H])c([H])c1[H]


 32 37  0  0  0  0  0  0  0  0999 V2000
   12.9597   26.3940   -3.4992 C   0  0  0  0  0  0  0  0  0  0  0  0
   12.6928   25.7755   -2.3031 C   0  0  0  0  0  0  0  0  0  0  0  0
   13.3144   24.6375   -1.9627 N   0  0  0  0  0  0  0  0  0  0  0  0
   14.2321   24.0454   -2.7782 C   0  0  0  0  0  0  0  0  0  0  0  0
   15.0018   22.8810   -2.6647 C   0  0  0  0  0  0  0  0  0  0  0  0
   15.7204   22.8515   -3.8354 C   0  0  0  0  0  0  0  0  0  0  0  0
   15.3847   23.9234   -4.5662 N   0  0  0  0  0  0  0  0  0  0  0  0
   14.4849   24.6617   -3.9473 N   0  0  0  0  0  0  0  0  0  0  0  0
   13.8894   25.8012   -4.3336 C   0  0  0  0  0  0  0  0  0  0  0  0
   14.9814   22.0069   -1.5079 C   0  0  0  0  0  0  0  0  0  0  0  0
   14.2213   20.8406   -1.5093 C   0  0  0  0  0  0  0  0  0  0  0  0
   14.1398   19.9872   -0.4402 C   0  0  0  0  0  0  0  0  0  0  0  0
   14.8500   20.2995    0.7010 C   0  0  0  0  0  0  0  0  0  0  0  0
   15.6330   21.4561    0.7664 C   0  0  0  0  0  0  0  0  0  0  0  0
   16.3292   21.7243    1.9171 C   0  0  0  0  0  0  0  0  0  0  0  0
   17.1032   22.8412    1.9962 C   0  0  0  0  0  0  0  0  0  0  0  0
   17.1830   23.6937    0.9225 C   0  0  0  0  0  0  0  0  0  0  0  0
   16.4665   23.4033   -0.2411 C   0  0  0  0  0  0  0  0  0  0  0  0
   15.6737   22.2851   -0.3583 C   0  0  0  0  0  0  0  0  0  0  0  0
   10.8354   29.8807   -4.5447 C   0  0  0  0  0  0  0  0  0  0  0  0
   11.8803   29.9453   -3.6739 C   0  0  0  0  0  0  0  0  0  0  0  0
   12.6255   28.8254   -3.2908 C   0  0  0  0  0  0  0  0  0  0  0  0
   12.2543   27.6171   -3.8412 C   0  0  0  0  0  0  0  0  0  0  0  0
   11.1914   27.4966   -4.7390 C   0  0  0  0  0  0  0  0  0  0  0  0
   10.5075   28.6421   -5.0669 C   0  0  0  0  0  0  0  0  0  0  0  0
    9.7051   33.3696   -5.4528 C   0  0  0  0  0  0  0  0  0  0  0  0
   10.6482   32.3051   -4.9409 C   0  0  0  0  0  0  0  0  0  0  0  0
   10.0449   30.9942   -4.9506 N   0  0  0  0  0  0  0  0  0  0  0  0
    8.6861   30.7085   -5.3543 C   0  0  0  0  0  0  0  0  0  0  0  0
    7.9320   31.9074   -5.8208 C   0  0  0  0  0  0  0  0  0  0  0  0
    8.8306   32.8392   -6.4844 N   0  0  0  0  0  0  0  0  0  0  0  0
    9.3587   32.4346   -7.2651 H   0  0  0  0  0  0  0  0  0  0  0  0
 26 27  1  0  0  0
 27 28  1  0  0  0
 28 29  1  0  0  0
 29 30  1  0  0  0
 30 31  1  0  0  0
 28 20  1  0  0  0
 20 21  2  0  0  0
 21 22  1  0  0  0
 22 23  2  0  0  0
 23 24  1  0  0  0
 24 25  2  0  0  0
 23  1  1  0  0  0
  1  2  1  0  0  0
  2  3  2  0  0  0
  3  4  1  0  0  0
  4  5  2  0  0  0
  5  6  1  0  0  0
  6  7  2  0  0  0
  7  8  1  0  0  0
  8  9  1  0  0  0
  5 10  1  0  0  0
 10 11  2  0  0  0
 11 12  1  0  0  0
 12 13  2  0  0  0
 13 14  1  0  0  0
 14 15  2  0  0  0
 15 16  1  0  0  0
 16 17  2  0  0  0
 17 18  1  0  0  0
 18 19  2  0  0  0
 31 26  1  0  0  0
 25 20  1  0  0  0
  9  1  2  0  0  0
 19 10  1  0  0  0
  8  4  1  0  0  0
 19 14  1  0  0  0
 31 32  1  0  0  0
M  END
> <minimizedAffinity>
30.64791

> <CNNscore>
0.3992729187

> <CNNaffinity>
6.5315704346

> <CNN_VS>
2.6078791618

> <CNNaffinity_variance>
1.0180374384

$$$$
[H]c1nc2c(-c3c([H])c([H])c([H])c4c([H])c([H])c([H])c([H])c34)c([H])nn2c([H])c1-c1c([H])c([H])c(N2C([H])([H])C([H])([H])N([H])C([H])([H])C2([H])[H])c([H])c1[H]


 32 37  0  0  0  0  0  0  0  0999 V2000
   11.1633   23.6934   -0.2038 C   0  0  0  0  0  0  0  0  0  0  0  0
   11.0490   24.1709   -1.4857 C   0  0  0  0  0  0  0  0  0  0  0  0
   12.0774   24.7883   -2.0847 N   0  0  0  0  0  0  0  0  0  0  0  0
   13.2738   24.9700   -1.4573 C   0  0  0  0  0  0  0  0  0  0  0  0
   14.4763   25.5721   -1.8476 C   0  0  0  0  0  0  0  0  0  0  0  0
   15.2856   25.4241   -0.7472 C   0  0  0  0  0  0  0  0  0  0  0  0
   14.5939   24.7828    0.2048 N   0  0  0  0  0  0  0  0  0  0  0  0
   13.3728   24.4972   -0.2014 N   0  0  0  0  0  0  0  0  0  0  0  0
   12.3731   23.8728    0.4413 C   0  0  0  0  0  0  0  0  0  0  0  0
   14.7029   26.1535   -3.1565 C   0  0  0  0  0  0  0  0  0  0  0  0
   13.7392   26.0555   -4.1563 C   0  0  0  0  0  0  0  0  0  0  0  0
   13.9030   26.5605   -5.4197 C   0  0  0  0  0  0  0  0  0  0  0  0
   15.0875   27.2021   -5.7186 C   0  0  0  0  0  0  0  0  0  0  0  0
   16.0955   27.3345   -4.7586 C   0  0  0  0  0  0  0  0  0  0  0  0
   17.2540   27.9865   -5.0954 C   0  0  0  0  0  0  0  0  0  0  0  0
   18.2429   28.1323   -4.1715 C   0  0  0  0  0  0  0  0  0  0  0  0
   18.0748   27.6256   -2.9061 C   0  0  0  0  0  0  0  0  0  0  0  0
   16.8875   26.9645   -2.5820 C   0  0  0  0  0  0  0  0  0  0  0  0
   15.8664   26.7973   -3.4886 C   0  0  0  0  0  0  0  0  0  0  0  0
    7.9208   21.7280    1.6364 C   0  0  0  0  0  0  0  0  0  0  0  0
    7.7714   22.9867    1.1389 C   0  0  0  0  0  0  0  0  0  0  0  0
    8.8074   23.6893    0.5150 C   0  0  0  0  0  0  0  0  0  0  0  0
   10.0222   23.0445    0.4186 C   0  0  0  0  0  0  0  0  0  0  0  0
   10.2278   21.7542    0.9116 C   0  0  0  0  0  0  0  0  0  0  0  0
    9.1616   21.1289    1.5112 C   0  0  0  0  0  0  0  0  0  0  0  0
    5.2912   19.1365    2.4388 C   0  0  0  0  0  0  0  0  0  0  0  0
    6.3189   19.8567    1.5963 C   0  0  0  0  0  0  0  0  0  0  0  0
    6.8956   20.9841    2.2883 N   0  0  0  0  0  0  0  0  0  0  0  0
    6.5222   21.4241    3.6142 C   0  0  0  0  0  0  0  0  0  0  0  0
    5.4858   20.5700    4.2623 C   0  0  0  0  0  0  0  0  0  0  0  0
    5.6448   19.1849    3.8470 N   0  0  0  0  0  0  0  0  0  0  0  0
    6.5770   18.7948    4.0226 H   0  0  0  0  0  0  0  0  0  0  0  0
 26 27  1  0  0  0
 27 28  1  0  0  0
 28 29  1  0  0  0
 29 30  1  0  0  0
 30 31  1  0  0  0
 28 20  1  0  0  0
 20 21  2  0  0  0
 21 22  1  0  0  0
 22 23  2  0  0  0
 23 24  1  0  0  0
 24 25  2  0  0  0
 23  1  1  0  0  0
  1  2  1  0  0  0
  2  3  2  0  0  0
  3  4  1  0  0  0
  4  5  2  0  0  0
  5  6  1  0  0  0
  6  7  2  0  0  0
  7  8  1  0  0  0
  8  9  1  0  0  0
  5 10  1  0  0  0
 10 11  2  0  0  0
 11 12  1  0  0  0
 12 13  2  0  0  0
 13 14  1  0  0  0
 14 15  2  0  0  0
 15 16  1  0  0  0
 16 17  2  0  0  0
 17 18  1  0  0  0
 18 19  2  0  0  0
 31 26  1  0  0  0
 25 20  1  0  0  0
  9  1  2  0  0  0
 19 10  1  0  0  0
  8  4  1  0  0  0
 19 14  1  0  0  0
 31 32  1  0  0  0
M  END
> <minimizedAffinity>
-6.26087

> <CNNscore>
0.3900282383

> <CNNaffinity>
6.8847069740

> <CNN_VS>
2.6852300167

> <CNNaffinity_variance>
0.5195367932

$$$$
[H]c1nc2c(-c3c([H])c([H])c([H])c4c([H])c([H])c([H])c([H])c34)c([H])nn2c([H])c1-c1c([H])c([H])c(N2C([H])([H])C([H])([H])N([H])C([H])([H])C2([H])[H])c([H])c1[H]


 32 37  0  0  0  0  0  0  0  0999 V2000
   12.8060   26.1965   -3.1497 C   0  0  0  0  0  0  0  0  0  0  0  0
   12.3743   25.5891   -1.9968 C   0  0  0  0  0  0  0  0  0  0  0  0
   12.9269   24.4431   -1.5739 N   0  0  0  0  0  0  0  0  0  0  0  0
   13.9335   23.8317   -2.2600 C   0  0  0  0  0  0  0  0  0  0  0  0
   14.6621   22.6557   -2.0426 C   0  0  0  0  0  0  0  0  0  0  0  0
   15.5273   22.6081   -3.1088 C   0  0  0  0  0  0  0  0  0  0  0  0
   15.3082   23.6811   -3.8811 N   0  0  0  0  0  0  0  0  0  0  0  0
   14.3476   24.4373   -3.3880 N   0  0  0  0  0  0  0  0  0  0  0  0
   13.8269   25.5840   -3.8530 C   0  0  0  0  0  0  0  0  0  0  0  0
   14.4757   21.7885   -0.8954 C   0  0  0  0  0  0  0  0  0  0  0  0
   15.5641   21.3645   -0.1383 C   0  0  0  0  0  0  0  0  0  0  0  0
   15.4572   20.5256    0.9400 C   0  0  0  0  0  0  0  0  0  0  0  0
   14.2022   20.0761    1.2964 C   0  0  0  0  0  0  0  0  0  0  0  0
   13.0681   20.4654    0.5772 C   0  0  0  0  0  0  0  0  0  0  0  0
   11.8389   20.0017    0.9705 C   0  0  0  0  0  0  0  0  0  0  0  0
   10.7228   20.3766    0.2875 C   0  0  0  0  0  0  0  0  0  0  0  0
   10.8338   21.2181   -0.7921 C   0  0  0  0  0  0  0  0  0  0  0  0
   12.0947   21.6800   -1.1775 C   0  0  0  0  0  0  0  0  0  0  0  0
   13.2448   21.3227   -0.5126 C   0  0  0  0  0  0  0  0  0  0  0  0
   10.8844   29.7109   -4.4608 C   0  0  0  0  0  0  0  0  0  0  0  0
   11.9454   29.7818   -3.6104 C   0  0  0  0  0  0  0  0  0  0  0  0
   12.6263   28.6530   -3.1428 C   0  0  0  0  0  0  0  0  0  0  0  0
   12.1721   27.4288   -3.5854 C   0  0  0  0  0  0  0  0  0  0  0  0
   11.0891   27.3012   -4.4579 C   0  0  0  0  0  0  0  0  0  0  0  0
   10.4721   28.4562   -4.8733 C   0  0  0  0  0  0  0  0  0  0  0  0
    9.8806   33.2236   -5.4243 C   0  0  0  0  0  0  0  0  0  0  0  0
   10.7411   32.1462   -4.8051 C   0  0  0  0  0  0  0  0  0  0  0  0
   10.1577   30.8342   -4.9501 N   0  0  0  0  0  0  0  0  0  0  0  0
    8.8810   30.5572   -5.5700 C   0  0  0  0  0  0  0  0  0  0  0  0
    8.1990   31.7681   -6.1107 C   0  0  0  0  0  0  0  0  0  0  0  0
    9.1823   32.7239   -6.5960 N   0  0  0  0  0  0  0  0  0  0  0  0
    9.8292   32.3465   -7.2970 H   0  0  0  0  0  0  0  0  0  0  0  0
 26 27  1  0  0  0
 27 28  1  0  0  0
 28 29  1  0  0  0
 29 30  1  0  0  0
 30 31  1  0  0  0
 28 20  1  0  0  0
 20 21  2  0  0  0
 21 22  1  0  0  0
 22 23  2  0  0  0
 23 24  1  0  0  0
 24 25  2  0  0  0
 23  1  1  0  0  0
  1  2  1  0  0  0
  2  3  2  0  0  0
  3  4  1  0  0  0
  4  5  2  0  0  0
  5  6  1  0  0  0
  6  7  2  0  0  0
  7  8  1  0  0  0
  8  9  1  0  0  0
  5 10  1  0  0  0
 10 11  2  0  0  0
 11 12  1  0  0  0
 12 13  2  0  0  0
 13 14  1  0  0  0
 14 15  2  0  0  0
 15 16  1  0  0  0
 16 17  2  0  0  0
 17 18  1  0  0  0
 18 19  2  0  0  0
 31 26  1  0  0  0
 25 20  1  0  0  0
  9  1  2  0  0  0
 19 10  1  0  0  0
  8  4  1  0  0  0
 19 14  1  0  0  0
 31 32  1  0  0  0
M  END
> <minimizedAffinity>
24.93320

> <CNNscore>
0.3899258971

> <CNNaffinity>
6.5106673241

> <CNN_VS>
2.5386776924

> <CNNaffinity_variance>
0.7772799134

$$$$
[H]c1nc2c(-c3c([H])c([H])c([H])c4c([H])c([H])c([H])c([H])c34)c([H])nn2c([H])c1-c1c([H])c([H])c(N2C([H])([H])C([H])([H])N([H])C([H])([H])C2([H])[H])c([H])c1[H]


 32 37  0  0  0  0  0  0  0  0999 V2000
    8.9628   24.4655    2.3878 C   0  0  0  0  0  0  0  0  0  0  0  0
   10.0413   24.4161    1.5400 C   0  0  0  0  0  0  0  0  0  0  0  0
   10.5014   23.2443    1.0788 N   0  0  0  0  0  0  0  0  0  0  0  0
    9.9271   22.0576    1.4249 C   0  0  0  0  0  0  0  0  0  0  0  0
   10.2098   20.7263    1.0951 C   0  0  0  0  0  0  0  0  0  0  0  0
    9.2572   20.0125    1.7812 C   0  0  0  0  0  0  0  0  0  0  0  0
    8.4850   20.8753    2.4558 N   0  0  0  0  0  0  0  0  0  0  0  0
    8.8707   22.1198    2.2562 N   0  0  0  0  0  0  0  0  0  0  0  0
    8.3731   23.2669    2.7449 C   0  0  0  0  0  0  0  0  0  0  0  0
   11.2724   20.3239    0.1942 C   0  0  0  0  0  0  0  0  0  0  0  0
   12.3070   19.5029    0.6342 C   0  0  0  0  0  0  0  0  0  0  0  0
   13.3523   19.1088   -0.1595 C   0  0  0  0  0  0  0  0  0  0  0  0
   13.3821   19.5486   -1.4671 C   0  0  0  0  0  0  0  0  0  0  0  0
   12.3728   20.3749   -1.9708 C   0  0  0  0  0  0  0  0  0  0  0  0
   12.4371   20.7826   -3.2786 C   0  0  0  0  0  0  0  0  0  0  0  0
   11.4593   21.5804   -3.7887 C   0  0  0  0  0  0  0  0  0  0  0  0
   10.4129   21.9727   -2.9905 C   0  0  0  0  0  0  0  0  0  0  0  0
   10.3649   21.5471   -1.6607 C   0  0  0  0  0  0  0  0  0  0  0  0
   11.3344   20.7413   -1.1098 C   0  0  0  0  0  0  0  0  0  0  0  0
    7.5321   28.1851    3.7593 C   0  0  0  0  0  0  0  0  0  0  0  0
    8.6766   27.6550    4.2725 C   0  0  0  0  0  0  0  0  0  0  0  0
    9.2035   26.4280    3.8567 C   0  0  0  0  0  0  0  0  0  0  0  0
    8.5028   25.7525    2.8802 C   0  0  0  0  0  0  0  0  0  0  0  0
    7.3249   26.2522    2.3206 C   0  0  0  0  0  0  0  0  0  0  0  0
    6.8706   27.4643    2.7809 C   0  0  0  0  0  0  0  0  0  0  0  0
    6.7547   31.8666    4.1008 C   0  0  0  0  0  0  0  0  0  0  0  0
    7.5076   30.6450    3.6259 C   0  0  0  0  0  0  0  0  0  0  0  0
    6.9570   29.4241    4.1634 N   0  0  0  0  0  0  0  0  0  0  0  0
    5.8452   29.3499    5.0851 C   0  0  0  0  0  0  0  0  0  0  0  0
    5.2539   30.6764    5.4231 C   0  0  0  0  0  0  0  0  0  0  0  0
    5.3435   31.5722    4.2805 N   0  0  0  0  0  0  0  0  0  0  0  0
    4.9147   31.2082    3.4227 H   0  0  0  0  0  0  0  0  0  0  0  0
 26 27  1  0  0  0
 27 28  1  0  0  0
 28 29  1  0  0  0
 29 30  1  0  0  0
 30 31  1  0  0  0
 28 20  1  0  0  0
 20 21  2  0  0  0
 21 22  1  0  0  0
 22 23  2  0  0  0
 23 24  1  0  0  0
 24 25  2  0  0  0
 23  1  1  0  0  0
  1  2  1  0  0  0
  2  3  2  0  0  0
  3  4  1  0  0  0
  4  5  2  0  0  0
  5  6  1  0  0  0
  6  7  2  0  0  0
  7  8  1  0  0  0
  8  9  1  0  0  0
  5 10  1  0  0  0
 10 11  2  0  0  0
 11 12  1  0  0  0
 12 13  2  0  0  0
 13 14  1  0  0  0
 14 15  2  0  0  0
 15 16  1  0  0  0
 16 17  2  0  0  0
 17 18  1  0  0  0
 18 19  2  0  0  0
 31 26  1  0  0  0
 25 20  1  0  0  0
  9  1  2  0  0  0
 19 10  1  0  0  0
  8  4  1  0  0  0
 19 14  1  0  0  0
 31 32  1  0  0  0
M  END
> <minimizedAffinity>
36.52028

> <CNNscore>
0.3569890559

> <CNNaffinity>
5.8001708984

> <CNN_VS>
2.0705976486

> <CNNaffinity_variance>
0.7907660604

$$$$
[H]c1nc2c(-c3c([H])c([H])c([H])c4c([H])c([H])c([H])c([H])c34)c([H])nn2c([H])c1-c1c([H])c([H])c(N2C([H])([H])C([H])([H])N([H])C([H])([H])C2([H])[H])c([H])c1[H]


 32 37  0  0  0  0  0  0  0  0999 V2000
    9.1441   24.5770    2.7693 C   0  0  0  0  0  0  0  0  0  0  0  0
    9.8991   24.4135    1.6345 C   0  0  0  0  0  0  0  0  0  0  0  0
   10.5749   23.2766    1.4150 N   0  0  0  0  0  0  0  0  0  0  0  0
   10.5455   22.2384    2.2978 C   0  0  0  0  0  0  0  0  0  0  0  0
   11.1503   20.9755    2.3090 C   0  0  0  0  0  0  0  0  0  0  0  0
   10.7170   20.4185    3.4879 C   0  0  0  0  0  0  0  0  0  0  0  0
    9.9210   21.3012    4.1066 N   0  0  0  0  0  0  0  0  0  0  0  0
    9.8016   22.4112    3.4057 N   0  0  0  0  0  0  0  0  0  0  0  0
    9.1078   23.5295    3.6711 C   0  0  0  0  0  0  0  0  0  0  0  0
   11.9933   20.4723    1.2418 C   0  0  0  0  0  0  0  0  0  0  0  0
   13.3758   20.4136    1.3932 C   0  0  0  0  0  0  0  0  0  0  0  0
   14.2279   19.9731    0.4145 C   0  0  0  0  0  0  0  0  0  0  0  0
   13.6873   19.5645   -0.7875 C   0  0  0  0  0  0  0  0  0  0  0  0
   12.3061   19.5983   -1.0030 C   0  0  0  0  0  0  0  0  0  0  0  0
   11.8102   19.1755   -2.2096 C   0  0  0  0  0  0  0  0  0  0  0  0
   10.4679   19.1934   -2.4345 C   0  0  0  0  0  0  0  0  0  0  0  0
    9.6169   19.6347   -1.4510 C   0  0  0  0  0  0  0  0  0  0  0  0
   10.1411   20.0614   -0.2284 C   0  0  0  0  0  0  0  0  0  0  0  0
   11.4913   20.0584    0.0354 C   0  0  0  0  0  0  0  0  0  0  0  0
    7.0678   28.1741    3.4853 C   0  0  0  0  0  0  0  0  0  0  0  0
    7.8656   28.0452    2.3894 C   0  0  0  0  0  0  0  0  0  0  0  0
    8.5769   26.8773    2.0956 C   0  0  0  0  0  0  0  0  0  0  0  0
    8.4390   25.8294    2.9808 C   0  0  0  0  0  0  0  0  0  0  0  0
    7.6333   25.9097    4.1187 C   0  0  0  0  0  0  0  0  0  0  0  0
    6.9658   27.0901    4.3390 C   0  0  0  0  0  0  0  0  0  0  0  0
    5.2681   30.8763    5.4177 C   0  0  0  0  0  0  0  0  0  0  0  0
    5.9861   29.5627    5.2091 C   0  0  0  0  0  0  0  0  0  0  0  0
    6.3372   29.3487    3.8258 N   0  0  0  0  0  0  0  0  0  0  0  0
    6.0140   30.2459    2.7388 C   0  0  0  0  0  0  0  0  0  0  0  0
    5.2995   31.4816    3.1704 C   0  0  0  0  0  0  0  0  0  0  0  0
    5.7508   31.8869    4.4925 N   0  0  0  0  0  0  0  0  0  0  0  0
    6.7642   32.0258    4.5697 H   0  0  0  0  0  0  0  0  0  0  0  0
 26 27  1  0  0  0
 27 28  1  0  0  0
 28 29  1  0  0  0
 29 30  1  0  0  0
 30 31  1  0  0  0
 28 20  1  0  0  0
 20 21  2  0  0  0
 21 22  1  0  0  0
 22 23  2  0  0  0
 23 24  1  0  0  0
 24 25  2  0  0  0
 23  1  1  0  0  0
  1  2  1  0  0  0
  2  3  2  0  0  0
  3  4  1  0  0  0
  4  5  2  0  0  0
  5  6  1  0  0  0
  6  7  2  0  0  0
  7  8  1  0  0  0
  8  9  1  0  0  0
  5 10  1  0  0  0
 10 11  2  0  0  0
 11 12  1  0  0  0
 12 13  2  0  0  0
 13 14  1  0  0  0
 14 15  2  0  0  0
 15 16  1  0  0  0
 16 17  2  0  0  0
 17 18  1  0  0  0
 18 19  2  0  0  0
 31 26  1  0  0  0
 25 20  1  0  0  0
  9  1  2  0  0  0
 19 10  1  0  0  0
  8  4  1  0  0  0
 19 14  1  0  0  0
 31 32  1  0  0  0
M  END
> <minimizedAffinity>
29.82079

> <CNNscore>
0.3496309817

> <CNNaffinity>
5.6632781029

> <CNN_VS>
1.9800574780

> <CNNaffinity_variance>
0.4492860734

$$$$
[H]c1nc2c(-c3c([H])c([H])c([H])c4c([H])c([H])c([H])c([H])c34)c([H])nn2c([H])c1-c1c([H])c([H])c(N2C([H])([H])C([H])([H])N([H])C([H])([H])C2([H])[H])c([H])c1[H]


 32 37  0  0  0  0  0  0  0  0999 V2000
   11.6251   23.4935    0.3740 C   0  0  0  0  0  0  0  0  0  0  0  0
   11.3196   24.1919   -0.7677 C   0  0  0  0  0  0  0  0  0  0  0  0
   12.2865   24.7242   -1.5287 N   0  0  0  0  0  0  0  0  0  0  0  0
   13.6059   24.5993   -1.2100 C   0  0  0  0  0  0  0  0  0  0  0  0
   14.7833   25.0532   -1.8171 C   0  0  0  0  0  0  0  0  0  0  0  0
   15.7757   24.5916   -0.9865 C   0  0  0  0  0  0  0  0  0  0  0  0
   15.2052   23.9216    0.0242 N   0  0  0  0  0  0  0  0  0  0  0  0
   13.8919   23.9123   -0.0888 N   0  0  0  0  0  0  0  0  0  0  0  0
   12.9609   23.3611    0.7059 C   0  0  0  0  0  0  0  0  0  0  0  0
   14.8172   25.8013   -3.0588 C   0  0  0  0  0  0  0  0  0  0  0  0
   13.7787   25.7002   -3.9803 C   0  0  0  0  0  0  0  0  0  0  0  0
   13.7633   26.3603   -5.1811 C   0  0  0  0  0  0  0  0  0  0  0  0
   14.8352   27.1703   -5.4954 C   0  0  0  0  0  0  0  0  0  0  0  0
   15.9100   27.3152   -4.6128 C   0  0  0  0  0  0  0  0  0  0  0  0
   16.9513   28.1366   -4.9611 C   0  0  0  0  0  0  0  0  0  0  0  0
   18.0023   28.2964   -4.1110 C   0  0  0  0  0  0  0  0  0  0  0  0
   18.0138   27.6340   -2.9080 C   0  0  0  0  0  0  0  0  0  0  0  0
   16.9437   26.8015   -2.5709 C   0  0  0  0  0  0  0  0  0  0  0  0
   15.8650   26.6147   -3.4040 C   0  0  0  0  0  0  0  0  0  0  0  0
    8.4378   21.9060    2.6287 C   0  0  0  0  0  0  0  0  0  0  0  0
    9.6945   21.9541    3.1507 C   0  0  0  0  0  0  0  0  0  0  0  0
   10.7916   22.4715    2.4542 C   0  0  0  0  0  0  0  0  0  0  0  0
   10.5498   22.9451    1.1822 C   0  0  0  0  0  0  0  0  0  0  0  0
    9.2802   22.9195    0.6010 C   0  0  0  0  0  0  0  0  0  0  0  0
    8.2530   22.3961    1.3480 C   0  0  0  0  0  0  0  0  0  0  0  0
    5.2483   20.0361    3.4069 C   0  0  0  0  0  0  0  0  0  0  0  0
    6.3684   20.5717    2.5448 C   0  0  0  0  0  0  0  0  0  0  0  0
    7.2980   21.3770    3.2998 N   0  0  0  0  0  0  0  0  0  0  0  0
    7.1743   21.6891    4.7063 C   0  0  0  0  0  0  0  0  0  0  0  0
    5.9918   21.0591    5.3610 C   0  0  0  0  0  0  0  0  0  0  0  0
    5.7128   19.7657    4.7565 N   0  0  0  0  0  0  0  0  0  0  0  0
    6.5049   19.1140    4.7669 H   0  0  0  0  0  0  0  0  0  0  0  0
 26 27  1  0  0  0
 27 28  1  0  0  0
 28 29  1  0  0  0
 29 30  1  0  0  0
 30 31  1  0  0  0
 28 20  1  0  0  0
 20 21  2  0  0  0
 21 22  1  0  0  0
 22 23  2  0  0  0
 23 24  1  0  0  0
 24 25  2  0  0  0
 23  1  1  0  0  0
  1  2  1  0  0  0
  2  3  2  0  0  0
  3  4  1  0  0  0
  4  5  2  0  0  0
  5  6  1  0  0  0
  6  7  2  0  0  0
  7  8  1  0  0  0
  8  9  1  0  0  0
  5 10  1  0  0  0
 10 11  2  0  0  0
 11 12  1  0  0  0
 12 13  2  0  0  0
 13 14  1  0  0  0
 14 15  2  0  0  0
 15 16  1  0  0  0
 16 17  2  0  0  0
 17 18  1  0  0  0
 18 19  2  0  0  0
 31 26  1  0  0  0
 25 20  1  0  0  0
  9  1  2  0  0  0
 19 10  1  0  0  0
  8  4  1  0  0  0
 19 14  1  0  0  0
 31 32  1  0  0  0
M  END
> <minimizedAffinity>
-8.12930

> <CNNscore>
0.3428447247

> <CNNaffinity>
6.9067716599

> <CNN_VS>
2.3679502010

> <CNNaffinity_variance>
0.3156968355

$$$$
[H]c1nc2c(-c3c([H])c([H])c([H])c4c([H])c([H])c([H])c([H])c34)c([H])nn2c([H])c1-c1c([H])c([H])c(N2C([H])([H])C([H])([H])N([H])C([H])([H])C2([H])[H])c([H])c1[H]


 32 37  0  0  0  0  0  0  0  0999 V2000
   12.2500   26.6697   -3.1799 C   0  0  0  0  0  0  0  0  0  0  0  0
   11.5855   25.9071   -2.2519 C   0  0  0  0  0  0  0  0  0  0  0  0
   12.2054   24.9041   -1.6138 N   0  0  0  0  0  0  0  0  0  0  0  0
   13.5115   24.5959   -1.8521 C   0  0  0  0  0  0  0  0  0  0  0  0
   14.3726   23.6187   -1.3377 C   0  0  0  0  0  0  0  0  0  0  0  0
   15.5544   23.8458   -2.0007 C   0  0  0  0  0  0  0  0  0  0  0  0
   15.3805   24.8797   -2.8353 N   0  0  0  0  0  0  0  0  0  0  0  0
   14.1516   25.3510   -2.7636 N   0  0  0  0  0  0  0  0  0  0  0  0
   13.5756   26.3650   -3.4288 C   0  0  0  0  0  0  0  0  0  0  0  0
   13.9937   22.6637   -0.3144 C   0  0  0  0  0  0  0  0  0  0  0  0
   12.8927   22.8965    0.5051 C   0  0  0  0  0  0  0  0  0  0  0  0
   12.4988   22.0470    1.5056 C   0  0  0  0  0  0  0  0  0  0  0  0
   13.2324   20.8969    1.7130 C   0  0  0  0  0  0  0  0  0  0  0  0
   14.3490   20.6043    0.9239 C   0  0  0  0  0  0  0  0  0  0  0  0
   15.0451   19.4463    1.1587 C   0  0  0  0  0  0  0  0  0  0  0  0
   16.1297   19.1408    0.3952 C   0  0  0  0  0  0  0  0  0  0  0  0
   16.5211   19.9942   -0.6071 C   0  0  0  0  0  0  0  0  0  0  0  0
   15.7991   21.1691   -0.8311 C   0  0  0  0  0  0  0  0  0  0  0  0
   14.6986   21.5119   -0.0801 C   0  0  0  0  0  0  0  0  0  0  0  0
   10.2568   29.8430   -5.1086 C   0  0  0  0  0  0  0  0  0  0  0  0
   10.0334   28.5552   -5.4904 C   0  0  0  0  0  0  0  0  0  0  0  0
   10.6609   27.4601   -4.8878 C   0  0  0  0  0  0  0  0  0  0  0  0
   11.5408   27.7376   -3.8632 C   0  0  0  0  0  0  0  0  0  0  0  0
   11.8046   29.0398   -3.4331 C   0  0  0  0  0  0  0  0  0  0  0  0
   11.1491   30.0627   -4.0743 C   0  0  0  0  0  0  0  0  0  0  0  0
    7.9439   32.7439   -5.8228 C   0  0  0  0  0  0  0  0  0  0  0  0
    8.4331   31.4994   -5.1181 C   0  0  0  0  0  0  0  0  0  0  0  0
    9.6476   30.9850   -5.7036 N   0  0  0  0  0  0  0  0  0  0  0  0
   10.3161   31.5464   -6.8565 C   0  0  0  0  0  0  0  0  0  0  0  0
    9.6592   32.7716   -7.3960 C   0  0  0  0  0  0  0  0  0  0  0  0
    9.0576   33.5364   -6.3147 N   0  0  0  0  0  0  0  0  0  0  0  0
    9.7083   33.7921   -5.5641 H   0  0  0  0  0  0  0  0  0  0  0  0
 26 27  1  0  0  0
 27 28  1  0  0  0
 28 29  1  0  0  0
 29 30  1  0  0  0
 30 31  1  0  0  0
 28 20  1  0  0  0
 20 21  2  0  0  0
 21 22  1  0  0  0
 22 23  2  0  0  0
 23 24  1  0  0  0
 24 25  2  0  0  0
 23  1  1  0  0  0
  1  2  1  0  0  0
  2  3  2  0  0  0
  3  4  1  0  0  0
  4  5  2  0  0  0
  5  6  1  0  0  0
  6  7  2  0  0  0
  7  8  1  0  0  0
  8  9  1  0  0  0
  5 10  1  0  0  0
 10 11  2  0  0  0
 11 12  1  0  0  0
 12 13  2  0  0  0
 13 14  1  0  0  0
 14 15  2  0  0  0
 15 16  1  0  0  0
 16 17  2  0  0  0
 17 18  1  0  0  0
 18 19  2  0  0  0
 31 26  1  0  0  0
 25 20  1  0  0  0
  9  1  2  0  0  0
 19 10  1  0  0  0
  8  4  1  0  0  0
 19 14  1  0  0  0
 31 32  1  0  0  0
M  END
> <minimizedAffinity>
45.86657

> <CNNscore>
0.2720479667

> <CNNaffinity>
6.2054920197

> <CNN_VS>
1.6881915331

> <CNNaffinity_variance>
0.7462322116

$$$$
[H]c1nc2c(-c3c([H])c([H])c([H])c4c([H])c([H])c([H])c([H])c34)c([H])nn2c([H])c1-c1c([H])c([H])c(N2C([H])([H])C([H])([H])N([H])C([H])([H])C2([H])[H])c([H])c1[H]


 32 37  0  0  0  0  0  0  0  0999 V2000
   12.2478   23.6014   -0.7663 C   0  0  0  0  0  0  0  0  0  0  0  0
   12.2500   24.5433   -1.7649 C   0  0  0  0  0  0  0  0  0  0  0  0
   13.3884   25.1403   -2.1458 N   0  0  0  0  0  0  0  0  0  0  0  0
   14.5864   24.8445   -1.5668 C   0  0  0  0  0  0  0  0  0  0  0  0
   15.8892   25.3159   -1.7706 C   0  0  0  0  0  0  0  0  0  0  0  0
   16.6356   24.6130   -0.8561 C   0  0  0  0  0  0  0  0  0  0  0  0
   15.8168   23.7976   -0.1774 N   0  0  0  0  0  0  0  0  0  0  0  0
   14.5707   23.9196   -0.5896 N   0  0  0  0  0  0  0  0  0  0  0  0
   13.4583   23.2943   -0.1726 C   0  0  0  0  0  0  0  0  0  0  0  0
   16.2462   26.2991   -2.7749 C   0  0  0  0  0  0  0  0  0  0  0  0
   16.8864   27.4826   -2.4177 C   0  0  0  0  0  0  0  0  0  0  0  0
   17.2267   28.4613   -3.3145 C   0  0  0  0  0  0  0  0  0  0  0  0
   16.9190   28.2641   -4.6451 C   0  0  0  0  0  0  0  0  0  0  0  0
   16.2768   27.0967   -5.0691 C   0  0  0  0  0  0  0  0  0  0  0  0
   15.9968   26.9377   -6.4022 C   0  0  0  0  0  0  0  0  0  0  0  0
   15.3795   25.8042   -6.8346 C   0  0  0  0  0  0  0  0  0  0  0  0
   15.0407   24.8252   -5.9330 C   0  0  0  0  0  0  0  0  0  0  0  0
   15.3343   25.0054   -4.5791 C   0  0  0  0  0  0  0  0  0  0  0  0
   15.9564   26.1370   -4.1046 C   0  0  0  0  0  0  0  0  0  0  0  0
    8.6479   21.7206    0.3590 C   0  0  0  0  0  0  0  0  0  0  0  0
    8.8487   23.0407    0.6260 C   0  0  0  0  0  0  0  0  0  0  0  0
   10.0190   23.7215    0.2752 C   0  0  0  0  0  0  0  0  0  0  0  0
   10.9923   22.9879   -0.3691 C   0  0  0  0  0  0  0  0  0  0  0  0
   10.8362   21.6324   -0.6669 C   0  0  0  0  0  0  0  0  0  0  0  0
    9.6583   21.0338   -0.2906 C   0  0  0  0  0  0  0  0  0  0  0  0
    5.7655   19.2784    0.3151 C   0  0  0  0  0  0  0  0  0  0  0  0
    6.9727   20.0108   -0.2241 C   0  0  0  0  0  0  0  0  0  0  0  0
    7.4771   20.9887    0.7096 N   0  0  0  0  0  0  0  0  0  0  0  0
    6.8910   21.2865    1.9976 C   0  0  0  0  0  0  0  0  0  0  0  0
    5.7033   20.4472    2.3270 C   0  0  0  0  0  0  0  0  0  0  0  0
    5.8539   19.1177    1.7562 N   0  0  0  0  0  0  0  0  0  0  0  0
    6.7124   18.6314    2.0366 H   0  0  0  0  0  0  0  0  0  0  0  0
 26 27  1  0  0  0
 27 28  1  0  0  0
 28 29  1  0  0  0
 29 30  1  0  0  0
 30 31  1  0  0  0
 28 20  1  0  0  0
 20 21  2  0  0  0
 21 22  1  0  0  0
 22 23  2  0  0  0
 23 24  1  0  0  0
 24 25  2  0  0  0
 23  1  1  0  0  0
  1  2  1  0  0  0
  2  3  2  0  0  0
  3  4  1  0  0  0
  4  5  2  0  0  0
  5  6  1  0  0  0
  6  7  2  0  0  0
  7  8  1  0  0  0
  8  9  1  0  0  0
  5 10  1  0  0  0
 10 11  2  0  0  0
 11 12  1  0  0  0
 12 13  2  0  0  0
 13 14  1  0  0  0
 14 15  2  0  0  0
 15 16  1  0  0  0
 16 17  2  0  0  0
 17 18  1  0  0  0
 18 19  2  0  0  0
 31 26  1  0  0  0
 25 20  1  0  0  0
  9  1  2  0  0  0
 19 10  1  0  0  0
  8  4  1  0  0  0
 19 14  1  0  0  0
 31 32  1  0  0  0
M  END
> <minimizedAffinity>
-8.48273

> <CNNscore>
0.2379228473

> <CNNaffinity>
7.0103502274

> <CNN_VS>
1.6679224968

> <CNNaffinity_variance>
0.2380594313

$$$$
[H]Oc1c([H])c([H])c(-c2c([H])c([H])c(C([H])([H])C([H])([H])C([H])([H])C(=O)N([H])C([H])([H])C([H])([H])C([H])([H])C([H])([H])C([H])([H])C([H])([H])C(=O)N(C([H])([H])[H])C([H])([H])[H])c([H])c2[H])c([H])c1[H]


 32 33  0  0  0  0  0  0  0  0999 V2000
   12.0811   20.9818    0.7872 C   0  0  0  0  0  0  0  0  0  0  0  0
   11.7901   20.5886    3.2309 N   0  0  0  0  0  0  0  0  0  0  0  0
   11.1964   20.7177    1.9665 C   0  0  0  0  0  0  0  0  0  0  0  0
    9.9514   20.6104    1.8503 O   0  0  0  0  0  0  0  0  0  0  0  0
   12.8129   20.6746    3.3411 H   0  0  0  0  0  0  0  0  0  0  0  0
   10.9705   20.3341    4.3874 C   0  0  0  0  0  0  0  0  0  0  0  0
   10.5422   21.5920    5.0912 C   0  0  0  0  0  0  0  0  0  0  0  0
    9.0619   21.8422    4.9890 C   0  0  0  0  0  0  0  0  0  0  0  0
    8.7631   23.1822    4.3522 C   0  0  0  0  0  0  0  0  0  0  0  0
    9.8554   23.6634    3.4671 C   0  0  0  0  0  0  0  0  0  0  0  0
    9.4579   24.5707    2.3587 C   0  0  0  0  0  0  0  0  0  0  0  0
   11.7946   24.9599    0.6466 C   0  0  0  0  0  0  0  0  0  0  0  0
   10.6674   24.1960    0.1900 N   0  0  0  0  0  0  0  0  0  0  0  0
   10.7038   23.6190   -1.1399 C   0  0  0  0  0  0  0  0  0  0  0  0
    9.5040   23.9895    1.0172 C   0  0  0  0  0  0  0  0  0  0  0  0
    8.5415   23.3113    0.5735 O   0  0  0  0  0  0  0  0  0  0  0  0
   13.4796   21.1217    1.2924 C   0  0  0  0  0  0  0  0  0  0  0  0
   14.4710   20.8081    0.2053 C   0  0  0  0  0  0  0  0  0  0  0  0
   14.6752   21.9500   -0.7162 C   0  0  0  0  0  0  0  0  0  0  0  0
   14.9578   23.1785   -0.1464 C   0  0  0  0  0  0  0  0  0  0  0  0
   15.1690   24.3049   -0.9150 C   0  0  0  0  0  0  0  0  0  0  0  0
   15.0896   24.1728   -2.3014 C   0  0  0  0  0  0  0  0  0  0  0  0
   14.8093   22.9571   -2.8827 C   0  0  0  0  0  0  0  0  0  0  0  0
   14.5996   21.8333   -2.0877 C   0  0  0  0  0  0  0  0  0  0  0  0
   15.3094   25.3485   -3.1101 C   0  0  0  0  0  0  0  0  0  0  0  0
   14.4283   25.6985   -4.1193 C   0  0  0  0  0  0  0  0  0  0  0  0
   14.6266   26.8290   -4.9065 C   0  0  0  0  0  0  0  0  0  0  0  0
   15.7220   27.6369   -4.6945 C   0  0  0  0  0  0  0  0  0  0  0  0
   15.9248   28.7732   -5.4828 O   0  0  0  0  0  0  0  0  0  0  0  0
   16.6014   27.3141   -3.7095 C   0  0  0  0  0  0  0  0  0  0  0  0
   16.3949   26.1914   -2.9356 C   0  0  0  0  0  0  0  0  0  0  0  0
   15.3068   29.0475   -6.2147 H   0  0  0  0  0  0  0  0  0  0  0  0
 12 13  1  0  0  0
 13 14  1  0  0  0
 13 15  1  0  0  0
 15 16  2  0  0  0
 15 11  1  0  0  0
 11 10  1  0  0  0
 10  9  1  0  0  0
  9  8  1  0  0  0
  8  7  1  0  0  0
  7  6  1  0  0  0
  6  2  1  0  0  0
  2  3  1  0  0  0
  3  4  2  0  0  0
  3  1  1  0  0  0
  1 17  1  0  0  0
 17 18  1  0  0  0
 18 19  1  0  0  0
 19 20  2  0  0  0
 20 21  1  0  0  0
 21 22  2  0  0  0
 22 23  1  0  0  0
 23 24  2  0  0  0
 22 25  1  0  0  0
 25 26  2  0  0  0
 26 27  1  0  0  0
 27 28  2  0  0  0
 28 29  1  0  0  0
 28 30  1  0  0  0
 30 31  2  0  0  0
 24 19  1  0  0  0
 31 25  1  0  0  0
  2  5  1  0  0  0
 29 32  1  0  0  0
M  END
> <minimizedAffinity>
-7.94014

> <CNNscore>
0.4247899652

> <CNNaffinity>
7.0059814453

> <CNN_VS>
2.9760706425

> <CNNaffinity_variance>
0.2349944860

$$$$
[H]Oc1c([H])c([H])c(-c2c([H])c([H])c(C([H])([H])C([H])([H])C([H])([H])C(=O)N([H])C([H])([H])C([H])([H])C([H])([H])C([H])([H])C([H])([H])C([H])([H])C(=O)N(C([H])([H])[H])C([H])([H])[H])c([H])c2[H])c([H])c1[H]


 32 33  0  0  0  0  0  0  0  0999 V2000
   14.4142   21.4051   -0.0074 C   0  0  0  0  0  0  0  0  0  0  0  0
   12.8741   20.7800    1.8496 N   0  0  0  0  0  0  0  0  0  0  0  0
   13.1284   20.8036    0.4702 C   0  0  0  0  0  0  0  0  0  0  0  0
   12.2839   20.3261   -0.3260 O   0  0  0  0  0  0  0  0  0  0  0  0
   13.5598   21.1692    2.5158 H   0  0  0  0  0  0  0  0  0  0  0  0
   11.6483   20.2091    2.3450 C   0  0  0  0  0  0  0  0  0  0  0  0
   10.5793   21.2378    2.5905 C   0  0  0  0  0  0  0  0  0  0  0  0
   11.0921   22.6485    2.4844 C   0  0  0  0  0  0  0  0  0  0  0  0
   10.2568   23.4779    1.5333 C   0  0  0  0  0  0  0  0  0  0  0  0
    8.7952   23.2958    1.7307 C   0  0  0  0  0  0  0  0  0  0  0  0
    7.9936   23.0088    0.5122 C   0  0  0  0  0  0  0  0  0  0  0  0
    8.7536   20.5489   -0.8713 C   0  0  0  0  0  0  0  0  0  0  0  0
    7.5367   20.6195   -0.1119 N   0  0  0  0  0  0  0  0  0  0  0  0
    6.6847   19.4482   -0.0422 C   0  0  0  0  0  0  0  0  0  0  0  0
    7.1414   21.8218    0.5800 C   0  0  0  0  0  0  0  0  0  0  0  0
    6.0666   21.8347    1.2340 O   0  0  0  0  0  0  0  0  0  0  0  0
   14.9428   22.2724    1.0876 C   0  0  0  0  0  0  0  0  0  0  0  0
   14.4315   23.6799    0.9443 C   0  0  0  0  0  0  0  0  0  0  0  0
   14.7810   24.2744   -0.3670 C   0  0  0  0  0  0  0  0  0  0  0  0
   13.7795   24.3357   -1.3194 C   0  0  0  0  0  0  0  0  0  0  0  0
   13.9987   24.8740   -2.5709 C   0  0  0  0  0  0  0  0  0  0  0  0
   15.2736   25.3623   -2.8568 C   0  0  0  0  0  0  0  0  0  0  0  0
   16.2800   25.3082   -1.9194 C   0  0  0  0  0  0  0  0  0  0  0  0
   16.0365   24.7606   -0.6624 C   0  0  0  0  0  0  0  0  0  0  0  0
   15.5083   25.9262   -4.1651 C   0  0  0  0  0  0  0  0  0  0  0  0
   15.2795   25.1886   -5.3143 C   0  0  0  0  0  0  0  0  0  0  0  0
   15.5004   25.7188   -6.5821 C   0  0  0  0  0  0  0  0  0  0  0  0
   15.9590   27.0102   -6.7222 C   0  0  0  0  0  0  0  0  0  0  0  0
   16.1821   27.5465   -7.9936 O   0  0  0  0  0  0  0  0  0  0  0  0
   16.1910   27.7544   -5.6086 C   0  0  0  0  0  0  0  0  0  0  0  0
   15.9687   27.2187   -4.3573 C   0  0  0  0  0  0  0  0  0  0  0  0
   16.0257   27.0379   -8.8360 H   0  0  0  0  0  0  0  0  0  0  0  0
 12 13  1  0  0  0
 13 14  1  0  0  0
 13 15  1  0  0  0
 15 16  2  0  0  0
 15 11  1  0  0  0
 11 10  1  0  0  0
 10  9  1  0  0  0
  9  8  1  0  0  0
  8  7  1  0  0  0
  7  6  1  0  0  0
  6  2  1  0  0  0
  2  3  1  0  0  0
  3  4  2  0  0  0
  3  1  1  0  0  0
  1 17  1  0  0  0
 17 18  1  0  0  0
 18 19  1  0  0  0
 19 20  2  0  0  0
 20 21  1  0  0  0
 21 22  2  0  0  0
 22 23  1  0  0  0
 23 24  2  0  0  0
 22 25  1  0  0  0
 25 26  2  0  0  0
 26 27  1  0  0  0
 27 28  2  0  0  0
 28 29  1  0  0  0
 28 30  1  0  0  0
 30 31  2  0  0  0
 24 19  1  0  0  0
 31 25  1  0  0  0
  2  5  1  0  0  0
 29 32  1  0  0  0
M  END
> <minimizedAffinity>
-6.23382

> <CNNscore>
0.3957871795

> <CNNaffinity>
6.9922189713

> <CNN_VS>
2.7674305439

> <CNNaffinity_variance>
0.1211515665

$$$$
[H]Oc1c([H])c([H])c(-c2c([H])c([H])c(C([H])([H])C([H])([H])C([H])([H])C(=O)N([H])C([H])([H])C([H])([H])C([H])([H])C([H])([H])C([H])([H])C([H])([H])C(=O)N(C([H])([H])[H])C([H])([H])[H])c([H])c2[H])c([H])c1[H]


 32 33  0  0  0  0  0  0  0  0999 V2000
   11.7065   21.0144   -0.9532 C   0  0  0  0  0  0  0  0  0  0  0  0
    9.2153   20.9605   -0.9078 N   0  0  0  0  0  0  0  0  0  0  0  0
   10.4264   20.4930   -0.3764 C   0  0  0  0  0  0  0  0  0  0  0  0
   10.4132   19.6578    0.5603 O   0  0  0  0  0  0  0  0  0  0  0  0
    9.2114   21.6475   -1.6783 H   0  0  0  0  0  0  0  0  0  0  0  0
    7.9650   20.4814   -0.3776 C   0  0  0  0  0  0  0  0  0  0  0  0
    7.1754   21.5531    0.3219 C   0  0  0  0  0  0  0  0  0  0  0  0
    6.8297   21.1905    1.7408 C   0  0  0  0  0  0  0  0  0  0  0  0
    7.4651   22.1409    2.7324 C   0  0  0  0  0  0  0  0  0  0  0  0
    8.9088   21.8695    2.9569 C   0  0  0  0  0  0  0  0  0  0  0  0
    9.6367   22.8344    3.8223 C   0  0  0  0  0  0  0  0  0  0  0  0
    8.2450   24.8469    5.4210 C   0  0  0  0  0  0  0  0  0  0  0  0
    8.8996   25.2061    4.1942 N   0  0  0  0  0  0  0  0  0  0  0  0
    8.8586   26.5879    3.7562 C   0  0  0  0  0  0  0  0  0  0  0  0
    9.5934   24.2310    3.3892 C   0  0  0  0  0  0  0  0  0  0  0  0
   10.1532   24.5942    2.3225 O   0  0  0  0  0  0  0  0  0  0  0  0
   12.7449   20.9519    0.1185 C   0  0  0  0  0  0  0  0  0  0  0  0
   14.1256   20.9611   -0.4784 C   0  0  0  0  0  0  0  0  0  0  0  0
   14.4176   22.2208   -1.2013 C   0  0  0  0  0  0  0  0  0  0  0  0
   14.7901   22.1149   -2.5294 C   0  0  0  0  0  0  0  0  0  0  0  0
   15.0797   23.2265   -3.2940 C   0  0  0  0  0  0  0  0  0  0  0  0
   14.9861   24.4786   -2.6863 C   0  0  0  0  0  0  0  0  0  0  0  0
   14.6167   24.5997   -1.3659 C   0  0  0  0  0  0  0  0  0  0  0  0
   14.3289   23.4642   -0.6130 C   0  0  0  0  0  0  0  0  0  0  0  0
   15.2884   25.6449   -3.4818 C   0  0  0  0  0  0  0  0  0  0  0  0
   16.3476   26.4765   -3.1597 C   0  0  0  0  0  0  0  0  0  0  0  0
   16.6516   27.6038   -3.9174 C   0  0  0  0  0  0  0  0  0  0  0  0
   15.8922   27.9209   -5.0221 C   0  0  0  0  0  0  0  0  0  0  0  0
   16.1942   29.0520   -5.7858 O   0  0  0  0  0  0  0  0  0  0  0  0
   14.8470   27.1196   -5.3587 C   0  0  0  0  0  0  0  0  0  0  0  0
   14.5549   26.0051   -4.6005 C   0  0  0  0  0  0  0  0  0  0  0  0
   16.9500   29.6666   -5.5763 H   0  0  0  0  0  0  0  0  0  0  0  0
 12 13  1  0  0  0
 13 14  1  0  0  0
 13 15  1  0  0  0
 15 16  2  0  0  0
 15 11  1  0  0  0
 11 10  1  0  0  0
 10  9  1  0  0  0
  9  8  1  0  0  0
  8  7  1  0  0  0
  7  6  1  0  0  0
  6  2  1  0  0  0
  2  3  1  0  0  0
  3  4  2  0  0  0
  3  1  1  0  0  0
  1 17  1  0  0  0
 17 18  1  0  0  0
 18 19  1  0  0  0
 19 20  2  0  0  0
 20 21  1  0  0  0
 21 22  2  0  0  0
 22 23  1  0  0  0
 23 24  2  0  0  0
 22 25  1  0  0  0
 25 26  2  0  0  0
 26 27  1  0  0  0
 27 28  2  0  0  0
 28 29  1  0  0  0
 28 30  1  0  0  0
 30 31  2  0  0  0
 24 19  1  0  0  0
 31 25  1  0  0  0
  2  5  1  0  0  0
 29 32  1  0  0  0
M  END
> <minimizedAffinity>
-7.98015

> <CNNscore>
0.3663158119

> <CNNaffinity>
6.9602508545

> <CNN_VS>
2.5496499538

> <CNNaffinity_variance>
0.0058182096

$$$$
[H]Oc1c([H])c([H])c(-c2c([H])c([H])c(C([H])([H])C([H])([H])C([H])([H])C(=O)N([H])C([H])([H])C([H])([H])C([H])([H])C([H])([H])C([H])([H])C([H])([H])C(=O)N(C([H])([H])[H])C([H])([H])[H])c([H])c2[H])c([H])c1[H]


 32 33  0  0  0  0  0  0  0  0999 V2000
   11.3893   21.3655   -0.5035 C   0  0  0  0  0  0  0  0  0  0  0  0
    9.1358   20.7628   -1.3807 N   0  0  0  0  0  0  0  0  0  0  0  0
   10.2316   20.4180   -0.5756 C   0  0  0  0  0  0  0  0  0  0  0  0
   10.2199   19.3361    0.0603 O   0  0  0  0  0  0  0  0  0  0  0  0
    9.1320   21.6495   -1.9093 H   0  0  0  0  0  0  0  0  0  0  0  0
    8.0048   19.8762   -1.4738 C   0  0  0  0  0  0  0  0  0  0  0  0
    6.7523   20.4587   -0.8796 C   0  0  0  0  0  0  0  0  0  0  0  0
    6.4488   19.9146    0.4901 C   0  0  0  0  0  0  0  0  0  0  0  0
    6.1622   21.0215    1.4815 C   0  0  0  0  0  0  0  0  0  0  0  0
    7.3705   21.8073    1.8431 C   0  0  0  0  0  0  0  0  0  0  0  0
    7.8498   21.6772    3.2442 C   0  0  0  0  0  0  0  0  0  0  0  0
    9.0916   19.9334    5.2341 C   0  0  0  0  0  0  0  0  0  0  0  0
    9.8922   20.7920    4.4068 N   0  0  0  0  0  0  0  0  0  0  0  0
   11.3326   20.7834    4.5746 C   0  0  0  0  0  0  0  0  0  0  0  0
    9.3022   21.6601    3.4175 C   0  0  0  0  0  0  0  0  0  0  0  0
   10.0453   22.3934    2.7153 O   0  0  0  0  0  0  0  0  0  0  0  0
   12.2673   20.9231    0.6207 C   0  0  0  0  0  0  0  0  0  0  0  0
   13.7125   20.9372    0.2034 C   0  0  0  0  0  0  0  0  0  0  0  0
   14.0579   22.1417   -0.5870 C   0  0  0  0  0  0  0  0  0  0  0  0
   14.3849   21.9512   -1.9177 C   0  0  0  0  0  0  0  0  0  0  0  0
   14.7178   23.0062   -2.7425 C   0  0  0  0  0  0  0  0  0  0  0  0
   14.7167   24.2886   -2.1939 C   0  0  0  0  0  0  0  0  0  0  0  0
   14.3937   24.4937   -0.8718 C   0  0  0  0  0  0  0  0  0  0  0  0
   14.0607   23.4143   -0.0574 C   0  0  0  0  0  0  0  0  0  0  0  0
   15.0649   25.3959   -3.0526 C   0  0  0  0  0  0  0  0  0  0  0  0
   16.2312   26.1157   -2.8557 C   0  0  0  0  0  0  0  0  0  0  0  0
   16.5804   27.1848   -3.6756 C   0  0  0  0  0  0  0  0  0  0  0  0
   15.7590   27.5554   -4.7175 C   0  0  0  0  0  0  0  0  0  0  0  0
   16.1060   28.6285   -5.5433 O   0  0  0  0  0  0  0  0  0  0  0  0
   14.6084   26.8639   -4.9311 C   0  0  0  0  0  0  0  0  0  0  0  0
   14.2723   25.8062   -4.1123 C   0  0  0  0  0  0  0  0  0  0  0  0
   16.9386   29.1626   -5.4237 H   0  0  0  0  0  0  0  0  0  0  0  0
 12 13  1  0  0  0
 13 14  1  0  0  0
 13 15  1  0  0  0
 15 16  2  0  0  0
 15 11  1  0  0  0
 11 10  1  0  0  0
 10  9  1  0  0  0
  9  8  1  0  0  0
  8  7  1  0  0  0
  7  6  1  0  0  0
  6  2  1  0  0  0
  2  3  1  0  0  0
  3  4  2  0  0  0
  3  1  1  0  0  0
  1 17  1  0  0  0
 17 18  1  0  0  0
 18 19  1  0  0  0
 19 20  2  0  0  0
 20 21  1  0  0  0
 21 22  2  0  0  0
 22 23  1  0  0  0
 23 24  2  0  0  0
 22 25  1  0  0  0
 25 26  2  0  0  0
 26 27  1  0  0  0
 27 28  2  0  0  0
 28 29  1  0  0  0
 28 30  1  0  0  0
 30 31  2  0  0  0
 24 19  1  0  0  0
 31 25  1  0  0  0
  2  5  1  0  0  0
 29 32  1  0  0  0
M  END
> <minimizedAffinity>
-7.83693

> <CNNscore>
0.3589568138

> <CNNaffinity>
6.8163361549

> <CNN_VS>
2.4467701912

> <CNNaffinity_variance>
0.0332098417

$$$$
[H]Oc1c([H])c([H])c(-c2c([H])c([H])c(C([H])([H])C([H])([H])C([H])([H])C(=O)N([H])C([H])([H])C([H])([H])C([H])([H])C([H])([H])C([H])([H])C([H])([H])C(=O)N(C([H])([H])[H])C([H])([H])[H])c([H])c2[H])c([H])c1[H]


 32 33  0  0  0  0  0  0  0  0999 V2000
   14.2410   20.8222   -0.0624 C   0  0  0  0  0  0  0  0  0  0  0  0
   11.7991   20.5936   -0.5052 N   0  0  0  0  0  0  0  0  0  0  0  0
   12.8526   20.5327    0.4191 C   0  0  0  0  0  0  0  0  0  0  0  0
   12.6135   20.2407    1.6160 O   0  0  0  0  0  0  0  0  0  0  0  0
   11.9814   20.8326   -1.4927 H   0  0  0  0  0  0  0  0  0  0  0  0
   10.4511   20.3217   -0.0778 C   0  0  0  0  0  0  0  0  0  0  0  0
    9.7821   21.5144    0.5476 C   0  0  0  0  0  0  0  0  0  0  0  0
   10.2603   22.8198   -0.0283 C   0  0  0  0  0  0  0  0  0  0  0  0
   10.1990   23.9372    0.9905 C   0  0  0  0  0  0  0  0  0  0  0  0
    8.8525   24.0989    1.5979 C   0  0  0  0  0  0  0  0  0  0  0  0
    8.8124   24.3367    3.0647 C   0  0  0  0  0  0  0  0  0  0  0  0
    8.1761   27.0966    3.7866 C   0  0  0  0  0  0  0  0  0  0  0  0
    7.2105   26.0486    3.9648 N   0  0  0  0  0  0  0  0  0  0  0  0
    5.9093   26.3799    4.5126 C   0  0  0  0  0  0  0  0  0  0  0  0
    7.5011   24.6799    3.6149 C   0  0  0  0  0  0  0  0  0  0  0  0
    6.6220   23.7966    3.7880 O   0  0  0  0  0  0  0  0  0  0  0  0
   14.8395   21.8317    0.8613 C   0  0  0  0  0  0  0  0  0  0  0  0
   14.1569   23.1634    0.7072 C   0  0  0  0  0  0  0  0  0  0  0  0
   14.5510   23.8562   -0.5416 C   0  0  0  0  0  0  0  0  0  0  0  0
   13.6247   23.8815   -1.5688 C   0  0  0  0  0  0  0  0  0  0  0  0
   13.8899   24.5038   -2.7715 C   0  0  0  0  0  0  0  0  0  0  0  0
   15.1333   25.1160   -2.9289 C   0  0  0  0  0  0  0  0  0  0  0  0
   16.0650   25.0991   -1.9159 C   0  0  0  0  0  0  0  0  0  0  0  0
   15.7760   24.4651   -0.7102 C   0  0  0  0  0  0  0  0  0  0  0  0
   15.4160   25.7682   -4.1856 C   0  0  0  0  0  0  0  0  0  0  0  0
   15.8648   27.0774   -4.2280 C   0  0  0  0  0  0  0  0  0  0  0  0
   16.1421   27.7190   -5.4316 C   0  0  0  0  0  0  0  0  0  0  0  0
   15.9730   27.0536   -6.6259 C   0  0  0  0  0  0  0  0  0  0  0  0
   16.2504   27.6943   -7.8368 O   0  0  0  0  0  0  0  0  0  0  0  0
   15.5334   25.7675   -6.6102 C   0  0  0  0  0  0  0  0  0  0  0  0
   15.2616   25.1416   -5.4116 C   0  0  0  0  0  0  0  0  0  0  0  0
   16.5742   28.6347   -7.8955 H   0  0  0  0  0  0  0  0  0  0  0  0
 12 13  1  0  0  0
 13 14  1  0  0  0
 13 15  1  0  0  0
 15 16  2  0  0  0
 15 11  1  0  0  0
 11 10  1  0  0  0
 10  9  1  0  0  0
  9  8  1  0  0  0
  8  7  1  0  0  0
  7  6  1  0  0  0
  6  2  1  0  0  0
  2  3  1  0  0  0
  3  4  2  0  0  0
  3  1  1  0  0  0
  1 17  1  0  0  0
 17 18  1  0  0  0
 18 19  1  0  0  0
 19 20  2  0  0  0
 20 21  1  0  0  0
 21 22  2  0  0  0
 22 23  1  0  0  0
 23 24  2  0  0  0
 22 25  1  0  0  0
 25 26  2  0  0  0
 26 27  1  0  0  0
 27 28  2  0  0  0
 28 29  1  0  0  0
 28 30  1  0  0  0
 30 31  2  0  0  0
 24 19  1  0  0  0
 31 25  1  0  0  0
  2  5  1  0  0  0
 29 32  1  0  0  0
M  END
> <minimizedAffinity>
-6.74103

> <CNNscore>
0.3510998189

> <CNNaffinity>
6.9672417641

> <CNN_VS>
2.4461972713

> <CNNaffinity_variance>
0.0147455083

$$$$
[H]Oc1c([H])c([H])c(-c2c([H])c([H])c(C([H])([H])C([H])([H])C([H])([H])C(=O)N([H])C([H])([H])C([H])([H])C([H])([H])C([H])([H])C([H])([H])C([H])([H])C(=O)N(C([H])([H])[H])C([H])([H])[H])c([H])c2[H])c([H])c1[H]


 32 33  0  0  0  0  0  0  0  0999 V2000
   14.4594   21.1676    0.0862 C   0  0  0  0  0  0  0  0  0  0  0  0
   11.9923   20.9110    0.3282 N   0  0  0  0  0  0  0  0  0  0  0  0
   13.2695   20.7092    0.8719 C   0  0  0  0  0  0  0  0  0  0  0  0
   13.3881   20.1556    1.9920 O   0  0  0  0  0  0  0  0  0  0  0  0
   11.8800   21.3650   -0.5920 H   0  0  0  0  0  0  0  0  0  0  0  0
   10.8254   20.4834    1.0558 C   0  0  0  0  0  0  0  0  0  0  0  0
   10.4820   21.3946    2.2016 C   0  0  0  0  0  0  0  0  0  0  0  0
   10.3978   20.6702    3.5178 C   0  0  0  0  0  0  0  0  0  0  0  0
    9.2585   21.1867    4.3695 C   0  0  0  0  0  0  0  0  0  0  0  0
    9.4720   22.5774    4.8474 C   0  0  0  0  0  0  0  0  0  0  0  0
    8.4252   23.5693    4.4865 C   0  0  0  0  0  0  0  0  0  0  0  0
    9.8603   24.7665    2.2393 C   0  0  0  0  0  0  0  0  0  0  0  0
    8.6234   24.0665    2.0329 N   0  0  0  0  0  0  0  0  0  0  0  0
    8.0923   23.9631    0.6875 C   0  0  0  0  0  0  0  0  0  0  0  0
    7.8981   23.4667    3.1259 C   0  0  0  0  0  0  0  0  0  0  0  0
    6.8190   22.8623    2.8950 O   0  0  0  0  0  0  0  0  0  0  0  0
   15.2752   22.0499    0.9730 C   0  0  0  0  0  0  0  0  0  0  0  0
   14.7703   23.4661    0.9233 C   0  0  0  0  0  0  0  0  0  0  0  0
   15.0550   24.1195   -0.3755 C   0  0  0  0  0  0  0  0  0  0  0  0
   14.0862   24.0201   -1.3580 C   0  0  0  0  0  0  0  0  0  0  0  0
   14.2500   24.5960   -2.6012 C   0  0  0  0  0  0  0  0  0  0  0  0
   15.4340   25.2913   -2.8471 C   0  0  0  0  0  0  0  0  0  0  0  0
   16.4069   25.3987   -1.8794 C   0  0  0  0  0  0  0  0  0  0  0  0
   16.2205   24.8096   -0.6315 C   0  0  0  0  0  0  0  0  0  0  0  0
   15.6106   25.8954   -4.1465 C   0  0  0  0  0  0  0  0  0  0  0  0
   16.0923   27.1871   -4.2762 C   0  0  0  0  0  0  0  0  0  0  0  0
   16.2685   27.7823   -5.5219 C   0  0  0  0  0  0  0  0  0  0  0  0
   15.9622   27.0871   -6.6710 C   0  0  0  0  0  0  0  0  0  0  0  0
   16.1377   27.6813   -7.9240 O   0  0  0  0  0  0  0  0  0  0  0  0
   15.4877   25.8174   -6.5695 C   0  0  0  0  0  0  0  0  0  0  0  0
   15.3170   25.2375   -5.3298 C   0  0  0  0  0  0  0  0  0  0  0  0
   16.4823   28.6083   -8.0455 H   0  0  0  0  0  0  0  0  0  0  0  0
 12 13  1  0  0  0
 13 14  1  0  0  0
 13 15  1  0  0  0
 15 16  2  0  0  0
 15 11  1  0  0  0
 11 10  1  0  0  0
 10  9  1  0  0  0
  9  8  1  0  0  0
  8  7  1  0  0  0
  7  6  1  0  0  0
  6  2  1  0  0  0
  2  3  1  0  0  0
  3  4  2  0  0  0
  3  1  1  0  0  0
  1 17  1  0  0  0
 17 18  1  0  0  0
 18 19  1  0  0  0
 19 20  2  0  0  0
 20 21  1  0  0  0
 21 22  2  0  0  0
 22 23  1  0  0  0
 23 24  2  0  0  0
 22 25  1  0  0  0
 25 26  2  0  0  0
 26 27  1  0  0  0
 27 28  2  0  0  0
 28 29  1  0  0  0
 28 30  1  0  0  0
 30 31  2  0  0  0
 24 19  1  0  0  0
 31 25  1  0  0  0
  2  5  1  0  0  0
 29 32  1  0  0  0
M  END
> <minimizedAffinity>
-5.73007

> <CNNscore>
0.3485381603

> <CNNaffinity>
6.9871625900

> <CNN_VS>
2.4352927208

> <CNNaffinity_variance>
0.2236577570

$$$$
[H]Oc1c([H])c([H])c(-c2c([H])c([H])c(C([H])([H])C([H])([H])C([H])([H])C(=O)N([H])C([H])([H])C([H])([H])C([H])([H])C([H])([H])C([H])([H])C([H])([H])C(=O)N(C([H])([H])[H])C([H])([H])[H])c([H])c2[H])c([H])c1[H]


 32 33  0  0  0  0  0  0  0  0999 V2000
   13.3165   20.6803   -0.3324 C   0  0  0  0  0  0  0  0  0  0  0  0
   10.8504   20.9548   -0.5641 N   0  0  0  0  0  0  0  0  0  0  0  0
   11.9331   20.5354    0.2230 C   0  0  0  0  0  0  0  0  0  0  0  0
   11.7235   20.0532    1.3626 O   0  0  0  0  0  0  0  0  0  0  0  0
   11.0082   21.3531   -1.5033 H   0  0  0  0  0  0  0  0  0  0  0  0
    9.5062   20.8308   -0.0624 C   0  0  0  0  0  0  0  0  0  0  0  0
    9.1719   21.8614    0.9803 C   0  0  0  0  0  0  0  0  0  0  0  0
    7.7195   22.2544    0.9673 C   0  0  0  0  0  0  0  0  0  0  0  0
    6.8942   21.3788    1.8851 C   0  0  0  0  0  0  0  0  0  0  0  0
    7.4836   21.2382    3.2420 C   0  0  0  0  0  0  0  0  0  0  0  0
    6.8269   22.0070    4.3317 C   0  0  0  0  0  0  0  0  0  0  0  0
    9.4523   22.9830    5.1667 C   0  0  0  0  0  0  0  0  0  0  0  0
    8.4180   23.8989    4.7744 N   0  0  0  0  0  0  0  0  0  0  0  0
    8.6948   25.3221    4.8003 C   0  0  0  0  0  0  0  0  0  0  0  0
    7.1154   23.4408    4.3576 C   0  0  0  0  0  0  0  0  0  0  0  0
    6.2419   24.2817    4.0214 O   0  0  0  0  0  0  0  0  0  0  0  0
   14.1518   21.3583    0.7037 C   0  0  0  0  0  0  0  0  0  0  0  0
   13.7846   22.8129    0.8137 C   0  0  0  0  0  0  0  0  0  0  0  0
   14.0911   23.5657   -0.4250 C   0  0  0  0  0  0  0  0  0  0  0  0
   15.3183   24.2009   -0.4904 C   0  0  0  0  0  0  0  0  0  0  0  0
   15.7038   24.9248   -1.6001 C   0  0  0  0  0  0  0  0  0  0  0  0
   14.8128   25.0016   -2.6706 C   0  0  0  0  0  0  0  0  0  0  0  0
   13.5884   24.3749   -2.6200 C   0  0  0  0  0  0  0  0  0  0  0  0
   13.2199   23.6496   -1.4899 C   0  0  0  0  0  0  0  0  0  0  0  0
   15.2112   25.7582   -3.8340 C   0  0  0  0  0  0  0  0  0  0  0  0
   14.9254   25.3095   -5.1123 C   0  0  0  0  0  0  0  0  0  0  0  0
   15.3023   26.0282   -6.2431 C   0  0  0  0  0  0  0  0  0  0  0  0
   15.9789   27.2208   -6.1118 C   0  0  0  0  0  0  0  0  0  0  0  0
   16.3593   27.9457   -7.2448 O   0  0  0  0  0  0  0  0  0  0  0  0
   16.2710   27.6822   -4.8670 C   0  0  0  0  0  0  0  0  0  0  0  0
   15.8927   26.9617   -3.7535 C   0  0  0  0  0  0  0  0  0  0  0  0
   16.1662   27.6458   -8.1752 H   0  0  0  0  0  0  0  0  0  0  0  0
 12 13  1  0  0  0
 13 14  1  0  0  0
 13 15  1  0  0  0
 15 16  2  0  0  0
 15 11  1  0  0  0
 11 10  1  0  0  0
 10  9  1  0  0  0
  9  8  1  0  0  0
  8  7  1  0  0  0
  7  6  1  0  0  0
  6  2  1  0  0  0
  2  3  1  0  0  0
  3  4  2  0  0  0
  3  1  1  0  0  0
  1 17  1  0  0  0
 17 18  1  0  0  0
 18 19  1  0  0  0
 19 20  2  0  0  0
 20 21  1  0  0  0
 21 22  2  0  0  0
 22 23  1  0  0  0
 23 24  2  0  0  0
 22 25  1  0  0  0
 25 26  2  0  0  0
 26 27  1  0  0  0
 27 28  2  0  0  0
 28 29  1  0  0  0
 28 30  1  0  0  0
 30 31  2  0  0  0
 24 19  1  0  0  0
 31 25  1  0  0  0
  2  5  1  0  0  0
 29 32  1  0  0  0
M  END
> <minimizedAffinity>
-6.25109

> <CNNscore>
0.3484110236

> <CNNaffinity>
6.8252730370

> <CNN_VS>
2.3780002594

> <CNNaffinity_variance>
0.0266440809

$$$$
[H]Oc1c([H])c([H])c(-c2c([H])c([H])c(C([H])([H])C([H])([H])C([H])([H])C(=O)N([H])C([H])([H])C([H])([H])C([H])([H])C([H])([H])C([H])([H])C([H])([H])C(=O)N(C([H])([H])[H])C([H])([H])[H])c([H])c2[H])c([H])c1[H]


 32 33  0  0  0  0  0  0  0  0999 V2000
   13.8773   21.6652    0.3014 C   0  0  0  0  0  0  0  0  0  0  0  0
   11.5590   20.7524    0.2457 N   0  0  0  0  0  0  0  0  0  0  0  0
   12.8522   20.7524   -0.2978 C   0  0  0  0  0  0  0  0  0  0  0  0
   13.1209   19.9968   -1.2632 O   0  0  0  0  0  0  0  0  0  0  0  0
   11.3241   21.3687    1.0398 H   0  0  0  0  0  0  0  0  0  0  0  0
   10.5477   19.8874   -0.3047 C   0  0  0  0  0  0  0  0  0  0  0  0
    9.4749   20.6367   -1.0457 C   0  0  0  0  0  0  0  0  0  0  0  0
    8.0983   20.0824   -0.7965 C   0  0  0  0  0  0  0  0  0  0  0  0
    7.2027   21.0933   -0.1138 C   0  0  0  0  0  0  0  0  0  0  0  0
    6.9313   20.7641    1.3096 C   0  0  0  0  0  0  0  0  0  0  0  0
    7.1805   21.8460    2.2982 C   0  0  0  0  0  0  0  0  0  0  0  0
    7.3528   23.1076    4.9290 C   0  0  0  0  0  0  0  0  0  0  0  0
    8.4389   22.3180    4.4196 N   0  0  0  0  0  0  0  0  0  0  0  0
    9.6292   22.1561    5.2318 C   0  0  0  0  0  0  0  0  0  0  0  0
    8.3763   21.6849    3.1251 C   0  0  0  0  0  0  0  0  0  0  0  0
    9.3529   21.0015    2.7224 O   0  0  0  0  0  0  0  0  0  0  0  0
   13.1499   22.7663    1.0006 C   0  0  0  0  0  0  0  0  0  0  0  0
   14.0042   24.0021    1.0780 C   0  0  0  0  0  0  0  0  0  0  0  0
   14.4247   24.4799   -0.2598 C   0  0  0  0  0  0  0  0  0  0  0  0
   13.4293   24.6860   -1.1982 C   0  0  0  0  0  0  0  0  0  0  0  0
   13.7129   25.1337   -2.4723 C   0  0  0  0  0  0  0  0  0  0  0  0
   15.0477   25.3772   -2.7960 C   0  0  0  0  0  0  0  0  0  0  0  0
   16.0488   25.1767   -1.8729 C   0  0  0  0  0  0  0  0  0  0  0  0
   15.7397   24.7244   -0.5928 C   0  0  0  0  0  0  0  0  0  0  0  0
   15.3499   25.8453   -4.1280 C   0  0  0  0  0  0  0  0  0  0  0  0
   15.2157   25.0138   -5.2269 C   0  0  0  0  0  0  0  0  0  0  0  0
   15.5026   25.4511   -6.5168 C   0  0  0  0  0  0  0  0  0  0  0  0
   15.9332   26.7420   -6.7304 C   0  0  0  0  0  0  0  0  0  0  0  0
   16.2223   27.1852   -8.0242 O   0  0  0  0  0  0  0  0  0  0  0  0
   16.0727   27.5775   -5.6673 C   0  0  0  0  0  0  0  0  0  0  0  0
   15.7856   27.1334   -4.3935 C   0  0  0  0  0  0  0  0  0  0  0  0
   16.1342   26.6080   -8.8316 H   0  0  0  0  0  0  0  0  0  0  0  0
 12 13  1  0  0  0
 13 14  1  0  0  0
 13 15  1  0  0  0
 15 16  2  0  0  0
 15 11  1  0  0  0
 11 10  1  0  0  0
 10  9  1  0  0  0
  9  8  1  0  0  0
  8  7  1  0  0  0
  7  6  1  0  0  0
  6  2  1  0  0  0
  2  3  1  0  0  0
  3  4  2  0  0  0
  3  1  1  0  0  0
  1 17  1  0  0  0
 17 18  1  0  0  0
 18 19  1  0  0  0
 19 20  2  0  0  0
 20 21  1  0  0  0
 21 22  2  0  0  0
 22 23  1  0  0  0
 23 24  2  0  0  0
 22 25  1  0  0  0
 25 26  2  0  0  0
 26 27  1  0  0  0
 27 28  2  0  0  0
 28 29  1  0  0  0
 28 30  1  0  0  0
 30 31  2  0  0  0
 24 19  1  0  0  0
 31 25  1  0  0  0
  2  5  1  0  0  0
 29 32  1  0  0  0
M  END
> <minimizedAffinity>
-6.29994

> <CNNscore>
0.3429856598

> <CNNaffinity>
6.7320837975

> <CNN_VS>
2.3090081215

> <CNNaffinity_variance>
0.0716789886

$$$$
[H]Oc1c([H])c([H])c(-c2c([H])c([H])c(C([H])([H])C([H])([H])C([H])([H])C(=O)N([H])C([H])([H])C([H])([H])C([H])([H])C([H])([H])C([H])([H])C([H])([H])C(=O)N(C([H])([H])[H])C([H])([H])[H])c([H])c2[H])c([H])c1[H]


 32 33  0  0  0  0  0  0  0  0999 V2000
   12.2043   20.3069   -0.2056 C   0  0  0  0  0  0  0  0  0  0  0  0
   10.7899   22.1807    0.6309 N   0  0  0  0  0  0  0  0  0  0  0  0
   11.1683   20.8342    0.7388 C   0  0  0  0  0  0  0  0  0  0  0  0
   10.6378   20.1075    1.6138 O   0  0  0  0  0  0  0  0  0  0  0  0
   11.2180   22.7898   -0.0841 H   0  0  0  0  0  0  0  0  0  0  0  0
    9.7970   22.7221    1.5224 C   0  0  0  0  0  0  0  0  0  0  0  0
    9.5549   24.1907    1.3083 C   0  0  0  0  0  0  0  0  0  0  0  0
    9.9848   25.0297    2.4811 C   0  0  0  0  0  0  0  0  0  0  0  0
    8.8357   25.2988    3.4284 C   0  0  0  0  0  0  0  0  0  0  0  0
    7.6138   24.5200    3.0985 C   0  0  0  0  0  0  0  0  0  0  0  0
    7.1824   23.5099    4.1001 C   0  0  0  0  0  0  0  0  0  0  0  0
    7.9610   21.0231    5.4239 C   0  0  0  0  0  0  0  0  0  0  0  0
    7.1674   21.0018    4.2271 N   0  0  0  0  0  0  0  0  0  0  0  0
    6.7573   19.7229    3.6804 C   0  0  0  0  0  0  0  0  0  0  0  0
    6.7701   22.2157    3.5570 C   0  0  0  0  0  0  0  0  0  0  0  0
    6.0733   22.1462    2.5117 O   0  0  0  0  0  0  0  0  0  0  0  0
   13.3900   21.2118   -0.1284 C   0  0  0  0  0  0  0  0  0  0  0  0
   14.3487   20.9282   -1.2524 C   0  0  0  0  0  0  0  0  0  0  0  0
   14.6377   22.1342   -2.0629 C   0  0  0  0  0  0  0  0  0  0  0  0
   14.5170   23.3609   -1.4348 C   0  0  0  0  0  0  0  0  0  0  0  0
   14.7672   24.5448   -2.0979 C   0  0  0  0  0  0  0  0  0  0  0  0
   15.1506   24.4738   -3.4372 C   0  0  0  0  0  0  0  0  0  0  0  0
   15.2749   23.2607   -4.0755 C   0  0  0  0  0  0  0  0  0  0  0  0
   15.0175   22.0782   -3.3868 C   0  0  0  0  0  0  0  0  0  0  0  0
   15.4132   25.7098   -4.1359 C   0  0  0  0  0  0  0  0  0  0  0  0
   16.0394   26.7706   -3.5037 C   0  0  0  0  0  0  0  0  0  0  0  0
   16.2998   27.9677   -4.1643 C   0  0  0  0  0  0  0  0  0  0  0  0
   15.9336   28.1247   -5.4829 C   0  0  0  0  0  0  0  0  0  0  0  0
   16.1932   29.3252   -6.1500 O   0  0  0  0  0  0  0  0  0  0  0  0
   15.3174   27.0973   -6.1253 C   0  0  0  0  0  0  0  0  0  0  0  0
   15.0643   25.9156   -5.4607 C   0  0  0  0  0  0  0  0  0  0  0  0
   16.6421   30.1035   -5.7191 H   0  0  0  0  0  0  0  0  0  0  0  0
 12 13  1  0  0  0
 13 14  1  0  0  0
 13 15  1  0  0  0
 15 16  2  0  0  0
 15 11  1  0  0  0
 11 10  1  0  0  0
 10  9  1  0  0  0
  9  8  1  0  0  0
  8  7  1  0  0  0
  7  6  1  0  0  0
  6  2  1  0  0  0
  2  3  1  0  0  0
  3  4  2  0  0  0
  3  1  1  0  0  0
  1 17  1  0  0  0
 17 18  1  0  0  0
 18 19  1  0  0  0
 19 20  2  0  0  0
 20 21  1  0  0  0
 21 22  2  0  0  0
 22 23  1  0  0  0
 23 24  2  0  0  0
 22 25  1  0  0  0
 25 26  2  0  0  0
 26 27  1  0  0  0
 27 28  2  0  0  0
 28 29  1  0  0  0
 28 30  1  0  0  0
 30 31  2  0  0  0
 24 19  1  0  0  0
 31 25  1  0  0  0
  2  5  1  0  0  0
 29 32  1  0  0  0
M  END
> <minimizedAffinity>
-6.76816

> <CNNscore>
0.3424255550

> <CNNaffinity>
6.6899156570

> <CNN_VS>
2.2907981873

> <CNNaffinity_variance>
0.0892334804

$$$$
[H]c1nc2nc(N([H])[H])nc(N([H])[H])c2c(C([H])([H])[H])c1C([H])([H])N(c1c([H])c([H])c(Cl)c(Cl)c1[H])C([H])([H])[H]


 28 30  0  0  0  0  0  0  0  0999 V2000
   14.2500   25.3458   -3.5696 C   0  0  0  0  0  0  0  0  0  0  0  0
   12.9774   25.4546   -3.1012 C   0  0  0  0  0  0  0  0  0  0  0  0
   12.3337   26.6188   -3.1082 N   0  0  0  0  0  0  0  0  0  0  0  0
   12.9437   27.7088   -3.5849 C   0  0  0  0  0  0  0  0  0  0  0  0
   12.3133   28.8848   -3.6018 N   0  0  0  0  0  0  0  0  0  0  0  0
   12.8706   30.0056   -4.0669 C   0  0  0  0  0  0  0  0  0  0  0  0
   12.1216   31.2409   -4.0509 N   0  0  0  0  0  0  0  0  0  0  0  0
   14.1147   29.9559   -4.5383 N   0  0  0  0  0  0  0  0  0  0  0  0
   14.8432   28.8000   -4.5639 C   0  0  0  0  0  0  0  0  0  0  0  0
   16.1457   28.8196   -5.0808 N   0  0  0  0  0  0  0  0  0  0  0  0
   14.2610   27.6612   -4.0847 C   0  0  0  0  0  0  0  0  0  0  0  0
   14.9327   26.4589   -4.0791 C   0  0  0  0  0  0  0  0  0  0  0  0
   16.3051   26.3678   -4.5756 C   0  0  0  0  0  0  0  0  0  0  0  0
   11.0937   31.2569   -4.1407 H   0  0  0  0  0  0  0  0  0  0  0  0
   12.6357   32.1265   -3.9464 H   0  0  0  0  0  0  0  0  0  0  0  0
   16.2747   28.6450   -6.1212 H   0  0  0  0  0  0  0  0  0  0  0  0
   17.0143   29.0092   -4.5479 H   0  0  0  0  0  0  0  0  0  0  0  0
   14.9667   24.0483   -3.5892 C   0  0  0  0  0  0  0  0  0  0  0  0
   16.9033   23.8374   -1.9959 C   0  0  0  0  0  0  0  0  0  0  0  0
   15.5053   23.6268   -2.3166 N   0  0  0  0  0  0  0  0  0  0  0  0
   14.7276   22.9739   -1.3086 C   0  0  0  0  0  0  0  0  0  0  0  0
   14.8974   23.3893   -0.0068 C   0  0  0  0  0  0  0  0  0  0  0  0
   14.1685   22.7896    0.9935 C   0  0  0  0  0  0  0  0  0  0  0  0
   13.2805   21.7865    0.6960 C   0  0  0  0  0  0  0  0  0  0  0  0
   12.3295   20.9940    1.9446 Cl  0  0  0  0  0  0  0  0  0  0  0  0
   13.1153   21.3723   -0.6256 C   0  0  0  0  0  0  0  0  0  0  0  0
   11.9949   20.0957   -1.0591 Cl  0  0  0  0  0  0  0  0  0  0  0  0
   13.8384   21.9660   -1.6254 C   0  0  0  0  0  0  0  0  0  0  0  0
 19 20  1  0  0  0
 20 18  1  0  0  0
 18  1  1  0  0  0
  1  2  2  0  0  0
  2  3  1  0  0  0
  3  4  2  0  0  0
  4  5  1  0  0  0
  5  6  2  0  0  0
  6  7  1  0  0  0
  6  8  1  0  0  0
  8  9  2  0  0  0
  9 10  1  0  0  0
  9 11  1  0  0  0
 11 12  2  0  0  0
 12 13  1  0  0  0
 20 21  1  0  0  0
 21 22  2  0  0  0
 22 23  1  0  0  0
 23 24  2  0  0  0
 24 25  1  0  0  0
 24 26  1  0  0  0
 26 27  1  0  0  0
 26 28  2  0  0  0
 12  1  1  0  0  0
 28 21  1  0  0  0
 11  4  1  0  0  0
  7 14  1  0  0  0
  7 15  1  0  0  0
 10 16  1  0  0  0
 10 17  1  0  0  0
M  END
> <minimizedAffinity>
9.34504

> <CNNscore>
0.4259317219

> <CNNaffinity>
6.8847823143

> <CNN_VS>
2.9324471951

> <CNNaffinity_variance>
0.6880038381

$$$$
[H]c1nc2nc(N([H])[H])nc(N([H])[H])c2c(C([H])([H])[H])c1C([H])([H])N(c1c([H])c([H])c(Cl)c(Cl)c1[H])C([H])([H])[H]


 28 30  0  0  0  0  0  0  0  0999 V2000
   14.5659   24.6403   -0.3170 C   0  0  0  0  0  0  0  0  0  0  0  0
   15.9045   24.7136   -0.0865 C   0  0  0  0  0  0  0  0  0  0  0  0
   16.7115   25.3906   -0.8991 N   0  0  0  0  0  0  0  0  0  0  0  0
   16.2030   26.0152   -1.9662 C   0  0  0  0  0  0  0  0  0  0  0  0
   16.9966   26.7006   -2.7914 N   0  0  0  0  0  0  0  0  0  0  0  0
   16.5456   27.3451   -3.8705 C   0  0  0  0  0  0  0  0  0  0  0  0
   17.4697   28.0658   -4.7156 N   0  0  0  0  0  0  0  0  0  0  0  0
   15.2431   27.3070   -4.1431 N   0  0  0  0  0  0  0  0  0  0  0  0
   14.3497   26.6325   -3.3595 C   0  0  0  0  0  0  0  0  0  0  0  0
   12.9909   26.6404   -3.7028 N   0  0  0  0  0  0  0  0  0  0  0  0
   14.8246   25.9773   -2.2592 C   0  0  0  0  0  0  0  0  0  0  0  0
   13.9845   25.2773   -1.4220 C   0  0  0  0  0  0  0  0  0  0  0  0
   12.5502   25.2010   -1.6964 C   0  0  0  0  0  0  0  0  0  0  0  0
   18.3284   28.4981   -4.3407 H   0  0  0  0  0  0  0  0  0  0  0  0
   17.2580   28.1458   -5.7197 H   0  0  0  0  0  0  0  0  0  0  0  0
   12.3807   27.4200   -3.3160 H   0  0  0  0  0  0  0  0  0  0  0  0
   12.5110   25.9626   -4.3230 H   0  0  0  0  0  0  0  0  0  0  0  0
   13.6550   23.9095    0.5961 C   0  0  0  0  0  0  0  0  0  0  0  0
   13.0019   21.5760    1.2756 C   0  0  0  0  0  0  0  0  0  0  0  0
   13.4435   22.5188    0.2667 N   0  0  0  0  0  0  0  0  0  0  0  0
   13.6615   21.9758   -1.0389 C   0  0  0  0  0  0  0  0  0  0  0  0
   13.0607   20.7727   -1.3349 C   0  0  0  0  0  0  0  0  0  0  0  0
   13.2426   20.2155   -2.5792 C   0  0  0  0  0  0  0  0  0  0  0  0
   14.0160   20.8535   -3.5162 C   0  0  0  0  0  0  0  0  0  0  0  0
   14.2739   20.1757   -5.1180 Cl  0  0  0  0  0  0  0  0  0  0  0  0
   14.6208   22.0718   -3.2073 C   0  0  0  0  0  0  0  0  0  0  0  0
   15.6183   22.9272   -4.3675 Cl  0  0  0  0  0  0  0  0  0  0  0  0
   14.4428   22.6310   -1.9700 C   0  0  0  0  0  0  0  0  0  0  0  0
 19 20  1  0  0  0
 20 18  1  0  0  0
 18  1  1  0  0  0
  1  2  2  0  0  0
  2  3  1  0  0  0
  3  4  2  0  0  0
  4  5  1  0  0  0
  5  6  2  0  0  0
  6  7  1  0  0  0
  6  8  1  0  0  0
  8  9  2  0  0  0
  9 10  1  0  0  0
  9 11  1  0  0  0
 11 12  2  0  0  0
 12 13  1  0  0  0
 20 21  1  0  0  0
 21 22  2  0  0  0
 22 23  1  0  0  0
 23 24  2  0  0  0
 24 25  1  0  0  0
 24 26  1  0  0  0
 26 27  1  0  0  0
 26 28  2  0  0  0
 12  1  1  0  0  0
 28 21  1  0  0  0
 11  4  1  0  0  0
  7 14  1  0  0  0
  7 15  1  0  0  0
 10 16  1  0  0  0
 10 17  1  0  0  0
M  END
> <minimizedAffinity>
-0.38562

> <CNNscore>
0.3564605117

> <CNNaffinity>
7.2205457687

> <CNN_VS>
2.5738394260

> <CNNaffinity_variance>
0.3507878780

$$$$
[H]c1nc2nc(N([H])[H])nc(N([H])[H])c2c(C([H])([H])[H])c1C([H])([H])N(c1c([H])c([H])c(Cl)c(Cl)c1[H])C([H])([H])[H]


 28 30  0  0  0  0  0  0  0  0999 V2000
   13.4362   24.5158   -0.6613 C   0  0  0  0  0  0  0  0  0  0  0  0
   14.3816   25.4360   -0.9930 C   0  0  0  0  0  0  0  0  0  0  0  0
   15.1637   25.2734   -2.0568 N   0  0  0  0  0  0  0  0  0  0  0  0
   15.0226   24.1855   -2.8210 C   0  0  0  0  0  0  0  0  0  0  0  0
   15.7967   24.0061   -3.8930 N   0  0  0  0  0  0  0  0  0  0  0  0
   15.7004   22.9416   -4.6934 C   0  0  0  0  0  0  0  0  0  0  0  0
   16.5761   22.8201   -5.8361 N   0  0  0  0  0  0  0  0  0  0  0  0
   14.7910   22.0099   -4.4155 N   0  0  0  0  0  0  0  0  0  0  0  0
   13.9518   22.1022   -3.3410 C   0  0  0  0  0  0  0  0  0  0  0  0
   13.0131   21.0869   -3.1125 N   0  0  0  0  0  0  0  0  0  0  0  0
   14.0614   23.1961   -2.5305 C   0  0  0  0  0  0  0  0  0  0  0  0
   13.2495   23.3587   -1.4300 C   0  0  0  0  0  0  0  0  0  0  0  0
   12.2486   22.3501   -1.0846 C   0  0  0  0  0  0  0  0  0  0  0  0
   16.9363   23.6467   -6.3378 H   0  0  0  0  0  0  0  0  0  0  0  0
   16.8438   21.8779   -6.1527 H   0  0  0  0  0  0  0  0  0  0  0  0
   12.0567   21.1769   -3.5671 H   0  0  0  0  0  0  0  0  0  0  0  0
   13.1622   20.2291   -2.5501 H   0  0  0  0  0  0  0  0  0  0  0  0
   12.5432   24.7000    0.5075 C   0  0  0  0  0  0  0  0  0  0  0  0
   10.3558   23.7545   -0.3017 C   0  0  0  0  0  0  0  0  0  0  0  0
   11.4745   23.7343    0.6201 N   0  0  0  0  0  0  0  0  0  0  0  0
   11.4300   22.7216    1.6298 C   0  0  0  0  0  0  0  0  0  0  0  0
   12.4984   21.8564    1.7092 C   0  0  0  0  0  0  0  0  0  0  0  0
   12.4972   20.8688    2.6664 C   0  0  0  0  0  0  0  0  0  0  0  0
   11.4407   20.7474    3.5337 C   0  0  0  0  0  0  0  0  0  0  0  0
   11.3999   19.4991    4.7713 Cl  0  0  0  0  0  0  0  0  0  0  0  0
   10.3629   21.6283    3.4456 C   0  0  0  0  0  0  0  0  0  0  0  0
    8.9889   21.5164    4.5284 Cl  0  0  0  0  0  0  0  0  0  0  0  0
   10.3589   22.6135    2.4945 C   0  0  0  0  0  0  0  0  0  0  0  0
 19 20  1  0  0  0
 20 18  1  0  0  0
 18  1  1  0  0  0
  1  2  2  0  0  0
  2  3  1  0  0  0
  3  4  2  0  0  0
  4  5  1  0  0  0
  5  6  2  0  0  0
  6  7  1  0  0  0
  6  8  1  0  0  0
  8  9  2  0  0  0
  9 10  1  0  0  0
  9 11  1  0  0  0
 11 12  2  0  0  0
 12 13  1  0  0  0
 20 21  1  0  0  0
 21 22  2  0  0  0
 22 23  1  0  0  0
 23 24  2  0  0  0
 24 25  1  0  0  0
 24 26  1  0  0  0
 26 27  1  0  0  0
 26 28  2  0  0  0
 12  1  1  0  0  0
 28 21  1  0  0  0
 11  4  1  0  0  0
  7 14  1  0  0  0
  7 15  1  0  0  0
 10 16  1  0  0  0
 10 17  1  0  0  0
M  END
> <minimizedAffinity>
2.59796

> <CNNscore>
0.3364903033

> <CNNaffinity>
6.5854172707

> <CNN_VS>
2.2159290314

> <CNNaffinity_variance>
0.8103456497

$$$$
[H]c1nc2nc(N([H])[H])nc(N([H])[H])c2c(C([H])([H])[H])c1C([H])([H])N(c1c([H])c([H])c(Cl)c(Cl)c1[H])C([H])([H])[H]


 28 30  0  0  0  0  0  0  0  0999 V2000
   14.5617   24.7000   -1.9713 C   0  0  0  0  0  0  0  0  0  0  0  0
   15.6981   24.6121   -1.2287 C   0  0  0  0  0  0  0  0  0  0  0  0
   16.7587   25.3707   -1.4925 N   0  0  0  0  0  0  0  0  0  0  0  0
   16.7135   26.2407   -2.5067 C   0  0  0  0  0  0  0  0  0  0  0  0
   17.7666   27.0114   -2.7851 N   0  0  0  0  0  0  0  0  0  0  0  0
   17.7789   27.8984   -3.7832 C   0  0  0  0  0  0  0  0  0  0  0  0
   18.9596   28.6965   -4.0208 N   0  0  0  0  0  0  0  0  0  0  0  0
   16.6923   28.0262   -4.5416 N   0  0  0  0  0  0  0  0  0  0  0  0
   15.5640   27.2830   -4.3368 C   0  0  0  0  0  0  0  0  0  0  0  0
   14.4536   27.4750   -5.1702 N   0  0  0  0  0  0  0  0  0  0  0  0
   15.5653   26.3793   -3.3127 C   0  0  0  0  0  0  0  0  0  0  0  0
   14.4647   25.5959   -3.0449 C   0  0  0  0  0  0  0  0  0  0  0  0
   13.2580   25.6978   -3.8646 C   0  0  0  0  0  0  0  0  0  0  0  0
   19.5966   28.9694   -3.2563 H   0  0  0  0  0  0  0  0  0  0  0  0
   19.1642   28.9975   -4.9837 H   0  0  0  0  0  0  0  0  0  0  0  0
   13.7365   28.2073   -4.8890 H   0  0  0  0  0  0  0  0  0  0  0  0
   14.2628   26.9809   -6.0612 H   0  0  0  0  0  0  0  0  0  0  0  0
   13.3662   23.8770   -1.6699 C   0  0  0  0  0  0  0  0  0  0  0  0
   12.4983   25.3599    0.1689 C   0  0  0  0  0  0  0  0  0  0  0  0
   12.8279   24.0429   -0.3395 N   0  0  0  0  0  0  0  0  0  0  0  0
   12.5987   22.9539    0.5598 C   0  0  0  0  0  0  0  0  0  0  0  0
   13.4393   21.8671    0.4688 C   0  0  0  0  0  0  0  0  0  0  0  0
   13.2554   20.7989    1.3154 C   0  0  0  0  0  0  0  0  0  0  0  0
   12.2432   20.8169    2.2418 C   0  0  0  0  0  0  0  0  0  0  0  0
   11.9740   19.4724    3.3424 Cl  0  0  0  0  0  0  0  0  0  0  0  0
   11.3966   21.9221    2.3266 C   0  0  0  0  0  0  0  0  0  0  0  0
   10.0887   21.9952    3.4914 Cl  0  0  0  0  0  0  0  0  0  0  0  0
   11.5752   22.9884    1.4862 C   0  0  0  0  0  0  0  0  0  0  0  0
 19 20  1  0  0  0
 20 18  1  0  0  0
 18  1  1  0  0  0
  1  2  2  0  0  0
  2  3  1  0  0  0
  3  4  2  0  0  0
  4  5  1  0  0  0
  5  6  2  0  0  0
  6  7  1  0  0  0
  6  8  1  0  0  0
  8  9  2  0  0  0
  9 10  1  0  0  0
  9 11  1  0  0  0
 11 12  2  0  0  0
 12 13  1  0  0  0
 20 21  1  0  0  0
 21 22  2  0  0  0
 22 23  1  0  0  0
 23 24  2  0  0  0
 24 25  1  0  0  0
 24 26  1  0  0  0
 26 27  1  0  0  0
 26 28  2  0  0  0
 12  1  1  0  0  0
 28 21  1  0  0  0
 11  4  1  0  0  0
  7 14  1  0  0  0
  7 15  1  0  0  0
 10 16  1  0  0  0
 10 17  1  0  0  0
M  END
> <minimizedAffinity>
-7.99446

> <CNNscore>
0.2505408823

> <CNNaffinity>
7.0940599442

> <CNN_VS>
1.7773520947

> <CNNaffinity_variance>
0.2775827646

$$$$
[H]c1nc2nc(N([H])[H])nc(N([H])[H])c2c(C([H])([H])[H])c1C([H])([H])N(c1c([H])c([H])c(Cl)c(Cl)c1[H])C([H])([H])[H]


 28 30  0  0  0  0  0  0  0  0999 V2000
   14.5786   24.8859   -1.3042 C   0  0  0  0  0  0  0  0  0  0  0  0
   15.7776   24.8598   -0.6622 C   0  0  0  0  0  0  0  0  0  0  0  0
   16.8233   25.5436   -1.1191 N   0  0  0  0  0  0  0  0  0  0  0  0
   16.7002   26.2747   -2.2316 C   0  0  0  0  0  0  0  0  0  0  0  0
   17.7374   26.9687   -2.7040 N   0  0  0  0  0  0  0  0  0  0  0  0
   17.6734   27.7170   -3.8081 C   0  0  0  0  0  0  0  0  0  0  0  0
   18.8419   28.4395   -4.2553 N   0  0  0  0  0  0  0  0  0  0  0  0
   16.5232   27.7790   -4.4756 N   0  0  0  0  0  0  0  0  0  0  0  0
   15.4048   27.1050   -4.0728 C   0  0  0  0  0  0  0  0  0  0  0  0
   14.2252   27.2214   -4.8206 N   0  0  0  0  0  0  0  0  0  0  0  0
   15.4845   26.3431   -2.9420 C   0  0  0  0  0  0  0  0  0  0  0  0
   14.3988   25.6365   -2.4742 C   0  0  0  0  0  0  0  0  0  0  0  0
   13.1228   25.6686   -3.1878 C   0  0  0  0  0  0  0  0  0  0  0  0
   19.5529   28.7897   -3.5945 H   0  0  0  0  0  0  0  0  0  0  0  0
   18.9612   28.6057   -5.2642 H   0  0  0  0  0  0  0  0  0  0  0  0
   13.5519   28.0065   -4.5757 H   0  0  0  0  0  0  0  0  0  0  0  0
   13.9422   26.6216   -5.6171 H   0  0  0  0  0  0  0  0  0  0  0  0
   13.4007   24.1475   -0.7893 C   0  0  0  0  0  0  0  0  0  0  0  0
   14.3735   22.1569   -1.9830 C   0  0  0  0  0  0  0  0  0  0  0  0
   13.3095   22.7688   -1.2115 N   0  0  0  0  0  0  0  0  0  0  0  0
   12.1883   21.9282   -0.9227 C   0  0  0  0  0  0  0  0  0  0  0  0
   11.1438   21.9320   -1.8200 C   0  0  0  0  0  0  0  0  0  0  0  0
   10.0467   21.1375   -1.5819 C   0  0  0  0  0  0  0  0  0  0  0  0
    9.9944   20.3487   -0.4601 C   0  0  0  0  0  0  0  0  0  0  0  0
    8.6109   19.3187   -0.1185 Cl  0  0  0  0  0  0  0  0  0  0  0  0
   11.0572   20.3515    0.4431 C   0  0  0  0  0  0  0  0  0  0  0  0
   11.0402   19.3632    1.8908 Cl  0  0  0  0  0  0  0  0  0  0  0  0
   12.1519   21.1406    0.2109 C   0  0  0  0  0  0  0  0  0  0  0  0
 19 20  1  0  0  0
 20 18  1  0  0  0
 18  1  1  0  0  0
  1  2  2  0  0  0
  2  3  1  0  0  0
  3  4  2  0  0  0
  4  5  1  0  0  0
  5  6  2  0  0  0
  6  7  1  0  0  0
  6  8  1  0  0  0
  8  9  2  0  0  0
  9 10  1  0  0  0
  9 11  1  0  0  0
 11 12  2  0  0  0
 12 13  1  0  0  0
 20 21  1  0  0  0
 21 22  2  0  0  0
 22 23  1  0  0  0
 23 24  2  0  0  0
 24 25  1  0  0  0
 24 26  1  0  0  0
 26 27  1  0  0  0
 26 28  2  0  0  0
 12  1  1  0  0  0
 28 21  1  0  0  0
 11  4  1  0  0  0
  7 14  1  0  0  0
  7 15  1  0  0  0
 10 16  1  0  0  0
 10 17  1  0  0  0
M  END
> <minimizedAffinity>
-5.32317

> <CNNscore>
0.1954570264

> <CNNaffinity>
6.9654479027

> <CNN_VS>
1.3614457846

> <CNNaffinity_variance>
0.5292690396

$$$$
[H]c1nc2nc(N([H])[H])nc(N([H])[H])c2c(C([H])([H])[H])c1C([H])([H])N(c1c([H])c([H])c(Cl)c(Cl)c1[H])C([H])([H])[H]


 28 30  0  0  0  0  0  0  0  0999 V2000
   10.7665   23.4082    0.0771 C   0  0  0  0  0  0  0  0  0  0  0  0
    9.6677   23.7455    0.8047 C   0  0  0  0  0  0  0  0  0  0  0  0
    9.4067   23.1675    1.9742 N   0  0  0  0  0  0  0  0  0  0  0  0
   10.2380   22.2352    2.4510 C   0  0  0  0  0  0  0  0  0  0  0  0
    9.9937   21.6458    3.6229 N   0  0  0  0  0  0  0  0  0  0  0  0
   10.7882   20.7106    4.1496 C   0  0  0  0  0  0  0  0  0  0  0  0
   10.4546   20.1194    5.4250 N   0  0  0  0  0  0  0  0  0  0  0  0
   11.8782   20.3429    3.4797 N   0  0  0  0  0  0  0  0  0  0  0  0
   12.2148   20.8871    2.2722 C   0  0  0  0  0  0  0  0  0  0  0  0
   13.3814   20.4570    1.6255 N   0  0  0  0  0  0  0  0  0  0  0  0
   11.3932   21.8423    1.7450 C   0  0  0  0  0  0  0  0  0  0  0  0
   11.6679   22.4366    0.5333 C   0  0  0  0  0  0  0  0  0  0  0  0
   12.8481   22.0490   -0.2382 C   0  0  0  0  0  0  0  0  0  0  0  0
    9.9434   20.6434    6.1523 H   0  0  0  0  0  0  0  0  0  0  0  0
   10.7387   19.1467    5.6056 H   0  0  0  0  0  0  0  0  0  0  0  0
   14.2900   20.9648    1.8406 H   0  0  0  0  0  0  0  0  0  0  0  0
   13.4576   19.6667    0.9592 H   0  0  0  0  0  0  0  0  0  0  0  0
   11.0792   24.0642   -1.2150 C   0  0  0  0  0  0  0  0  0  0  0  0
   12.5494   25.6622    0.0572 C   0  0  0  0  0  0  0  0  0  0  0  0
   12.1819   24.9969   -1.1773 N   0  0  0  0  0  0  0  0  0  0  0  0
   12.9651   25.3387   -2.3249 C   0  0  0  0  0  0  0  0  0  0  0  0
   12.6112   26.4731   -3.0205 C   0  0  0  0  0  0  0  0  0  0  0  0
   13.3383   26.8392   -4.1292 C   0  0  0  0  0  0  0  0  0  0  0  0
   14.4062   26.0803   -4.5374 C   0  0  0  0  0  0  0  0  0  0  0  0
   15.3616   26.5130   -5.9487 Cl  0  0  0  0  0  0  0  0  0  0  0  0
   14.7571   24.9327   -3.8265 C   0  0  0  0  0  0  0  0  0  0  0  0
   16.1116   23.9285   -4.3058 Cl  0  0  0  0  0  0  0  0  0  0  0  0
   14.0367   24.5637   -2.7220 C   0  0  0  0  0  0  0  0  0  0  0  0
 19 20  1  0  0  0
 20 18  1  0  0  0
 18  1  1  0  0  0
  1  2  2  0  0  0
  2  3  1  0  0  0
  3  4  2  0  0  0
  4  5  1  0  0  0
  5  6  2  0  0  0
  6  7  1  0  0  0
  6  8  1  0  0  0
  8  9  2  0  0  0
  9 10  1  0  0  0
  9 11  1  0  0  0
 11 12  2  0  0  0
 12 13  1  0  0  0
 20 21  1  0  0  0
 21 22  2  0  0  0
 22 23  1  0  0  0
 23 24  2  0  0  0
 24 25  1  0  0  0
 24 26  1  0  0  0
 26 27  1  0  0  0
 26 28  2  0  0  0
 12  1  1  0  0  0
 28 21  1  0  0  0
 11  4  1  0  0  0
  7 14  1  0  0  0
  7 15  1  0  0  0
 10 16  1  0  0  0
 10 17  1  0  0  0
M  END
> <minimizedAffinity>
-8.45458

> <CNNscore>
0.1736655086

> <CNNaffinity>
6.6601996422

> <CNN_VS>
1.1566469669

> <CNNaffinity_variance>
0.1434375346

$$$$
[H]c1nc2nc(N([H])[H])nc(N([H])[H])c2c(C([H])([H])[H])c1C([H])([H])N(c1c([H])c([H])c(Cl)c(Cl)c1[H])C([H])([H])[H]


 28 30  0  0  0  0  0  0  0  0999 V2000
   13.5588   22.4844   -0.3772 C   0  0  0  0  0  0  0  0  0  0  0  0
   14.1032   21.4556    0.3270 C   0  0  0  0  0  0  0  0  0  0  0  0
   13.5270   20.9910    1.4324 N   0  0  0  0  0  0  0  0  0  0  0  0
   12.3883   21.5415    1.8658 C   0  0  0  0  0  0  0  0  0  0  0  0
   11.7948   21.0877    2.9714 N   0  0  0  0  0  0  0  0  0  0  0  0
   10.6569   21.5963    3.4507 C   0  0  0  0  0  0  0  0  0  0  0  0
   10.0763   21.0491    4.6552 N   0  0  0  0  0  0  0  0  0  0  0  0
   10.0804   22.6046    2.8001 N   0  0  0  0  0  0  0  0  0  0  0  0
   10.6100   23.1391    1.6594 C   0  0  0  0  0  0  0  0  0  0  0  0
    9.9455   24.1959    1.0224 N   0  0  0  0  0  0  0  0  0  0  0  0
   11.7744   22.6096    1.1806 C   0  0  0  0  0  0  0  0  0  0  0  0
   12.3669   23.0952    0.0361 C   0  0  0  0  0  0  0  0  0  0  0  0
   11.7710   24.2108   -0.6979 C   0  0  0  0  0  0  0  0  0  0  0  0
   10.1939   20.0576    4.9159 H   0  0  0  0  0  0  0  0  0  0  0  0
    9.5308   21.6730    5.2657 H   0  0  0  0  0  0  0  0  0  0  0  0
    9.2139   23.9585    0.2889 H   0  0  0  0  0  0  0  0  0  0  0  0
   10.0811   25.2066    1.2083 H   0  0  0  0  0  0  0  0  0  0  0  0
   14.1799   22.9926   -1.6236 C   0  0  0  0  0  0  0  0  0  0  0  0
   15.5975   24.5029   -0.1943 C   0  0  0  0  0  0  0  0  0  0  0  0
   14.9805   24.1850   -1.4671 N   0  0  0  0  0  0  0  0  0  0  0  0
   15.2081   25.1259   -2.5207 C   0  0  0  0  0  0  0  0  0  0  0  0
   14.2904   25.1652   -3.5465 C   0  0  0  0  0  0  0  0  0  0  0  0
   14.4700   26.0559   -4.5790 C   0  0  0  0  0  0  0  0  0  0  0  0
   15.5541   26.8972   -4.5858 C   0  0  0  0  0  0  0  0  0  0  0  0
   15.8207   28.0503   -5.8862 Cl  0  0  0  0  0  0  0  0  0  0  0  0
   16.4786   26.8501   -3.5425 C   0  0  0  0  0  0  0  0  0  0  0  0
   17.8801   27.9022   -3.5034 Cl  0  0  0  0  0  0  0  0  0  0  0  0
   16.3045   25.9652   -2.5120 C   0  0  0  0  0  0  0  0  0  0  0  0
 19 20  1  0  0  0
 20 18  1  0  0  0
 18  1  1  0  0  0
  1  2  2  0  0  0
  2  3  1  0  0  0
  3  4  2  0  0  0
  4  5  1  0  0  0
  5  6  2  0  0  0
  6  7  1  0  0  0
  6  8  1  0  0  0
  8  9  2  0  0  0
  9 10  1  0  0  0
  9 11  1  0  0  0
 11 12  2  0  0  0
 12 13  1  0  0  0
 20 21  1  0  0  0
 21 22  2  0  0  0
 22 23  1  0  0  0
 23 24  2  0  0  0
 24 25  1  0  0  0
 24 26  1  0  0  0
 26 27  1  0  0  0
 26 28  2  0  0  0
 12  1  1  0  0  0
 28 21  1  0  0  0
 11  4  1  0  0  0
  7 14  1  0  0  0
  7 15  1  0  0  0
 10 16  1  0  0  0
 10 17  1  0  0  0
M  END
> <minimizedAffinity>
-9.02382

> <CNNscore>
0.1517260224

> <CNNaffinity>
6.8364844322

> <CNN_VS>
1.0372725725

> <CNNaffinity_variance>
0.3212048411

$$$$
[H]c1nc2nc(N([H])[H])nc(N([H])[H])c2c(C([H])([H])[H])c1C([H])([H])N(c1c([H])c([H])c(Cl)c(Cl)c1[H])C([H])([H])[H]


 28 30  0  0  0  0  0  0  0  0999 V2000
   12.9348   23.3996   -0.3596 C   0  0  0  0  0  0  0  0  0  0  0  0
   12.0862   24.4623   -0.3930 C   0  0  0  0  0  0  0  0  0  0  0  0
   11.1150   24.6019    0.5053 N   0  0  0  0  0  0  0  0  0  0  0  0
   10.9645   23.6829    1.4646 C   0  0  0  0  0  0  0  0  0  0  0  0
    9.9973   23.8071    2.3755 N   0  0  0  0  0  0  0  0  0  0  0  0
    9.8001   22.9228    3.3565 C   0  0  0  0  0  0  0  0  0  0  0  0
    8.7298   23.1283    4.3048 N   0  0  0  0  0  0  0  0  0  0  0  0
   10.6027   21.8637    3.4366 N   0  0  0  0  0  0  0  0  0  0  0  0
   11.6215   21.6474    2.5519 C   0  0  0  0  0  0  0  0  0  0  0  0
   12.4320   20.5137    2.7004 N   0  0  0  0  0  0  0  0  0  0  0  0
   11.8115   22.5596    1.5532 C   0  0  0  0  0  0  0  0  0  0  0  0
   12.8182   22.4093    0.6254 C   0  0  0  0  0  0  0  0  0  0  0  0
   13.7108   21.2520    0.6726 C   0  0  0  0  0  0  0  0  0  0  0  0
    8.4083   24.0728    4.5685 H   0  0  0  0  0  0  0  0  0  0  0  0
    8.2800   22.3034    4.7253 H   0  0  0  0  0  0  0  0  0  0  0  0
   13.2971   20.5929    3.3128 H   0  0  0  0  0  0  0  0  0  0  0  0
   12.2636   19.5803    2.2826 H   0  0  0  0  0  0  0  0  0  0  0  0
   14.0356   23.2480   -1.3409 C   0  0  0  0  0  0  0  0  0  0  0  0
   15.8116   24.5900   -0.1670 C   0  0  0  0  0  0  0  0  0  0  0  0
   15.0071   24.3173   -1.3418 N   0  0  0  0  0  0  0  0  0  0  0  0
   15.2342   25.1754   -2.4639 C   0  0  0  0  0  0  0  0  0  0  0  0
   14.3364   25.1097   -3.5058 C   0  0  0  0  0  0  0  0  0  0  0  0
   14.5163   25.9184   -4.6037 C   0  0  0  0  0  0  0  0  0  0  0  0
   15.5809   26.7825   -4.6591 C   0  0  0  0  0  0  0  0  0  0  0  0
   15.8470   27.8332   -6.0436 Cl  0  0  0  0  0  0  0  0  0  0  0  0
   16.4852   26.8421   -3.5989 C   0  0  0  0  0  0  0  0  0  0  0  0
   17.8615   27.9276   -3.6199 Cl  0  0  0  0  0  0  0  0  0  0  0  0
   16.3109   26.0392   -2.5034 C   0  0  0  0  0  0  0  0  0  0  0  0
 19 20  1  0  0  0
 20 18  1  0  0  0
 18  1  1  0  0  0
  1  2  2  0  0  0
  2  3  1  0  0  0
  3  4  2  0  0  0
  4  5  1  0  0  0
  5  6  2  0  0  0
  6  7  1  0  0  0
  6  8  1  0  0  0
  8  9  2  0  0  0
  9 10  1  0  0  0
  9 11  1  0  0  0
 11 12  2  0  0  0
 12 13  1  0  0  0
 20 21  1  0  0  0
 21 22  2  0  0  0
 22 23  1  0  0  0
 23 24  2  0  0  0
 24 25  1  0  0  0
 24 26  1  0  0  0
 26 27  1  0  0  0
 26 28  2  0  0  0
 12  1  1  0  0  0
 28 21  1  0  0  0
 11  4  1  0  0  0
  7 14  1  0  0  0
  7 15  1  0  0  0
 10 16  1  0  0  0
 10 17  1  0  0  0
M  END
> <minimizedAffinity>
-8.98107

> <CNNscore>
0.1468621939

> <CNNaffinity>
6.5346970558

> <CNN_VS>
0.9596999288

> <CNNaffinity_variance>
0.2107379735

$$$$
[H]c1nc2nc(N([H])[H])nc(N([H])[H])c2c(C([H])([H])[H])c1C([H])([H])N(c1c([H])c([H])c(Cl)c(Cl)c1[H])C([H])([H])[H]


 28 30  0  0  0  0  0  0  0  0999 V2000
   15.7623   24.8629   -2.0730 C   0  0  0  0  0  0  0  0  0  0  0  0
   15.2387   23.7702   -2.6913 C   0  0  0  0  0  0  0  0  0  0  0  0
   15.0601   23.7389   -4.0093 N   0  0  0  0  0  0  0  0  0  0  0  0
   15.4010   24.7998   -4.7480 C   0  0  0  0  0  0  0  0  0  0  0  0
   15.2311   24.7860   -6.0715 N   0  0  0  0  0  0  0  0  0  0  0  0
   15.5543   25.8141   -6.8599 C   0  0  0  0  0  0  0  0  0  0  0  0
   15.3393   25.7217   -8.2856 N   0  0  0  0  0  0  0  0  0  0  0  0
   16.0716   26.9091   -6.3070 N   0  0  0  0  0  0  0  0  0  0  0  0
   16.2843   27.0204   -4.9617 C   0  0  0  0  0  0  0  0  0  0  0  0
   16.8391   28.2008   -4.4487 N   0  0  0  0  0  0  0  0  0  0  0  0
   15.9487   25.9615   -4.1670 C   0  0  0  0  0  0  0  0  0  0  0  0
   16.1350   26.0000   -2.8029 C   0  0  0  0  0  0  0  0  0  0  0  0
   16.6875   27.1903   -2.1578 C   0  0  0  0  0  0  0  0  0  0  0  0
   15.3897   24.8217   -8.7878 H   0  0  0  0  0  0  0  0  0  0  0  0
   15.1304   26.5835   -8.8084 H   0  0  0  0  0  0  0  0  0  0  0  0
   17.8976   28.2694   -4.3820 H   0  0  0  0  0  0  0  0  0  0  0  0
   16.3159   29.0399   -4.1381 H   0  0  0  0  0  0  0  0  0  0  0  0
   15.9884   24.8981   -0.6083 C   0  0  0  0  0  0  0  0  0  0  0  0
   16.0379   22.8294    0.8239 C   0  0  0  0  0  0  0  0  0  0  0  0
   15.2991   23.8742    0.1426 N   0  0  0  0  0  0  0  0  0  0  0  0
   13.8746   23.8044    0.2570 C   0  0  0  0  0  0  0  0  0  0  0  0
   13.1831   24.9937    0.3160 C   0  0  0  0  0  0  0  0  0  0  0  0
   11.8121   24.9724    0.4247 C   0  0  0  0  0  0  0  0  0  0  0  0
   11.1407   23.7766    0.4740 C   0  0  0  0  0  0  0  0  0  0  0  0
    9.3894   23.7054    0.6127 Cl  0  0  0  0  0  0  0  0  0  0  0  0
   11.8498   22.5770    0.4137 C   0  0  0  0  0  0  0  0  0  0  0  0
   11.0408   21.0231    0.4731 Cl  0  0  0  0  0  0  0  0  0  0  0  0
   13.2148   22.5924    0.3054 C   0  0  0  0  0  0  0  0  0  0  0  0
 19 20  1  0  0  0
 20 18  1  0  0  0
 18  1  1  0  0  0
  1  2  2  0  0  0
  2  3  1  0  0  0
  3  4  2  0  0  0
  4  5  1  0  0  0
  5  6  2  0  0  0
  6  7  1  0  0  0
  6  8  1  0  0  0
  8  9  2  0  0  0
  9 10  1  0  0  0
  9 11  1  0  0  0
 11 12  2  0  0  0
 12 13  1  0  0  0
 20 21  1  0  0  0
 21 22  2  0  0  0
 22 23  1  0  0  0
 23 24  2  0  0  0
 24 25  1  0  0  0
 24 26  1  0  0  0
 26 27  1  0  0  0
 26 28  2  0  0  0
 12  1  1  0  0  0
 28 21  1  0  0  0
 11  4  1  0  0  0
  7 14  1  0  0  0
  7 15  1  0  0  0
 10 16  1  0  0  0
 10 17  1  0  0  0
M  END
> <minimizedAffinity>
-7.45138

> <CNNscore>
0.1405663937

> <CNNaffinity>
7.0405716896

> <CNN_VS>
0.9896677732

> <CNNaffinity_variance>
0.3384307623

$$$$
[H]c1nc(N([H])C(=O)c2c([H])c([H])c(-c3nc([C@@]4([H])C([H])([H])N(C5([H])C([H])([H])OC5([H])[H])C([H])([H])C4([H])[H])n4c([H])c([H])nc(N([H])[H])c34)c(F)c2[H])c([H])c(C(F)(F)F)c1[H]


 42 47  0  0  0  0  0  0  0  0999 V2000
   15.0182   26.1501   -4.9398 N   0  0  0  0  0  0  0  0  0  0  0  0
   15.0115   24.9369   -4.2199 C   0  0  0  0  0  0  0  0  0  0  0  0
   15.8461   23.9271   -4.5791 N   0  0  0  0  0  0  0  0  0  0  0  0
   15.9352   22.7661   -3.9269 C   0  0  0  0  0  0  0  0  0  0  0  0
   15.1228   22.6049   -2.8315 C   0  0  0  0  0  0  0  0  0  0  0  0
   14.2816   23.5757   -2.4394 N   0  0  0  0  0  0  0  0  0  0  0  0
   13.4171   23.5971   -1.3796 C   0  0  0  0  0  0  0  0  0  0  0  0
   12.8214   24.7869   -1.4241 N   0  0  0  0  0  0  0  0  0  0  0  0
   13.2570   25.5404   -2.4615 C   0  0  0  0  0  0  0  0  0  0  0  0
   14.1999   24.7559   -3.1122 C   0  0  0  0  0  0  0  0  0  0  0  0
   14.5946   26.1491   -5.9036 H   0  0  0  0  0  0  0  0  0  0  0  0
   15.4618   26.9817   -4.4795 H   0  0  0  0  0  0  0  0  0  0  0  0
   12.9006   26.9063   -2.8583 C   0  0  0  0  0  0  0  0  0  0  0  0
   12.8556   27.9562   -1.9835 C   0  0  0  0  0  0  0  0  0  0  0  0
   12.4218   29.1970   -2.3825 C   0  0  0  0  0  0  0  0  0  0  0  0
   12.0095   29.4825   -3.6736 C   0  0  0  0  0  0  0  0  0  0  0  0
   12.0718   28.4233   -4.5732 C   0  0  0  0  0  0  0  0  0  0  0  0
   12.5032   27.1742   -4.1781 C   0  0  0  0  0  0  0  0  0  0  0  0
   12.5735   26.1669   -5.0870 F   0  0  0  0  0  0  0  0  0  0  0  0
   11.3268   30.7264   -3.9953 C   0  0  0  0  0  0  0  0  0  0  0  0
   12.2175   31.6767   -4.2659 O   0  0  0  0  0  0  0  0  0  0  0  0
   10.0138   31.0901   -4.0447 N   0  0  0  0  0  0  0  0  0  0  0  0
    9.8862   32.1786   -4.2748 H   0  0  0  0  0  0  0  0  0  0  0  0
    8.7844   30.4472   -4.0961 C   0  0  0  0  0  0  0  0  0  0  0  0
    8.3923   29.5250   -5.0338 C   0  0  0  0  0  0  0  0  0  0  0  0
    7.1682   28.9212   -4.8948 C   0  0  0  0  0  0  0  0  0  0  0  0
    6.3602   29.2389   -3.8336 C   0  0  0  0  0  0  0  0  0  0  0  0
    6.7668   30.1644   -2.9000 C   0  0  0  0  0  0  0  0  0  0  0  0
    7.9351   30.7346   -3.0479 N   0  0  0  0  0  0  0  0  0  0  0  0
    6.6588   27.9863   -5.9401 C   0  0  0  0  0  0  0  0  0  0  0  0
    6.2422   26.8098   -5.3860 F   0  0  0  0  0  0  0  0  0  0  0  0
    5.6273   28.5846   -6.6819 F   0  0  0  0  0  0  0  0  0  0  0  0
    7.7359   27.7622   -6.8118 F   0  0  0  0  0  0  0  0  0  0  0  0
   13.3019   22.4586   -0.4852 C   0  0  0  0  0  0  0  0  0  0  0  0
   13.7134   21.1305   -1.0831 C   0  0  0  0  0  0  0  0  0  0  0  0
   13.3315   20.2073    0.0971 C   0  0  0  0  0  0  0  0  0  0  0  0
   12.3560   20.9284    0.8172 N   0  0  0  0  0  0  0  0  0  0  0  0
   11.9561   22.0911    0.0705 C   0  0  0  0  0  0  0  0  0  0  0  0
   11.4455   20.3189    1.6562 C   0  0  0  0  0  0  0  0  0  0  0  0
   10.7135   21.2465    2.6349 C   0  0  0  0  0  0  0  0  0  0  0  0
   10.6654   20.1858    3.5128 O   0  0  0  0  0  0  0  0  0  0  0  0
   11.9217   19.7785    2.9927 C   0  0  0  0  0  0  0  0  0  0  0  0
  1  2  1  0  0  0
  2  3  2  0  0  0
  3  4  1  0  0  0
  4  5  2  0  0  0
  5  6  1  0  0  0
  6  7  1  0  0  0
  7  8  2  0  0  0
  8  9  1  0  0  0
  9 13  1  0  0  0
 13 14  2  0  0  0
 14 15  1  0  0  0
 15 16  2  0  0  0
 16 17  1  0  0  0
 17 18  2  0  0  0
 18 19  1  0  0  0
 16 20  1  0  0  0
 20 21  2  0  0  0
 20 22  1  0  0  0
 22 24  1  0  0  0
 24 25  2  0  0  0
 25 26  1  0  0  0
 26 27  2  0  0  0
 27 28  1  0  0  0
 28 29  2  0  0  0
 26 30  1  0  0  0
 30 31  1  0  0  0
 30 32  1  0  0  0
 30 33  1  0  0  0
  9 10  2  0  0  0
  7 34  1  0  0  0
 34 35  1  0  0  0
 35 36  1  0  0  0
 36 37  1  0  0  0
 37 38  1  0  0  0
 37 39  1  0  0  0
 39 40  1  0  0  0
 40 41  1  0  0  0
 41 42  1  0  0  0
 10  2  1  0  0  0
 38 34  1  0  0  0
 42 39  1  0  0  0
 10  6  1  0  0  0
 18 13  1  0  0  0
 29 24  1  0  0  0
  1 11  1  0  0  0
  1 12  1  0  0  0
 22 23  1  0  0  0
M  END
> <minimizedAffinity>
17.24708

> <CNNscore>
0.6274991035

> <CNNaffinity>
7.8259286880

> <CNN_VS>
4.9107632637

> <CNNaffinity_variance>
0.9218099713

$$$$
[H]c1nc(N([H])C(=O)c2c([H])c([H])c(-c3nc([C@@]4([H])C([H])([H])N(C5([H])C([H])([H])OC5([H])[H])C([H])([H])C4([H])[H])n4c([H])c([H])nc(N([H])[H])c34)c(F)c2[H])c([H])c(C(F)(F)F)c1[H]


 42 47  0  0  0  0  0  0  0  0999 V2000
   14.1360   22.0658   -1.1715 N   0  0  0  0  0  0  0  0  0  0  0  0
   13.5920   21.4742   -0.0120 C   0  0  0  0  0  0  0  0  0  0  0  0
   14.1154   20.3181    0.4724 N   0  0  0  0  0  0  0  0  0  0  0  0
   13.6907   19.7165    1.5856 C   0  0  0  0  0  0  0  0  0  0  0  0
   12.6601   20.3200    2.2635 C   0  0  0  0  0  0  0  0  0  0  0  0
   12.1113   21.4636    1.8219 N   0  0  0  0  0  0  0  0  0  0  0  0
   11.0984   22.2048    2.3654 C   0  0  0  0  0  0  0  0  0  0  0  0
   10.9374   23.2466    1.5523 N   0  0  0  0  0  0  0  0  0  0  0  0
   11.7970   23.2188    0.5064 C   0  0  0  0  0  0  0  0  0  0  0  0
   12.5532   22.0683    0.6855 C   0  0  0  0  0  0  0  0  0  0  0  0
   13.9449   21.5977   -2.0949 H   0  0  0  0  0  0  0  0  0  0  0  0
   14.7161   22.9306   -1.0450 H   0  0  0  0  0  0  0  0  0  0  0  0
   11.9870   24.1716   -0.5920 C   0  0  0  0  0  0  0  0  0  0  0  0
   11.9365   23.8179   -1.9118 C   0  0  0  0  0  0  0  0  0  0  0  0
   12.2175   24.7262   -2.9033 C   0  0  0  0  0  0  0  0  0  0  0  0
   12.5611   26.0448   -2.6553 C   0  0  0  0  0  0  0  0  0  0  0  0
   12.5948   26.4158   -1.3150 C   0  0  0  0  0  0  0  0  0  0  0  0
   12.3171   25.5078   -0.3146 C   0  0  0  0  0  0  0  0  0  0  0  0
   12.3368   25.9084    0.9834 F   0  0  0  0  0  0  0  0  0  0  0  0
   13.0910   26.9019   -3.7048 C   0  0  0  0  0  0  0  0  0  0  0  0
   12.0938   27.5103   -4.3412 O   0  0  0  0  0  0  0  0  0  0  0  0
   14.3511   27.1665   -4.1529 N   0  0  0  0  0  0  0  0  0  0  0  0
   14.3481   27.8471   -5.0421 H   0  0  0  0  0  0  0  0  0  0  0  0
   15.6488   26.9968   -3.6898 C   0  0  0  0  0  0  0  0  0  0  0  0
   16.7446   27.7327   -4.0657 C   0  0  0  0  0  0  0  0  0  0  0  0
   17.9466   27.4891   -3.4505 C   0  0  0  0  0  0  0  0  0  0  0  0
   18.0397   26.5273   -2.4777 C   0  0  0  0  0  0  0  0  0  0  0  0
   16.9325   25.7981   -2.1097 C   0  0  0  0  0  0  0  0  0  0  0  0
   15.7940   26.0389   -2.7079 N   0  0  0  0  0  0  0  0  0  0  0  0
   19.1839   28.1952   -3.8936 C   0  0  0  0  0  0  0  0  0  0  0  0
   19.6349   27.6968   -5.0823 F   0  0  0  0  0  0  0  0  0  0  0  0
   18.9620   29.5791   -3.9817 F   0  0  0  0  0  0  0  0  0  0  0  0
   20.1320   27.9792   -2.8813 F   0  0  0  0  0  0  0  0  0  0  0  0
   10.4415   21.7882    3.5920 C   0  0  0  0  0  0  0  0  0  0  0  0
   11.0737   20.6004    4.2851 C   0  0  0  0  0  0  0  0  0  0  0  0
   10.0420   20.4083    5.4208 C   0  0  0  0  0  0  0  0  0  0  0  0
    8.8578   21.0017    4.9356 N   0  0  0  0  0  0  0  0  0  0  0  0
    9.0110   21.3342    3.5445 C   0  0  0  0  0  0  0  0  0  0  0  0
    7.6070   20.6734    5.4175 C   0  0  0  0  0  0  0  0  0  0  0  0
    6.6900   19.9250    4.4411 C   0  0  0  0  0  0  0  0  0  0  0  0
    5.6251   20.5431    5.0592 O   0  0  0  0  0  0  0  0  0  0  0  0
    6.4703   21.6665    5.2544 C   0  0  0  0  0  0  0  0  0  0  0  0
  1  2  1  0  0  0
  2  3  2  0  0  0
  3  4  1  0  0  0
  4  5  2  0  0  0
  5  6  1  0  0  0
  6  7  1  0  0  0
  7  8  2  0  0  0
  8  9  1  0  0  0
  9 13  1  0  0  0
 13 14  2  0  0  0
 14 15  1  0  0  0
 15 16  2  0  0  0
 16 17  1  0  0  0
 17 18  2  0  0  0
 18 19  1  0  0  0
 16 20  1  0  0  0
 20 21  2  0  0  0
 20 22  1  0  0  0
 22 24  1  0  0  0
 24 25  2  0  0  0
 25 26  1  0  0  0
 26 27  2  0  0  0
 27 28  1  0  0  0
 28 29  2  0  0  0
 26 30  1  0  0  0
 30 31  1  0  0  0
 30 32  1  0  0  0
 30 33  1  0  0  0
  9 10  2  0  0  0
  7 34  1  0  0  0
 34 35  1  0  0  0
 35 36  1  0  0  0
 36 37  1  0  0  0
 37 38  1  0  0  0
 37 39  1  0  0  0
 39 40  1  0  0  0
 40 41  1  0  0  0
 41 42  1  0  0  0
 10  2  1  0  0  0
 38 34  1  0  0  0
 42 39  1  0  0  0
 10  6  1  0  0  0
 18 13  1  0  0  0
 29 24  1  0  0  0
  1 11  1  0  0  0
  1 12  1  0  0  0
 22 23  1  0  0  0
M  END
> <minimizedAffinity>
-0.07424

> <CNNscore>
0.4658013582

> <CNNaffinity>
8.0600433350

> <CNN_VS>
3.7543790340

> <CNNaffinity_variance>
1.1755367517

$$$$
[H]c1nc(N([H])C(=O)c2c([H])c([H])c(-c3nc([C@@]4([H])C([H])([H])N(C5([H])C([H])([H])OC5([H])[H])C([H])([H])C4([H])[H])n4c([H])c([H])nc(N([H])[H])c34)c(F)c2[H])c([H])c(C(F)(F)F)c1[H]


 42 47  0  0  0  0  0  0  0  0999 V2000
   13.5870   22.7305   -0.2852 N   0  0  0  0  0  0  0  0  0  0  0  0
   12.7271   22.1292    0.6578 C   0  0  0  0  0  0  0  0  0  0  0  0
   13.1736   21.1055    1.4311 N   0  0  0  0  0  0  0  0  0  0  0  0
   12.4420   20.5109    2.3759 C   0  0  0  0  0  0  0  0  0  0  0  0
   11.1633   20.9778    2.5571 C   0  0  0  0  0  0  0  0  0  0  0  0
   10.6789   21.9876    1.8157 N   0  0  0  0  0  0  0  0  0  0  0  0
    9.4493   22.5848    1.8630 C   0  0  0  0  0  0  0  0  0  0  0  0
    9.4740   23.5353    0.9311 N   0  0  0  0  0  0  0  0  0  0  0  0
   10.6603   23.5852    0.2802 C   0  0  0  0  0  0  0  0  0  0  0  0
   11.4348   22.5866    0.8553 C   0  0  0  0  0  0  0  0  0  0  0  0
   13.8204   22.1825   -1.1533 H   0  0  0  0  0  0  0  0  0  0  0  0
   13.9598   23.6845   -0.0586 H   0  0  0  0  0  0  0  0  0  0  0  0
   11.1258   24.4881   -0.7773 C   0  0  0  0  0  0  0  0  0  0  0  0
   10.7528   24.3678   -2.0873 C   0  0  0  0  0  0  0  0  0  0  0  0
   11.2915   25.1770   -3.0579 C   0  0  0  0  0  0  0  0  0  0  0  0
   12.2297   26.1618   -2.7962 C   0  0  0  0  0  0  0  0  0  0  0  0
   12.5985   26.3022   -1.4623 C   0  0  0  0  0  0  0  0  0  0  0  0
   12.0640   25.4906   -0.4835 C   0  0  0  0  0  0  0  0  0  0  0  0
   12.4286   25.6690    0.8130 F   0  0  0  0  0  0  0  0  0  0  0  0
   12.9565   26.8227   -3.8695 C   0  0  0  0  0  0  0  0  0  0  0  0
   12.1004   27.3643   -4.7317 O   0  0  0  0  0  0  0  0  0  0  0  0
   14.2817   26.9631   -4.1572 N   0  0  0  0  0  0  0  0  0  0  0  0
   14.4482   27.4964   -5.1276 H   0  0  0  0  0  0  0  0  0  0  0  0
   15.4870   26.8154   -3.4843 C   0  0  0  0  0  0  0  0  0  0  0  0
   15.8306   25.7738   -2.6593 C   0  0  0  0  0  0  0  0  0  0  0  0
   17.0971   25.7381   -2.1329 C   0  0  0  0  0  0  0  0  0  0  0  0
   17.9959   26.7288   -2.4338 C   0  0  0  0  0  0  0  0  0  0  0  0
   17.6383   27.7664   -3.2637 C   0  0  0  0  0  0  0  0  0  0  0  0
   16.4259   27.7890   -3.7551 N   0  0  0  0  0  0  0  0  0  0  0  0
   17.4843   24.6796   -1.1553 C   0  0  0  0  0  0  0  0  0  0  0  0
   17.0928   23.4448   -1.5876 F   0  0  0  0  0  0  0  0  0  0  0  0
   18.8668   24.7105   -0.9109 F   0  0  0  0  0  0  0  0  0  0  0  0
   16.8321   25.0077    0.0434 F   0  0  0  0  0  0  0  0  0  0  0  0
    8.4381   22.1414    2.8065 C   0  0  0  0  0  0  0  0  0  0  0  0
    8.1684   23.0945    3.9509 C   0  0  0  0  0  0  0  0  0  0  0  0
    7.1736   22.2270    4.7564 C   0  0  0  0  0  0  0  0  0  0  0  0
    7.4508   20.9012    4.3620 N   0  0  0  0  0  0  0  0  0  0  0  0
    8.6516   20.8665    3.5708 C   0  0  0  0  0  0  0  0  0  0  0  0
    7.1209   19.8078    5.1366 C   0  0  0  0  0  0  0  0  0  0  0  0
    6.9179   18.4890    4.3790 C   0  0  0  0  0  0  0  0  0  0  0  0
    5.9956   18.1452    5.3430 O   0  0  0  0  0  0  0  0  0  0  0  0
    5.6576   19.5215    5.4223 C   0  0  0  0  0  0  0  0  0  0  0  0
  1  2  1  0  0  0
  2  3  2  0  0  0
  3  4  1  0  0  0
  4  5  2  0  0  0
  5  6  1  0  0  0
  6  7  1  0  0  0
  7  8  2  0  0  0
  8  9  1  0  0  0
  9 13  1  0  0  0
 13 14  2  0  0  0
 14 15  1  0  0  0
 15 16  2  0  0  0
 16 17  1  0  0  0
 17 18  2  0  0  0
 18 19  1  0  0  0
 16 20  1  0  0  0
 20 21  2  0  0  0
 20 22  1  0  0  0
 22 24  1  0  0  0
 24 25  2  0  0  0
 25 26  1  0  0  0
 26 27  2  0  0  0
 27 28  1  0  0  0
 28 29  2  0  0  0
 26 30  1  0  0  0
 30 31  1  0  0  0
 30 32  1  0  0  0
 30 33  1  0  0  0
  9 10  2  0  0  0
  7 34  1  0  0  0
 34 35  1  0  0  0
 35 36  1  0  0  0
 36 37  1  0  0  0
 37 38  1  0  0  0
 37 39  1  0  0  0
 39 40  1  0  0  0
 40 41  1  0  0  0
 41 42  1  0  0  0
 10  2  1  0  0  0
 38 34  1  0  0  0
 42 39  1  0  0  0
 10  6  1  0  0  0
 18 13  1  0  0  0
 29 24  1  0  0  0
  1 11  1  0  0  0
  1 12  1  0  0  0
 22 23  1  0  0  0
M  END
> <minimizedAffinity>
1.31282

> <CNNscore>
0.4473442137

> <CNNaffinity>
7.9461579323

> <CNN_VS>
3.5546677113

> <CNNaffinity_variance>
0.8685127497

$$$$
[H]c1nc(N([H])C(=O)c2c([H])c([H])c(-c3nc([C@@]4([H])C([H])([H])N(C5([H])C([H])([H])OC5([H])[H])C([H])([H])C4([H])[H])n4c([H])c([H])nc(N([H])[H])c34)c(F)c2[H])c([H])c(C(F)(F)F)c1[H]


 42 47  0  0  0  0  0  0  0  0999 V2000
   15.5305   25.6899   -1.4002 N   0  0  0  0  0  0  0  0  0  0  0  0
   14.8161   25.0572   -0.3612 C   0  0  0  0  0  0  0  0  0  0  0  0
   14.8739   25.5499    0.9034 N   0  0  0  0  0  0  0  0  0  0  0  0
   14.1957   25.0401    1.9337 C   0  0  0  0  0  0  0  0  0  0  0  0
   13.4003   23.9507    1.6759 C   0  0  0  0  0  0  0  0  0  0  0  0
   13.3122   23.4293    0.4413 N   0  0  0  0  0  0  0  0  0  0  0  0
   12.5715   22.3674    0.0002 C   0  0  0  0  0  0  0  0  0  0  0  0
   12.8287   22.2643   -1.3020 N   0  0  0  0  0  0  0  0  0  0  0  0
   13.7007   23.2081   -1.7291 C   0  0  0  0  0  0  0  0  0  0  0  0
   14.0082   23.9582   -0.6019 C   0  0  0  0  0  0  0  0  0  0  0  0
   16.5776   25.5810   -1.4105 H   0  0  0  0  0  0  0  0  0  0  0  0
   14.9779   26.2489   -2.0948 H   0  0  0  0  0  0  0  0  0  0  0  0
   14.2238   23.4794   -3.0718 C   0  0  0  0  0  0  0  0  0  0  0  0
   15.1494   22.6874   -3.6928 C   0  0  0  0  0  0  0  0  0  0  0  0
   15.6820   23.0355   -4.9102 C   0  0  0  0  0  0  0  0  0  0  0  0
   15.3300   24.1861   -5.5963 C   0  0  0  0  0  0  0  0  0  0  0  0
   14.3739   24.9860   -4.9789 C   0  0  0  0  0  0  0  0  0  0  0  0
   13.8379   24.6439   -3.7549 C   0  0  0  0  0  0  0  0  0  0  0  0
   12.8894   25.4355   -3.1898 F   0  0  0  0  0  0  0  0  0  0  0  0
   16.0894   24.6451   -6.7494 C   0  0  0  0  0  0  0  0  0  0  0  0
   16.3912   23.6143   -7.5342 O   0  0  0  0  0  0  0  0  0  0  0  0
   16.5483   25.8665   -7.1445 N   0  0  0  0  0  0  0  0  0  0  0  0
   17.1620   25.8042   -8.0791 H   0  0  0  0  0  0  0  0  0  0  0  0
   16.2959   27.1951   -6.8305 C   0  0  0  0  0  0  0  0  0  0  0  0
   15.8919   27.6753   -5.6100 C   0  0  0  0  0  0  0  0  0  0  0  0
   15.7637   29.0311   -5.4430 C   0  0  0  0  0  0  0  0  0  0  0  0
   16.0388   29.8819   -6.4825 C   0  0  0  0  0  0  0  0  0  0  0  0
   16.4445   29.3866   -7.7004 C   0  0  0  0  0  0  0  0  0  0  0  0
   16.5586   28.0913   -7.8457 N   0  0  0  0  0  0  0  0  0  0  0  0
   15.2347   29.5929   -4.1661 C   0  0  0  0  0  0  0  0  0  0  0  0
   14.1853   28.8530   -3.7013 F   0  0  0  0  0  0  0  0  0  0  0  0
   16.2524   29.6808   -3.2024 F   0  0  0  0  0  0  0  0  0  0  0  0
   14.8176   30.8992   -4.4657 F   0  0  0  0  0  0  0  0  0  0  0  0
   11.7266   21.6149    0.9109 C   0  0  0  0  0  0  0  0  0  0  0  0
   10.3102   22.1315    1.0447 C   0  0  0  0  0  0  0  0  0  0  0  0
    9.8102   21.1767    2.1534 C   0  0  0  0  0  0  0  0  0  0  0  0
   10.9805   20.7493    2.8152 N   0  0  0  0  0  0  0  0  0  0  0  0
   12.1087   21.5168    2.3598 C   0  0  0  0  0  0  0  0  0  0  0  0
   10.9720   20.2625    4.1065 C   0  0  0  0  0  0  0  0  0  0  0  0
   11.5890   18.8711    4.3001 C   0  0  0  0  0  0  0  0  0  0  0  0
   10.6909   18.6803    5.3274 O   0  0  0  0  0  0  0  0  0  0  0  0
    9.7710   19.4676    4.5867 C   0  0  0  0  0  0  0  0  0  0  0  0
  1  2  1  0  0  0
  2  3  2  0  0  0
  3  4  1  0  0  0
  4  5  2  0  0  0
  5  6  1  0  0  0
  6  7  1  0  0  0
  7  8  2  0  0  0
  8  9  1  0  0  0
  9 13  1  0  0  0
 13 14  2  0  0  0
 14 15  1  0  0  0
 15 16  2  0  0  0
 16 17  1  0  0  0
 17 18  2  0  0  0
 18 19  1  0  0  0
 16 20  1  0  0  0
 20 21  2  0  0  0
 20 22  1  0  0  0
 22 24  1  0  0  0
 24 25  2  0  0  0
 25 26  1  0  0  0
 26 27  2  0  0  0
 27 28  1  0  0  0
 28 29  2  0  0  0
 26 30  1  0  0  0
 30 31  1  0  0  0
 30 32  1  0  0  0
 30 33  1  0  0  0
  9 10  2  0  0  0
  7 34  1  0  0  0
 34 35  1  0  0  0
 35 36  1  0  0  0
 36 37  1  0  0  0
 37 38  1  0  0  0
 37 39  1  0  0  0
 39 40  1  0  0  0
 40 41  1  0  0  0
 41 42  1  0  0  0
 10  2  1  0  0  0
 38 34  1  0  0  0
 42 39  1  0  0  0
 10  6  1  0  0  0
 18 13  1  0  0  0
 29 24  1  0  0  0
  1 11  1  0  0  0
  1 12  1  0  0  0
 22 23  1  0  0  0
M  END
> <minimizedAffinity>
20.99296

> <CNNscore>
0.4435438812

> <CNNaffinity>
7.7163972855

> <CNN_VS>
3.4225606918

> <CNNaffinity_variance>
1.0229632854

$$$$
[H]c1nc(N([H])C(=O)c2c([H])c([H])c(-c3nc([C@@]4([H])C([H])([H])N(C5([H])C([H])([H])OC5([H])[H])C([H])([H])C4([H])[H])n4c([H])c([H])nc(N([H])[H])c34)c(F)c2[H])c([H])c(C(F)(F)F)c1[H]


 42 47  0  0  0  0  0  0  0  0999 V2000
   14.7829   22.7499   -1.0637 N   0  0  0  0  0  0  0  0  0  0  0  0
   13.7668   22.1000   -0.3320 C   0  0  0  0  0  0  0  0  0  0  0  0
   14.0908   21.1853    0.6186 N   0  0  0  0  0  0  0  0  0  0  0  0
   13.1961   20.5582    1.3852 C   0  0  0  0  0  0  0  0  0  0  0  0
   11.8747   20.8713    1.1808 C   0  0  0  0  0  0  0  0  0  0  0  0
   11.5073   21.7693    0.2521 N   0  0  0  0  0  0  0  0  0  0  0  0
   10.2557   22.2101   -0.0794 C   0  0  0  0  0  0  0  0  0  0  0  0
   10.4332   23.1022   -1.0515 N   0  0  0  0  0  0  0  0  0  0  0  0
   11.7399   23.2631   -1.3681 C   0  0  0  0  0  0  0  0  0  0  0  0
   12.4289   22.4029   -0.5235 C   0  0  0  0  0  0  0  0  0  0  0  0
   15.3001   22.1874   -1.7878 H   0  0  0  0  0  0  0  0  0  0  0  0
   14.9775   23.7542   -0.8314 H   0  0  0  0  0  0  0  0  0  0  0  0
   12.3784   24.1560   -2.3403 C   0  0  0  0  0  0  0  0  0  0  0  0
   13.5183   23.8331   -3.0228 C   0  0  0  0  0  0  0  0  0  0  0  0
   14.1336   24.7406   -3.8504 C   0  0  0  0  0  0  0  0  0  0  0  0
   13.6591   26.0246   -4.0619 C   0  0  0  0  0  0  0  0  0  0  0  0
   12.4886   26.3524   -3.3856 C   0  0  0  0  0  0  0  0  0  0  0  0
   11.8678   25.4470   -2.5505 C   0  0  0  0  0  0  0  0  0  0  0  0
   10.7134   25.7913   -1.9224 F   0  0  0  0  0  0  0  0  0  0  0  0
   14.4639   27.0297   -4.7395 C   0  0  0  0  0  0  0  0  0  0  0  0
   13.7111   27.7105   -5.5993 O   0  0  0  0  0  0  0  0  0  0  0  0
   15.7824   27.3713   -4.6808 N   0  0  0  0  0  0  0  0  0  0  0  0
   16.0436   28.1722   -5.4186 H   0  0  0  0  0  0  0  0  0  0  0  0
   16.8495   27.1532   -3.8199 C   0  0  0  0  0  0  0  0  0  0  0  0
   16.9696   26.1184   -2.9264 C   0  0  0  0  0  0  0  0  0  0  0  0
   18.1295   26.0017   -2.2029 C   0  0  0  0  0  0  0  0  0  0  0  0
   19.1446   26.9066   -2.3785 C   0  0  0  0  0  0  0  0  0  0  0  0
   19.0110   27.9384   -3.2790 C   0  0  0  0  0  0  0  0  0  0  0  0
   17.8977   28.0389   -3.9590 N   0  0  0  0  0  0  0  0  0  0  0  0
   18.2670   24.9522   -1.1515 C   0  0  0  0  0  0  0  0  0  0  0  0
   19.3488   25.1944   -0.3541 F   0  0  0  0  0  0  0  0  0  0  0  0
   17.0923   24.8567   -0.3879 F   0  0  0  0  0  0  0  0  0  0  0  0
   18.4279   23.7392   -1.8392 F   0  0  0  0  0  0  0  0  0  0  0  0
    9.0781   21.6977    0.5990 C   0  0  0  0  0  0  0  0  0  0  0  0
    9.2439   21.4710    2.0863 C   0  0  0  0  0  0  0  0  0  0  0  0
    7.8697   20.8284    2.3858 C   0  0  0  0  0  0  0  0  0  0  0  0
    7.4421   20.3003    1.1495 N   0  0  0  0  0  0  0  0  0  0  0  0
    8.5131   20.3674    0.1916 C   0  0  0  0  0  0  0  0  0  0  0  0
    6.5130   19.2844    1.0534 C   0  0  0  0  0  0  0  0  0  0  0  0
    7.0065   17.9874    0.3988 C   0  0  0  0  0  0  0  0  0  0  0  0
    5.7220   17.8012   -0.0635 O   0  0  0  0  0  0  0  0  0  0  0  0
    5.6237   19.2128   -0.1749 C   0  0  0  0  0  0  0  0  0  0  0  0
  1  2  1  0  0  0
  2  3  2  0  0  0
  3  4  1  0  0  0
  4  5  2  0  0  0
  5  6  1  0  0  0
  6  7  1  0  0  0
  7  8  2  0  0  0
  8  9  1  0  0  0
  9 13  1  0  0  0
 13 14  2  0  0  0
 14 15  1  0  0  0
 15 16  2  0  0  0
 16 17  1  0  0  0
 17 18  2  0  0  0
 18 19  1  0  0  0
 16 20  1  0  0  0
 20 21  2  0  0  0
 20 22  1  0  0  0
 22 24  1  0  0  0
 24 25  2  0  0  0
 25 26  1  0  0  0
 26 27  2  0  0  0
 27 28  1  0  0  0
 28 29  2  0  0  0
 26 30  1  0  0  0
 30 31  1  0  0  0
 30 32  1  0  0  0
 30 33  1  0  0  0
  9 10  2  0  0  0
  7 34  1  0  0  0
 34 35  1  0  0  0
 35 36  1  0  0  0
 36 37  1  0  0  0
 37 38  1  0  0  0
 37 39  1  0  0  0
 39 40  1  0  0  0
 40 41  1  0  0  0
 41 42  1  0  0  0
 10  2  1  0  0  0
 38 34  1  0  0  0
 42 39  1  0  0  0
 10  6  1  0  0  0
 18 13  1  0  0  0
 29 24  1  0  0  0
  1 11  1  0  0  0
  1 12  1  0  0  0
 22 23  1  0  0  0
M  END
> <minimizedAffinity>
12.57990

> <CNNscore>
0.4397829175

> <CNNaffinity>
8.1303739548

> <CNN_VS>
3.5755996704

> <CNNaffinity_variance>
1.1552684307

$$$$
[H]c1nc(N([H])C(=O)c2c([H])c([H])c(-c3nc([C@@]4([H])C([H])([H])N(C5([H])C([H])([H])OC5([H])[H])C([H])([H])C4([H])[H])n4c([H])c([H])nc(N([H])[H])c34)c(F)c2[H])c([H])c(C(F)(F)F)c1[H]


 42 47  0  0  0  0  0  0  0  0999 V2000
   14.9443   22.8626   -0.6849 N   0  0  0  0  0  0  0  0  0  0  0  0
   14.0650   22.0652    0.0774 C   0  0  0  0  0  0  0  0  0  0  0  0
   14.5584   21.1132    0.9113 N   0  0  0  0  0  0  0  0  0  0  0  0
   13.8009   20.3471    1.6992 C   0  0  0  0  0  0  0  0  0  0  0  0
   12.4439   20.5504    1.6445 C   0  0  0  0  0  0  0  0  0  0  0  0
   11.9109   21.4801    0.8349 N   0  0  0  0  0  0  0  0  0  0  0  0
   10.5996   21.8266    0.6589 C   0  0  0  0  0  0  0  0  0  0  0  0
   10.6031   22.8048   -0.2442 N   0  0  0  0  0  0  0  0  0  0  0  0
   11.8535   23.1113   -0.6638 C   0  0  0  0  0  0  0  0  0  0  0  0
   12.6937   22.2559    0.0362 C   0  0  0  0  0  0  0  0  0  0  0  0
   15.4336   22.4093   -1.4995 H   0  0  0  0  0  0  0  0  0  0  0  0
   15.0743   23.8593   -0.3851 H   0  0  0  0  0  0  0  0  0  0  0  0
   12.3138   24.1334   -1.6091 C   0  0  0  0  0  0  0  0  0  0  0  0
   13.2398   23.8922   -2.5859 C   0  0  0  0  0  0  0  0  0  0  0  0
   13.7120   24.9050   -3.3847 C   0  0  0  0  0  0  0  0  0  0  0  0
   13.2956   26.2213   -3.2741 C   0  0  0  0  0  0  0  0  0  0  0  0
   12.3389   26.4695   -2.2953 C   0  0  0  0  0  0  0  0  0  0  0  0
   11.8632   25.4577   -1.4876 C   0  0  0  0  0  0  0  0  0  0  0  0
   10.9123   25.7296   -0.5563 F   0  0  0  0  0  0  0  0  0  0  0  0
   13.9933   27.2988   -3.9593 C   0  0  0  0  0  0  0  0  0  0  0  0
   15.1758   26.8708   -4.3929 O   0  0  0  0  0  0  0  0  0  0  0  0
   13.6900   28.6047   -4.2063 N   0  0  0  0  0  0  0  0  0  0  0  0
   14.5281   29.1426   -4.7184 H   0  0  0  0  0  0  0  0  0  0  0  0
   12.5544   29.4032   -4.1891 C   0  0  0  0  0  0  0  0  0  0  0  0
   11.3036   29.0401   -4.6218 C   0  0  0  0  0  0  0  0  0  0  0  0
   10.2664   29.9237   -4.4604 C   0  0  0  0  0  0  0  0  0  0  0  0
   10.4861   31.1436   -3.8742 C   0  0  0  0  0  0  0  0  0  0  0  0
   11.7452   31.4938   -3.4437 C   0  0  0  0  0  0  0  0  0  0  0  0
   12.7250   30.6424   -3.6078 N   0  0  0  0  0  0  0  0  0  0  0  0
    8.9116   29.6126   -5.0024 C   0  0  0  0  0  0  0  0  0  0  0  0
    8.5015   30.5740   -5.8812 F   0  0  0  0  0  0  0  0  0  0  0  0
    8.8964   28.3437   -5.6040 F   0  0  0  0  0  0  0  0  0  0  0  0
    8.0552   29.5678   -3.8914 F   0  0  0  0  0  0  0  0  0  0  0  0
    9.5431   21.1548    1.3951 C   0  0  0  0  0  0  0  0  0  0  0  0
    8.1802   21.1938    0.7380 C   0  0  0  0  0  0  0  0  0  0  0  0
    7.3553   20.5144    1.8556 C   0  0  0  0  0  0  0  0  0  0  0  0
    8.1072   20.7173    3.0319 N   0  0  0  0  0  0  0  0  0  0  0  0
    9.1847   21.6341    2.7724 C   0  0  0  0  0  0  0  0  0  0  0  0
    7.5471   20.6732    4.2924 C   0  0  0  0  0  0  0  0  0  0  0  0
    6.2868   19.8095    4.4337 C   0  0  0  0  0  0  0  0  0  0  0  0
    5.8664   20.6863    5.4097 O   0  0  0  0  0  0  0  0  0  0  0  0
    6.5121   21.7156    4.6760 C   0  0  0  0  0  0  0  0  0  0  0  0
  1  2  1  0  0  0
  2  3  2  0  0  0
  3  4  1  0  0  0
  4  5  2  0  0  0
  5  6  1  0  0  0
  6  7  1  0  0  0
  7  8  2  0  0  0
  8  9  1  0  0  0
  9 13  1  0  0  0
 13 14  2  0  0  0
 14 15  1  0  0  0
 15 16  2  0  0  0
 16 17  1  0  0  0
 17 18  2  0  0  0
 18 19  1  0  0  0
 16 20  1  0  0  0
 20 21  2  0  0  0
 20 22  1  0  0  0
 22 24  1  0  0  0
 24 25  2  0  0  0
 25 26  1  0  0  0
 26 27  2  0  0  0
 27 28  1  0  0  0
 28 29  2  0  0  0
 26 30  1  0  0  0
 30 31  1  0  0  0
 30 32  1  0  0  0
 30 33  1  0  0  0
  9 10  2  0  0  0
  7 34  1  0  0  0
 34 35  1  0  0  0
 35 36  1  0  0  0
 36 37  1  0  0  0
 37 38  1  0  0  0
 37 39  1  0  0  0
 39 40  1  0  0  0
 40 41  1  0  0  0
 41 42  1  0  0  0
 10  2  1  0  0  0
 38 34  1  0  0  0
 42 39  1  0  0  0
 10  6  1  0  0  0
 18 13  1  0  0  0
 29 24  1  0  0  0
  1 11  1  0  0  0
  1 12  1  0  0  0
 22 23  1  0  0  0
M  END
> <minimizedAffinity>
11.68775

> <CNNscore>
0.4242011309

> <CNNaffinity>
7.6590585709

> <CNN_VS>
3.2489812374

> <CNNaffinity_variance>
1.7441270351

$$$$
[H]c1nc(N([H])C(=O)c2c([H])c([H])c(-c3nc([C@@]4([H])C([H])([H])N(C5([H])C([H])([H])OC5([H])[H])C([H])([H])C4([H])[H])n4c([H])c([H])nc(N([H])[H])c34)c(F)c2[H])c([H])c(C(F)(F)F)c1[H]


 42 47  0  0  0  0  0  0  0  0999 V2000
   14.7901   22.3768   -2.8860 N   0  0  0  0  0  0  0  0  0  0  0  0
   14.0440   21.9054   -1.7854 C   0  0  0  0  0  0  0  0  0  0  0  0
   14.0427   20.5818   -1.4802 N   0  0  0  0  0  0  0  0  0  0  0  0
   13.4015   20.0589   -0.4329 C   0  0  0  0  0  0  0  0  0  0  0  0
   12.7063   20.9309    0.3685 C   0  0  0  0  0  0  0  0  0  0  0  0
   12.6791   22.2477    0.1056 N   0  0  0  0  0  0  0  0  0  0  0  0
   12.0575   23.2553    0.7906 C   0  0  0  0  0  0  0  0  0  0  0  0
   12.3442   24.3731    0.1267 N   0  0  0  0  0  0  0  0  0  0  0  0
   13.1224   24.1412   -0.9569 C   0  0  0  0  0  0  0  0  0  0  0  0
   13.3374   22.7695   -0.9653 C   0  0  0  0  0  0  0  0  0  0  0  0
   14.4289   22.1595   -3.8507 H   0  0  0  0  0  0  0  0  0  0  0  0
   15.6738   22.9031   -2.6799 H   0  0  0  0  0  0  0  0  0  0  0  0
   13.6940   25.0746   -1.9326 C   0  0  0  0  0  0  0  0  0  0  0  0
   15.0051   25.4627   -1.9239 C   0  0  0  0  0  0  0  0  0  0  0  0
   15.4716   26.4141   -2.7980 C   0  0  0  0  0  0  0  0  0  0  0  0
   14.6741   27.0399   -3.7418 C   0  0  0  0  0  0  0  0  0  0  0  0
   13.3436   26.6349   -3.7689 C   0  0  0  0  0  0  0  0  0  0  0  0
   12.8681   25.6827   -2.8916 C   0  0  0  0  0  0  0  0  0  0  0  0
   11.5684   25.2931   -2.9596 F   0  0  0  0  0  0  0  0  0  0  0  0
   15.1379   28.2092   -4.4730 C   0  0  0  0  0  0  0  0  0  0  0  0
   16.2917   27.9390   -5.0773 O   0  0  0  0  0  0  0  0  0  0  0  0
   14.6506   29.4730   -4.6273 N   0  0  0  0  0  0  0  0  0  0  0  0
   15.3403   30.1205   -5.2265 H   0  0  0  0  0  0  0  0  0  0  0  0
   13.4416   30.1255   -4.4276 C   0  0  0  0  0  0  0  0  0  0  0  0
   12.1922   29.5790   -4.5823 C   0  0  0  0  0  0  0  0  0  0  0  0
   11.0948   30.3392   -4.2656 C   0  0  0  0  0  0  0  0  0  0  0  0
   11.2548   31.6196   -3.8018 C   0  0  0  0  0  0  0  0  0  0  0  0
   12.5135   32.1542   -3.6501 C   0  0  0  0  0  0  0  0  0  0  0  0
   13.5503   31.4186   -3.9598 N   0  0  0  0  0  0  0  0  0  0  0  0
    9.7165   29.8227   -4.5094 C   0  0  0  0  0  0  0  0  0  0  0  0
    9.1245   30.4759   -5.5523 F   0  0  0  0  0  0  0  0  0  0  0  0
    9.7375   28.4364   -4.7327 F   0  0  0  0  0  0  0  0  0  0  0  0
    9.0053   30.0522   -3.3213 F   0  0  0  0  0  0  0  0  0  0  0  0
   11.2802   22.9786    1.9858 C   0  0  0  0  0  0  0  0  0  0  0  0
   11.0939   21.5103    2.3027 C   0  0  0  0  0  0  0  0  0  0  0  0
   10.1451   21.6452    3.5162 C   0  0  0  0  0  0  0  0  0  0  0  0
    9.5352   22.9073    3.3578 N   0  0  0  0  0  0  0  0  0  0  0  0
    9.8556   23.4471    2.0635 C   0  0  0  0  0  0  0  0  0  0  0  0
    8.3295   23.2325    3.9452 C   0  0  0  0  0  0  0  0  0  0  0  0
    8.1835   22.8536    5.4249 C   0  0  0  0  0  0  0  0  0  0  0  0
    6.8374   22.6807    5.1871 O   0  0  0  0  0  0  0  0  0  0  0  0
    7.1878   22.2335    3.8864 C   0  0  0  0  0  0  0  0  0  0  0  0
  1  2  1  0  0  0
  2  3  2  0  0  0
  3  4  1  0  0  0
  4  5  2  0  0  0
  5  6  1  0  0  0
  6  7  1  0  0  0
  7  8  2  0  0  0
  8  9  1  0  0  0
  9 13  1  0  0  0
 13 14  2  0  0  0
 14 15  1  0  0  0
 15 16  2  0  0  0
 16 17  1  0  0  0
 17 18  2  0  0  0
 18 19  1  0  0  0
 16 20  1  0  0  0
 20 21  2  0  0  0
 20 22  1  0  0  0
 22 24  1  0  0  0
 24 25  2  0  0  0
 25 26  1  0  0  0
 26 27  2  0  0  0
 27 28  1  0  0  0
 28 29  2  0  0  0
 26 30  1  0  0  0
 30 31  1  0  0  0
 30 32  1  0  0  0
 30 33  1  0  0  0
  9 10  2  0  0  0
  7 34  1  0  0  0
 34 35  1  0  0  0
 35 36  1  0  0  0
 36 37  1  0  0  0
 37 38  1  0  0  0
 37 39  1  0  0  0
 39 40  1  0  0  0
 40 41  1  0  0  0
 41 42  1  0  0  0
 10  2  1  0  0  0
 38 34  1  0  0  0
 42 39  1  0  0  0
 10  6  1  0  0  0
 18 13  1  0  0  0
 29 24  1  0  0  0
  1 11  1  0  0  0
  1 12  1  0  0  0
 22 23  1  0  0  0
M  END
> <minimizedAffinity>
14.85145

> <CNNscore>
0.4168627262

> <CNNaffinity>
7.5975980759

> <CNN_VS>
3.1671555042

> <CNNaffinity_variance>
0.6637309790

$$$$
[H]c1nc(N([H])C(=O)c2c([H])c([H])c(-c3nc([C@@]4([H])C([H])([H])N(C5([H])C([H])([H])OC5([H])[H])C([H])([H])C4([H])[H])n4c([H])c([H])nc(N([H])[H])c34)c(F)c2[H])c([H])c(C(F)(F)F)c1[H]


 42 47  0  0  0  0  0  0  0  0999 V2000
   14.7555   21.4709   -1.9980 N   0  0  0  0  0  0  0  0  0  0  0  0
   13.6409   21.0371   -1.2498 C   0  0  0  0  0  0  0  0  0  0  0  0
   13.1819   19.7660   -1.3863 N   0  0  0  0  0  0  0  0  0  0  0  0
   12.1635   19.2620   -0.6861 C   0  0  0  0  0  0  0  0  0  0  0  0
   11.5577   20.0984    0.2191 C   0  0  0  0  0  0  0  0  0  0  0  0
   11.9772   21.3631    0.3879 N   0  0  0  0  0  0  0  0  0  0  0  0
   11.5088   22.3247    1.2402 C   0  0  0  0  0  0  0  0  0  0  0  0
   12.2676   23.3974    1.0258 N   0  0  0  0  0  0  0  0  0  0  0  0
   13.2072   23.1796    0.0754 C   0  0  0  0  0  0  0  0  0  0  0  0
   13.0174   21.8658   -0.3317 C   0  0  0  0  0  0  0  0  0  0  0  0
   14.6182   21.6361   -3.0286 H   0  0  0  0  0  0  0  0  0  0  0  0
   15.6640   21.5873   -1.4867 H   0  0  0  0  0  0  0  0  0  0  0  0
   14.2592   24.0619   -0.4394 C   0  0  0  0  0  0  0  0  0  0  0  0
   14.0143   25.1181   -1.2725 C   0  0  0  0  0  0  0  0  0  0  0  0
   15.0420   25.8564   -1.8068 C   0  0  0  0  0  0  0  0  0  0  0  0
   16.3788   25.6027   -1.5480 C   0  0  0  0  0  0  0  0  0  0  0  0
   16.6337   24.5417   -0.6853 C   0  0  0  0  0  0  0  0  0  0  0  0
   15.6065   23.7942   -0.1482 C   0  0  0  0  0  0  0  0  0  0  0  0
   15.8888   22.7788    0.7090 F   0  0  0  0  0  0  0  0  0  0  0  0
   17.4358   26.2382   -2.3199 C   0  0  0  0  0  0  0  0  0  0  0  0
   18.5819   26.1904   -1.6463 O   0  0  0  0  0  0  0  0  0  0  0  0
   17.4665   26.8639   -3.5308 N   0  0  0  0  0  0  0  0  0  0  0  0
   18.4767   27.2890   -3.7602 H   0  0  0  0  0  0  0  0  0  0  0  0
   16.6530   26.9420   -4.6531 C   0  0  0  0  0  0  0  0  0  0  0  0
   16.4905   25.9657   -5.6039 C   0  0  0  0  0  0  0  0  0  0  0  0
   15.5832   26.1706   -6.6126 C   0  0  0  0  0  0  0  0  0  0  0  0
   14.8559   27.3320   -6.6592 C   0  0  0  0  0  0  0  0  0  0  0  0
   15.0281   28.3017   -5.6982 C   0  0  0  0  0  0  0  0  0  0  0  0
   15.8996   28.0938   -4.7446 N   0  0  0  0  0  0  0  0  0  0  0  0
   15.4429   25.1817   -7.7210 C   0  0  0  0  0  0  0  0  0  0  0  0
   16.4041   24.2150   -7.6414 F   0  0  0  0  0  0  0  0  0  0  0  0
   14.1586   24.6135   -7.7204 F   0  0  0  0  0  0  0  0  0  0  0  0
   15.5838   25.9152   -8.9093 F   0  0  0  0  0  0  0  0  0  0  0  0
   10.3955   22.0549    2.1332 C   0  0  0  0  0  0  0  0  0  0  0  0
    9.2703   21.2444    1.5268 C   0  0  0  0  0  0  0  0  0  0  0  0
    8.2753   21.2928    2.7094 C   0  0  0  0  0  0  0  0  0  0  0  0
    8.6442   22.4395    3.4436 N   0  0  0  0  0  0  0  0  0  0  0  0
    9.6143   23.2027    2.7050 C   0  0  0  0  0  0  0  0  0  0  0  0
    7.7748   23.0936    4.2926 C   0  0  0  0  0  0  0  0  0  0  0  0
    7.1901   24.4105    3.7652 C   0  0  0  0  0  0  0  0  0  0  0  0
    7.1536   24.8491    5.0708 O   0  0  0  0  0  0  0  0  0  0  0  0
    8.3320   24.0898    5.2936 C   0  0  0  0  0  0  0  0  0  0  0  0
  1  2  1  0  0  0
  2  3  2  0  0  0
  3  4  1  0  0  0
  4  5  2  0  0  0
  5  6  1  0  0  0
  6  7  1  0  0  0
  7  8  2  0  0  0
  8  9  1  0  0  0
  9 13  1  0  0  0
 13 14  2  0  0  0
 14 15  1  0  0  0
 15 16  2  0  0  0
 16 17  1  0  0  0
 17 18  2  0  0  0
 18 19  1  0  0  0
 16 20  1  0  0  0
 20 21  2  0  0  0
 20 22  1  0  0  0
 22 24  1  0  0  0
 24 25  2  0  0  0
 25 26  1  0  0  0
 26 27  2  0  0  0
 27 28  1  0  0  0
 28 29  2  0  0  0
 26 30  1  0  0  0
 30 31  1  0  0  0
 30 32  1  0  0  0
 30 33  1  0  0  0
  9 10  2  0  0  0
  7 34  1  0  0  0
 34 35  1  0  0  0
 35 36  1  0  0  0
 36 37  1  0  0  0
 37 38  1  0  0  0
 37 39  1  0  0  0
 39 40  1  0  0  0
 40 41  1  0  0  0
 41 42  1  0  0  0
 10  2  1  0  0  0
 38 34  1  0  0  0
 42 39  1  0  0  0
 10  6  1  0  0  0
 18 13  1  0  0  0
 29 24  1  0  0  0
  1 11  1  0  0  0
  1 12  1  0  0  0
 22 23  1  0  0  0
M  END
> <minimizedAffinity>
3.10471

> <CNNscore>
0.4106869698

> <CNNaffinity>
7.9562225342

> <CNN_VS>
3.2675168514

> <CNNaffinity_variance>
1.0435498953

$$$$
[H]c1nc(N([H])C(=O)c2c([H])c([H])c(-c3nc([C@@]4([H])C([H])([H])N(C5([H])C([H])([H])OC5([H])[H])C([H])([H])C4([H])[H])n4c([H])c([H])nc(N([H])[H])c34)c(F)c2[H])c([H])c(C(F)(F)F)c1[H]


 42 47  0  0  0  0  0  0  0  0999 V2000
   13.0943   25.4329    1.4813 N   0  0  0  0  0  0  0  0  0  0  0  0
   11.9680   24.5841    1.5157 C   0  0  0  0  0  0  0  0  0  0  0  0
   10.9811   24.7984    2.4241 N   0  0  0  0  0  0  0  0  0  0  0  0
    9.8637   24.0720    2.4962 C   0  0  0  0  0  0  0  0  0  0  0  0
    9.7271   23.0506    1.5885 C   0  0  0  0  0  0  0  0  0  0  0  0
   10.6771   22.8013    0.6723 N   0  0  0  0  0  0  0  0  0  0  0  0
   10.7075   21.8463   -0.3064 C   0  0  0  0  0  0  0  0  0  0  0  0
   11.8594   22.0253   -0.9493 N   0  0  0  0  0  0  0  0  0  0  0  0
   12.5796   23.0508   -0.4361 C   0  0  0  0  0  0  0  0  0  0  0  0
   11.8123   23.5494    0.6081 C   0  0  0  0  0  0  0  0  0  0  0  0
   13.7976   25.3439    2.2596 H   0  0  0  0  0  0  0  0  0  0  0  0
   13.1577   26.1182    0.6897 H   0  0  0  0  0  0  0  0  0  0  0  0
   13.8697   23.6080   -0.8547 C   0  0  0  0  0  0  0  0  0  0  0  0
   14.9235   23.7882   -0.0023 C   0  0  0  0  0  0  0  0  0  0  0  0
   16.0786   24.4041   -0.4188 C   0  0  0  0  0  0  0  0  0  0  0  0
   16.2697   24.8768   -1.7065 C   0  0  0  0  0  0  0  0  0  0  0  0
   15.2086   24.6787   -2.5839 C   0  0  0  0  0  0  0  0  0  0  0  0
   14.0448   24.0641   -2.1711 C   0  0  0  0  0  0  0  0  0  0  0  0
   13.0361   23.8656   -3.0591 F   0  0  0  0  0  0  0  0  0  0  0  0
   17.3940   25.7380   -2.0404 C   0  0  0  0  0  0  0  0  0  0  0  0
   18.4286   25.4607   -1.2516 O   0  0  0  0  0  0  0  0  0  0  0  0
   17.5702   26.7416   -2.9461 N   0  0  0  0  0  0  0  0  0  0  0  0
   18.5792   27.2188   -2.8556 H   0  0  0  0  0  0  0  0  0  0  0  0
   16.9289   27.2013   -4.0884 C   0  0  0  0  0  0  0  0  0  0  0  0
   16.0071   26.5087   -4.8328 C   0  0  0  0  0  0  0  0  0  0  0  0
   15.4049   27.1396   -5.8919 C   0  0  0  0  0  0  0  0  0  0  0  0
   15.7238   28.4391   -6.1910 C   0  0  0  0  0  0  0  0  0  0  0  0
   16.6487   29.1220   -5.4351 C   0  0  0  0  0  0  0  0  0  0  0  0
   17.2175   28.5060   -4.4306 N   0  0  0  0  0  0  0  0  0  0  0  0
   14.4706   26.3972   -6.7874 C   0  0  0  0  0  0  0  0  0  0  0  0
   15.1563   25.6253   -7.6813 F   0  0  0  0  0  0  0  0  0  0  0  0
   13.5751   25.6190   -6.0360 F   0  0  0  0  0  0  0  0  0  0  0  0
   13.7235   27.3772   -7.4593 F   0  0  0  0  0  0  0  0  0  0  0  0
    9.6126   20.9058   -0.4680 C   0  0  0  0  0  0  0  0  0  0  0  0
    8.3602   21.4823   -1.0924 C   0  0  0  0  0  0  0  0  0  0  0  0
    7.4393   20.2463   -0.9684 C   0  0  0  0  0  0  0  0  0  0  0  0
    7.9948   19.4876    0.0833 N   0  0  0  0  0  0  0  0  0  0  0  0
    9.0221   20.2464    0.7451 C   0  0  0  0  0  0  0  0  0  0  0  0
    7.2639   18.5669    0.8061 C   0  0  0  0  0  0  0  0  0  0  0  0
    5.8973   19.0475    1.3120 C   0  0  0  0  0  0  0  0  0  0  0  0
    6.0685   18.2101    2.3926 O   0  0  0  0  0  0  0  0  0  0  0  0
    7.4578   18.4888    2.3099 C   0  0  0  0  0  0  0  0  0  0  0  0
  1  2  1  0  0  0
  2  3  2  0  0  0
  3  4  1  0  0  0
  4  5  2  0  0  0
  5  6  1  0  0  0
  6  7  1  0  0  0
  7  8  2  0  0  0
  8  9  1  0  0  0
  9 13  1  0  0  0
 13 14  2  0  0  0
 14 15  1  0  0  0
 15 16  2  0  0  0
 16 17  1  0  0  0
 17 18  2  0  0  0
 18 19  1  0  0  0
 16 20  1  0  0  0
 20 21  2  0  0  0
 20 22  1  0  0  0
 22 24  1  0  0  0
 24 25  2  0  0  0
 25 26  1  0  0  0
 26 27  2  0  0  0
 27 28  1  0  0  0
 28 29  2  0  0  0
 26 30  1  0  0  0
 30 31  1  0  0  0
 30 32  1  0  0  0
 30 33  1  0  0  0
  9 10  2  0  0  0
  7 34  1  0  0  0
 34 35  1  0  0  0
 35 36  1  0  0  0
 36 37  1  0  0  0
 37 38  1  0  0  0
 37 39  1  0  0  0
 39 40  1  0  0  0
 40 41  1  0  0  0
 41 42  1  0  0  0
 10  2  1  0  0  0
 38 34  1  0  0  0
 42 39  1  0  0  0
 10  6  1  0  0  0
 18 13  1  0  0  0
 29 24  1  0  0  0
  1 11  1  0  0  0
  1 12  1  0  0  0
 22 23  1  0  0  0
M  END
> <minimizedAffinity>
9.86496

> <CNNscore>
0.4027945995

> <CNNaffinity>
7.6767220497

> <CNN_VS>
3.0921421051

> <CNNaffinity_variance>
1.1907526255

$$$$
[H]/C(C(=O)N([H])[C@@]12C([H])([H])C([H])([H])C(=O)[C@]3([H])Oc4c(N=C(N([H])[H])N([H])[H])c([H])c([H])c5c4[C@]13C([H])([H])C([H])([H])N(C([H])([H])C1([H])C([H])([H])C1([H])[H])C2([H])C5([H])[H])=C(/[H])c1c([H])oc([H])c1[H]


 42 48  0  0  0  0  0  0  0  0999 V2000
   15.7059   25.2513   -3.5184 C   0  0  0  0  0  0  0  0  0  0  0  0
   16.0010   24.0122   -4.0685 C   0  0  0  0  0  0  0  0  0  0  0  0
   15.4084   22.8543   -3.5524 C   0  0  0  0  0  0  0  0  0  0  0  0
   14.5391   22.9578   -2.5029 C   0  0  0  0  0  0  0  0  0  0  0  0
   13.8567   21.7943   -1.9151 C   0  0  0  0  0  0  0  0  0  0  0  0
   13.0319   22.1061   -0.7495 C   0  0  0  0  0  0  0  0  0  0  0  0
   13.6358   22.0427    0.5154 N   0  0  0  0  0  0  0  0  0  0  0  0
   14.3772   23.1041    1.0267 C   0  0  0  0  0  0  0  0  0  0  0  0
   14.2069   24.4367    0.4094 C   0  0  0  0  0  0  0  0  0  0  0  0
   13.3672   24.4704   -0.8179 C   0  0  0  0  0  0  0  0  0  0  0  0
   12.9995   25.8729   -1.2607 C   0  0  0  0  0  0  0  0  0  0  0  0
   14.3158   26.3588   -1.6991 O   0  0  0  0  0  0  0  0  0  0  0  0
   14.8358   25.3269   -2.4734 C   0  0  0  0  0  0  0  0  0  0  0  0
   14.2672   24.1647   -1.9832 C   0  0  0  0  0  0  0  0  0  0  0  0
   12.2302   25.7919   -2.5351 C   0  0  0  0  0  0  0  0  0  0  0  0
   12.4018   26.6700   -3.3562 O   0  0  0  0  0  0  0  0  0  0  0  0
   11.2842   24.6869   -2.8093 C   0  0  0  0  0  0  0  0  0  0  0  0
   11.4547   23.4420   -2.0376 C   0  0  0  0  0  0  0  0  0  0  0  0
   12.2715   23.4711   -0.8036 C   0  0  0  0  0  0  0  0  0  0  0  0
   17.5797   28.3175   -4.2670 N   0  0  0  0  0  0  0  0  0  0  0  0
   17.0325   27.2576   -3.4922 C   0  0  0  0  0  0  0  0  0  0  0  0
   17.2368   27.1529   -2.1008 N   0  0  0  0  0  0  0  0  0  0  0  0
   16.3411   26.3831   -4.0860 N   0  0  0  0  0  0  0  0  0  0  0  0
   17.0212   29.2028   -4.3601 H   0  0  0  0  0  0  0  0  0  0  0  0
   18.4941   28.2722   -4.7458 H   0  0  0  0  0  0  0  0  0  0  0  0
   17.3354   27.9939   -1.5120 H   0  0  0  0  0  0  0  0  0  0  0  0
   17.2882   26.2179   -1.6669 H   0  0  0  0  0  0  0  0  0  0  0  0
   11.5030   23.4073    0.4378 N   0  0  0  0  0  0  0  0  0  0  0  0
   10.1596   23.7009    0.6712 C   0  0  0  0  0  0  0  0  0  0  0  0
    9.4293   24.0787   -0.3018 O   0  0  0  0  0  0  0  0  0  0  0  0
   12.0036   23.0910    1.3430 H   0  0  0  0  0  0  0  0  0  0  0  0
    9.4942   23.6152    1.9522 C   0  0  0  0  0  0  0  0  0  0  0  0
    8.2225   23.8664    2.1217 C   0  0  0  0  0  0  0  0  0  0  0  0
    7.6032   23.7586    3.4672 C   0  0  0  0  0  0  0  0  0  0  0  0
    7.6014   22.6344    4.2478 C   0  0  0  0  0  0  0  0  0  0  0  0
    6.9231   22.9523    5.4215 C   0  0  0  0  0  0  0  0  0  0  0  0
    6.5552   24.1995    5.3152 O   0  0  0  0  0  0  0  0  0  0  0  0
    6.9364   24.7272    4.1675 C   0  0  0  0  0  0  0  0  0  0  0  0
   13.7183   20.7908    1.1524 C   0  0  0  0  0  0  0  0  0  0  0  0
   12.4255   20.0686    1.3209 C   0  0  0  0  0  0  0  0  0  0  0  0
   11.1845   20.7855    0.9259 C   0  0  0  0  0  0  0  0  0  0  0  0
   11.5056   20.6188    2.3816 C   0  0  0  0  0  0  0  0  0  0  0  0
 20 21  1  0  0  0
 21 22  1  0  0  0
 21 23  2  0  0  0
 23  1  1  0  0  0
  1  2  2  0  0  0
  2  3  1  0  0  0
  3  4  2  0  0  0
  4  5  1  0  0  0
  5  6  1  0  0  0
  6  7  1  0  0  0
  7 39  1  0  0  0
 39 40  1  0  0  0
 40 41  1  0  0  0
 41 42  1  0  0  0
  7  8  1  0  0  0
  8  9  1  0  0  0
 10  9  1  0  0  0
 10 11  1  0  0  0
 11 12  1  0  0  0
 12 13  1  0  0  0
 13 14  2  0  0  0
 11 15  1  0  0  0
 15 16  2  0  0  0
 15 17  1  0  0  0
 17 18  1  0  0  0
 18 19  1  0  0  0
 19 28  1  0  0  0
 28 29  1  0  0  0
 29 30  2  0  0  0
 29 32  1  0  0  0
 32 33  2  0  0  0
 33 34  1  0  0  0
 34 35  1  0  0  0
 35 36  2  0  0  0
 36 37  1  0  0  0
 37 38  1  0  0  0
 13  1  1  0  0  0
 38 34  2  0  0  0
 14  4  1  0  0  0
 19  6  1  0  0  0
 42 40  1  0  0  0
 14 10  1  0  0  0
 19 10  1  0  0  0
 20 24  1  0  0  0
 20 25  1  0  0  0
 22 26  1  0  0  0
 22 27  1  0  0  0
 28 31  1  0  0  0
M  END
> <minimizedAffinity>
-2.96797

> <CNNscore>
0.5378965139

> <CNNaffinity>
7.9113988876

> <CNN_VS>
4.2555136681

> <CNNaffinity_variance>
0.3456244469

$$$$
[H]/C(C(=O)N([H])[C@@]12C([H])([H])C([H])([H])C(=O)[C@]3([H])Oc4c(N=C(N([H])[H])N([H])[H])c([H])c([H])c5c4[C@]13C([H])([H])C([H])([H])N(C([H])([H])C1([H])C([H])([H])C1([H])[H])C2([H])C5([H])[H])=C(/[H])c1c([H])oc([H])c1[H]


 42 48  0  0  0  0  0  0  0  0999 V2000
   13.0155   21.9547    0.7520 C   0  0  0  0  0  0  0  0  0  0  0  0
   13.7757   20.8865    0.2981 C   0  0  0  0  0  0  0  0  0  0  0  0
   14.6670   21.0597   -0.7668 C   0  0  0  0  0  0  0  0  0  0  0  0
   14.7788   22.2892   -1.3531 C   0  0  0  0  0  0  0  0  0  0  0  0
   15.7062   22.5622   -2.4622 C   0  0  0  0  0  0  0  0  0  0  0  0
   15.6155   23.9171   -3.0027 C   0  0  0  0  0  0  0  0  0  0  0  0
   14.7214   24.1413   -4.0605 N   0  0  0  0  0  0  0  0  0  0  0  0
   13.3670   24.3723   -3.8378 C   0  0  0  0  0  0  0  0  0  0  0  0
   12.9396   24.7652   -2.4780 C   0  0  0  0  0  0  0  0  0  0  0  0
   13.9991   24.7153   -1.4352 C   0  0  0  0  0  0  0  0  0  0  0  0
   13.5953   25.3741   -0.1309 C   0  0  0  0  0  0  0  0  0  0  0  0
   12.5740   24.4242    0.3331 O   0  0  0  0  0  0  0  0  0  0  0  0
   13.1462   23.1696    0.1506 C   0  0  0  0  0  0  0  0  0  0  0  0
   14.0341   23.3099   -0.9013 C   0  0  0  0  0  0  0  0  0  0  0  0
   14.6938   25.1967    0.8612 C   0  0  0  0  0  0  0  0  0  0  0  0
   14.3848   25.0310    2.0239 O   0  0  0  0  0  0  0  0  0  0  0  0
   16.1193   25.2189    0.4627 C   0  0  0  0  0  0  0  0  0  0  0  0
   16.4313   24.9487   -0.9529 C   0  0  0  0  0  0  0  0  0  0  0  0
   15.3474   25.0471   -1.9560 C   0  0  0  0  0  0  0  0  0  0  0  0
   10.1960   21.2547    2.9957 N   0  0  0  0  0  0  0  0  0  0  0  0
   10.8930   21.4690    1.7745 C   0  0  0  0  0  0  0  0  0  0  0  0
   10.2539   21.4176    0.5185 N   0  0  0  0  0  0  0  0  0  0  0  0
   12.1313   21.7117    1.8318 N   0  0  0  0  0  0  0  0  0  0  0  0
    9.7437   22.0819    3.4598 H   0  0  0  0  0  0  0  0  0  0  0  0
   10.1060   20.3346    3.4570 H   0  0  0  0  0  0  0  0  0  0  0  0
    9.2705   21.7086    0.4088 H   0  0  0  0  0  0  0  0  0  0  0  0
   10.7811   21.0827   -0.3032 H   0  0  0  0  0  0  0  0  0  0  0  0
   15.4114   26.2324   -2.8083 N   0  0  0  0  0  0  0  0  0  0  0  0
   16.5171   26.9767   -3.2197 C   0  0  0  0  0  0  0  0  0  0  0  0
   17.6800   26.6207   -2.8404 O   0  0  0  0  0  0  0  0  0  0  0  0
   14.4904   26.6360   -3.2071 H   0  0  0  0  0  0  0  0  0  0  0  0
   16.4695   28.1510   -4.0620 C   0  0  0  0  0  0  0  0  0  0  0  0
   16.0384   28.1355   -5.2961 C   0  0  0  0  0  0  0  0  0  0  0  0
   16.0169   29.3805   -6.1053 C   0  0  0  0  0  0  0  0  0  0  0  0
   15.3063   30.5094   -5.7987 C   0  0  0  0  0  0  0  0  0  0  0  0
   15.5587   31.4378   -6.8052 C   0  0  0  0  0  0  0  0  0  0  0  0
   16.3751   30.8653   -7.6465 O   0  0  0  0  0  0  0  0  0  0  0  0
   16.6798   29.6364   -7.2751 C   0  0  0  0  0  0  0  0  0  0  0  0
   15.1532   23.8579   -5.3694 C   0  0  0  0  0  0  0  0  0  0  0  0
   15.8042   24.9881   -6.0906 C   0  0  0  0  0  0  0  0  0  0  0  0
   14.9218   26.0605   -6.6210 C   0  0  0  0  0  0  0  0  0  0  0  0
   15.5218   25.0657   -7.5698 C   0  0  0  0  0  0  0  0  0  0  0  0
 20 21  1  0  0  0
 21 22  1  0  0  0
 21 23  2  0  0  0
 23  1  1  0  0  0
  1  2  2  0  0  0
  2  3  1  0  0  0
  3  4  2  0  0  0
  4  5  1  0  0  0
  5  6  1  0  0  0
  6  7  1  0  0  0
  7 39  1  0  0  0
 39 40  1  0  0  0
 40 41  1  0  0  0
 41 42  1  0  0  0
  7  8  1  0  0  0
  8  9  1  0  0  0
 10  9  1  0  0  0
 10 11  1  0  0  0
 11 12  1  0  0  0
 12 13  1  0  0  0
 13 14  2  0  0  0
 11 15  1  0  0  0
 15 16  2  0  0  0
 15 17  1  0  0  0
 17 18  1  0  0  0
 18 19  1  0  0  0
 19 28  1  0  0  0
 28 29  1  0  0  0
 29 30  2  0  0  0
 29 32  1  0  0  0
 32 33  2  0  0  0
 33 34  1  0  0  0
 34 35  1  0  0  0
 35 36  2  0  0  0
 36 37  1  0  0  0
 37 38  1  0  0  0
 13  1  1  0  0  0
 38 34  2  0  0  0
 14  4  1  0  0  0
 19  6  1  0  0  0
 42 40  1  0  0  0
 14 10  1  0  0  0
 19 10  1  0  0  0
 20 24  1  0  0  0
 20 25  1  0  0  0
 22 26  1  0  0  0
 22 27  1  0  0  0
 28 31  1  0  0  0
M  END
> <minimizedAffinity>
10.94621

> <CNNscore>
0.4774780869

> <CNNaffinity>
7.4956216812

> <CNN_VS>
3.5789949894

> <CNNaffinity_variance>
0.8433659673

$$$$
[H]/C(C(=O)N([H])[C@@]12C([H])([H])C([H])([H])C(=O)[C@]3([H])Oc4c(N=C(N([H])[H])N([H])[H])c([H])c([H])c5c4[C@]13C([H])([H])C([H])([H])N(C([H])([H])C1([H])C([H])([H])C1([H])[H])C2([H])C5([H])[H])=C(/[H])c1c([H])oc([H])c1[H]


 42 48  0  0  0  0  0  0  0  0999 V2000
   16.6319   26.1591   -1.7862 C   0  0  0  0  0  0  0  0  0  0  0  0
   17.2274   25.7491   -0.6020 C   0  0  0  0  0  0  0  0  0  0  0  0
   16.6084   24.7825    0.1987 C   0  0  0  0  0  0  0  0  0  0  0  0
   15.4140   24.2496   -0.1977 C   0  0  0  0  0  0  0  0  0  0  0  0
   14.7078   23.2144    0.5733 C   0  0  0  0  0  0  0  0  0  0  0  0
   13.4077   22.8362    0.0229 C   0  0  0  0  0  0  0  0  0  0  0  0
   12.2793   23.5435    0.4644 N   0  0  0  0  0  0  0  0  0  0  0  0
   11.9171   24.7663   -0.0934 C   0  0  0  0  0  0  0  0  0  0  0  0
   12.4918   25.1333   -1.4053 C   0  0  0  0  0  0  0  0  0  0  0  0
   13.5388   24.2134   -1.9248 C   0  0  0  0  0  0  0  0  0  0  0  0
   13.9048   24.4702   -3.3734 C   0  0  0  0  0  0  0  0  0  0  0  0
   14.5836   25.7675   -3.2422 O   0  0  0  0  0  0  0  0  0  0  0  0
   15.4417   25.6118   -2.1586 C   0  0  0  0  0  0  0  0  0  0  0  0
   14.8528   24.6597   -1.3454 C   0  0  0  0  0  0  0  0  0  0  0  0
   15.0114   23.5505   -3.7632 C   0  0  0  0  0  0  0  0  0  0  0  0
   15.8504   23.9699   -4.5345 O   0  0  0  0  0  0  0  0  0  0  0  0
   15.1021   22.1690   -3.2393 C   0  0  0  0  0  0  0  0  0  0  0  0
   14.3760   21.8687   -1.9915 C   0  0  0  0  0  0  0  0  0  0  0  0
   13.3180   22.7989   -1.5375 C   0  0  0  0  0  0  0  0  0  0  0  0
   17.9057   28.4884   -4.3210 N   0  0  0  0  0  0  0  0  0  0  0  0
   17.0978   27.4656   -3.7513 C   0  0  0  0  0  0  0  0  0  0  0  0
   16.0804   26.8119   -4.4767 N   0  0  0  0  0  0  0  0  0  0  0  0
   17.3094   27.1419   -2.5489 N   0  0  0  0  0  0  0  0  0  0  0  0
   18.7808   28.2037   -4.8283 H   0  0  0  0  0  0  0  0  0  0  0  0
   17.6862   29.4966   -4.2673 H   0  0  0  0  0  0  0  0  0  0  0  0
   16.1661   26.6566   -5.4927 H   0  0  0  0  0  0  0  0  0  0  0  0
   15.2369   26.4845   -3.9803 H   0  0  0  0  0  0  0  0  0  0  0  0
   11.9541   22.3081   -1.7230 N   0  0  0  0  0  0  0  0  0  0  0  0
   11.3505   21.1470   -1.2402 C   0  0  0  0  0  0  0  0  0  0  0  0
   12.0294   20.3521   -0.5120 O   0  0  0  0  0  0  0  0  0  0  0  0
   11.2668   22.8955   -2.3169 H   0  0  0  0  0  0  0  0  0  0  0  0
    9.9848   20.7454   -1.4943 C   0  0  0  0  0  0  0  0  0  0  0  0
    9.3977   19.7557   -0.8741 C   0  0  0  0  0  0  0  0  0  0  0  0
    7.9905   19.3969   -1.1850 C   0  0  0  0  0  0  0  0  0  0  0  0
    7.2585   19.9013   -2.2257 C   0  0  0  0  0  0  0  0  0  0  0  0
    5.9986   19.3117   -2.1635 C   0  0  0  0  0  0  0  0  0  0  0  0
    6.0115   18.5086   -1.1354 O   0  0  0  0  0  0  0  0  0  0  0  0
    7.1769   18.5223   -0.5168 C   0  0  0  0  0  0  0  0  0  0  0  0
   11.6688   23.1409    1.6666 C   0  0  0  0  0  0  0  0  0  0  0  0
   10.1886   23.3059    1.7228 C   0  0  0  0  0  0  0  0  0  0  0  0
    9.5730   23.5094    3.0606 C   0  0  0  0  0  0  0  0  0  0  0  0
    9.4323   22.1796    2.3811 C   0  0  0  0  0  0  0  0  0  0  0  0
 20 21  1  0  0  0
 21 22  1  0  0  0
 21 23  2  0  0  0
 23  1  1  0  0  0
  1  2  2  0  0  0
  2  3  1  0  0  0
  3  4  2  0  0  0
  4  5  1  0  0  0
  5  6  1  0  0  0
  6  7  1  0  0  0
  7 39  1  0  0  0
 39 40  1  0  0  0
 40 41  1  0  0  0
 41 42  1  0  0  0
  7  8  1  0  0  0
  8  9  1  0  0  0
 10  9  1  0  0  0
 10 11  1  0  0  0
 11 12  1  0  0  0
 12 13  1  0  0  0
 13 14  2  0  0  0
 11 15  1  0  0  0
 15 16  2  0  0  0
 15 17  1  0  0  0
 17 18  1  0  0  0
 18 19  1  0  0  0
 19 28  1  0  0  0
 28 29  1  0  0  0
 29 30  2  0  0  0
 29 32  1  0  0  0
 32 33  2  0  0  0
 33 34  1  0  0  0
 34 35  1  0  0  0
 35 36  2  0  0  0
 36 37  1  0  0  0
 37 38  1  0  0  0
 13  1  1  0  0  0
 38 34  2  0  0  0
 14  4  1  0  0  0
 19  6  1  0  0  0
 42 40  1  0  0  0
 14 10  1  0  0  0
 19 10  1  0  0  0
 20 24  1  0  0  0
 20 25  1  0  0  0
 22 26  1  0  0  0
 22 27  1  0  0  0
 28 31  1  0  0  0
M  END
> <minimizedAffinity>
-7.33581

> <CNNscore>
0.4505499899

> <CNNaffinity>
7.9460358620

> <CNN_VS>
3.5800864697

> <CNNaffinity_variance>
0.3866338730

$$$$
[H]/C(C(=O)N([H])[C@@]12C([H])([H])C([H])([H])C(=O)[C@]3([H])Oc4c(N=C(N([H])[H])N([H])[H])c([H])c([H])c5c4[C@]13C([H])([H])C([H])([H])N(C([H])([H])C1([H])C([H])([H])C1([H])[H])C2([H])C5([H])[H])=C(/[H])c1c([H])oc([H])c1[H]


 42 48  0  0  0  0  0  0  0  0999 V2000
   14.4573   26.0139   -5.0471 C   0  0  0  0  0  0  0  0  0  0  0  0
   13.2085   26.5613   -4.7902 C   0  0  0  0  0  0  0  0  0  0  0  0
   12.6368   26.4430   -3.5183 C   0  0  0  0  0  0  0  0  0  0  0  0
   13.3204   25.7833   -2.5357 C   0  0  0  0  0  0  0  0  0  0  0  0
   12.8017   25.6327   -1.1671 C   0  0  0  0  0  0  0  0  0  0  0  0
   13.6458   24.8245   -0.2893 C   0  0  0  0  0  0  0  0  0  0  0  0
   13.4028   23.4436   -0.2374 N   0  0  0  0  0  0  0  0  0  0  0  0
   13.9284   22.5716   -1.1865 C   0  0  0  0  0  0  0  0  0  0  0  0
   15.0539   23.0432   -2.0211 C   0  0  0  0  0  0  0  0  0  0  0  0
   15.4068   24.4798   -1.8664 C   0  0  0  0  0  0  0  0  0  0  0  0
   16.7187   24.8549   -2.5271 C   0  0  0  0  0  0  0  0  0  0  0  0
   16.3445   24.7158   -3.9418 O   0  0  0  0  0  0  0  0  0  0  0  0
   15.1176   25.3620   -4.0503 C   0  0  0  0  0  0  0  0  0  0  0  0
   14.5262   25.2594   -2.8036 C   0  0  0  0  0  0  0  0  0  0  0  0
   16.9326   26.3228   -2.3794 C   0  0  0  0  0  0  0  0  0  0  0  0
   17.4711   26.9110   -3.2953 O   0  0  0  0  0  0  0  0  0  0  0  0
   16.5106   27.0569   -1.1652 C   0  0  0  0  0  0  0  0  0  0  0  0
   15.4748   26.4324   -0.3218 C   0  0  0  0  0  0  0  0  0  0  0  0
   15.1872   24.9904   -0.4915 C   0  0  0  0  0  0  0  0  0  0  0  0
   16.0133   25.6749   -8.3542 N   0  0  0  0  0  0  0  0  0  0  0  0
   15.5701   25.2987   -7.0561 C   0  0  0  0  0  0  0  0  0  0  0  0
   15.7664   24.0033   -6.5346 N   0  0  0  0  0  0  0  0  0  0  0  0
   14.9781   26.1672   -6.3555 N   0  0  0  0  0  0  0  0  0  0  0  0
   16.9927   26.0418   -8.4565 H   0  0  0  0  0  0  0  0  0  0  0  0
   15.4317   25.6104   -9.2057 H   0  0  0  0  0  0  0  0  0  0  0  0
   16.5964   23.4466   -6.7893 H   0  0  0  0  0  0  0  0  0  0  0  0
   15.0664   23.6079   -5.8875 H   0  0  0  0  0  0  0  0  0  0  0  0
   15.6984   24.1368    0.5789 N   0  0  0  0  0  0  0  0  0  0  0  0
   17.0117   23.9170    0.9942 C   0  0  0  0  0  0  0  0  0  0  0  0
   17.9598   24.5276    0.4016 O   0  0  0  0  0  0  0  0  0  0  0  0
   14.9944   23.5662    1.1695 H   0  0  0  0  0  0  0  0  0  0  0  0
   17.4141   23.0347    2.0669 C   0  0  0  0  0  0  0  0  0  0  0  0
   16.8664   21.8677    2.2836 C   0  0  0  0  0  0  0  0  0  0  0  0
   17.3296   21.0115    3.4052 C   0  0  0  0  0  0  0  0  0  0  0  0
   17.5962   21.4489    4.6744 C   0  0  0  0  0  0  0  0  0  0  0  0
   18.0005   20.3399    5.4130 C   0  0  0  0  0  0  0  0  0  0  0  0
   17.9661   19.3179    4.6028 O   0  0  0  0  0  0  0  0  0  0  0  0
   17.5722   19.6646    3.3922 C   0  0  0  0  0  0  0  0  0  0  0  0
   12.3946   22.9765    0.6258 C   0  0  0  0  0  0  0  0  0  0  0  0
   12.3324   21.4977    0.8011 C   0  0  0  0  0  0  0  0  0  0  0  0
   11.0446   20.9169    1.2638 C   0  0  0  0  0  0  0  0  0  0  0  0
   12.1933   21.0157    2.2232 C   0  0  0  0  0  0  0  0  0  0  0  0
 20 21  1  0  0  0
 21 22  1  0  0  0
 21 23  2  0  0  0
 23  1  1  0  0  0
  1  2  2  0  0  0
  2  3  1  0  0  0
  3  4  2  0  0  0
  4  5  1  0  0  0
  5  6  1  0  0  0
  6  7  1  0  0  0
  7 39  1  0  0  0
 39 40  1  0  0  0
 40 41  1  0  0  0
 41 42  1  0  0  0
  7  8  1  0  0  0
  8  9  1  0  0  0
 10  9  1  0  0  0
 10 11  1  0  0  0
 11 12  1  0  0  0
 12 13  1  0  0  0
 13 14  2  0  0  0
 11 15  1  0  0  0
 15 16  2  0  0  0
 15 17  1  0  0  0
 17 18  1  0  0  0
 18 19  1  0  0  0
 19 28  1  0  0  0
 28 29  1  0  0  0
 29 30  2  0  0  0
 29 32  1  0  0  0
 32 33  2  0  0  0
 33 34  1  0  0  0
 34 35  1  0  0  0
 35 36  2  0  0  0
 36 37  1  0  0  0
 37 38  1  0  0  0
 13  1  1  0  0  0
 38 34  2  0  0  0
 14  4  1  0  0  0
 19  6  1  0  0  0
 42 40  1  0  0  0
 14 10  1  0  0  0
 19 10  1  0  0  0
 20 24  1  0  0  0
 20 25  1  0  0  0
 22 26  1  0  0  0
 22 27  1  0  0  0
 28 31  1  0  0  0
M  END
> <minimizedAffinity>
30.12665

> <CNNscore>
0.3863449097

> <CNNaffinity>
7.4702978134

> <CNN_VS>
2.8861114979

> <CNNaffinity_variance>
0.8624218106

$$$$
[H]/C(C(=O)N([H])[C@@]12C([H])([H])C([H])([H])C(=O)[C@]3([H])Oc4c(N=C(N([H])[H])N([H])[H])c([H])c([H])c5c4[C@]13C([H])([H])C([H])([H])N(C([H])([H])C1([H])C([H])([H])C1([H])[H])C2([H])C5([H])[H])=C(/[H])c1c([H])oc([H])c1[H]


 42 48  0  0  0  0  0  0  0  0999 V2000
   15.7569   24.7329   -4.0937 C   0  0  0  0  0  0  0  0  0  0  0  0
   16.8249   25.3138   -3.4253 C   0  0  0  0  0  0  0  0  0  0  0  0
   16.7848   25.4677   -2.0349 C   0  0  0  0  0  0  0  0  0  0  0  0
   15.6844   25.0414   -1.3456 C   0  0  0  0  0  0  0  0  0  0  0  0
   15.5704   25.1457    0.1176 C   0  0  0  0  0  0  0  0  0  0  0  0
   14.2824   24.7093    0.6534 C   0  0  0  0  0  0  0  0  0  0  0  0
   13.2680   25.6699    0.7826 N   0  0  0  0  0  0  0  0  0  0  0  0
   12.4560   26.0261   -0.2903 C   0  0  0  0  0  0  0  0  0  0  0  0
   12.4042   25.1208   -1.4580 C   0  0  0  0  0  0  0  0  0  0  0  0
   13.3651   23.9857   -1.4304 C   0  0  0  0  0  0  0  0  0  0  0  0
   13.1001   22.9428   -2.4983 C   0  0  0  0  0  0  0  0  0  0  0  0
   13.4633   23.7064   -3.7008 O   0  0  0  0  0  0  0  0  0  0  0  0
   14.6724   24.3161   -3.3831 C   0  0  0  0  0  0  0  0  0  0  0  0
   14.6607   24.4833   -2.0097 C   0  0  0  0  0  0  0  0  0  0  0  0
   14.1626   21.8993   -2.4299 C   0  0  0  0  0  0  0  0  0  0  0  0
   14.5369   21.4038   -3.4734 O   0  0  0  0  0  0  0  0  0  0  0  0
   14.7539   21.4678   -1.1433 C   0  0  0  0  0  0  0  0  0  0  0  0
   14.6303   22.3885    0.0018 C   0  0  0  0  0  0  0  0  0  0  0  0
   13.6329   23.4803   -0.0621 C   0  0  0  0  0  0  0  0  0  0  0  0
   15.7076   25.1114   -7.7444 N   0  0  0  0  0  0  0  0  0  0  0  0
   15.5099   25.4487   -6.3769 C   0  0  0  0  0  0  0  0  0  0  0  0
   14.9445   26.6760   -5.9735 N   0  0  0  0  0  0  0  0  0  0  0  0
   15.8601   24.6086   -5.5011 N   0  0  0  0  0  0  0  0  0  0  0  0
   14.9196   24.6433   -8.2584 H   0  0  0  0  0  0  0  0  0  0  0  0
   16.5796   25.2979   -8.2663 H   0  0  0  0  0  0  0  0  0  0  0  0
   14.2338   27.1505   -6.5510 H   0  0  0  0  0  0  0  0  0  0  0  0
   15.2487   27.1046   -5.0853 H   0  0  0  0  0  0  0  0  0  0  0  0
   12.4483   23.2731    0.7681 N   0  0  0  0  0  0  0  0  0  0  0  0
   11.3286   22.4729    0.5409 C   0  0  0  0  0  0  0  0  0  0  0  0
   11.2664   21.7827   -0.5280 O   0  0  0  0  0  0  0  0  0  0  0  0
   12.3776   23.7961    1.7124 H   0  0  0  0  0  0  0  0  0  0  0  0
   10.1951   22.3470    1.4300 C   0  0  0  0  0  0  0  0  0  0  0  0
    9.6165   21.2069    1.7025 C   0  0  0  0  0  0  0  0  0  0  0  0
    8.4549   21.1502    2.6260 C   0  0  0  0  0  0  0  0  0  0  0  0
    7.1408   21.1889    2.2453 C   0  0  0  0  0  0  0  0  0  0  0  0
    6.3759   21.1112    3.4061 C   0  0  0  0  0  0  0  0  0  0  0  0
    7.2145   21.0318    4.4024 O   0  0  0  0  0  0  0  0  0  0  0  0
    8.4681   21.0511    3.9911 C   0  0  0  0  0  0  0  0  0  0  0  0
   13.2550   26.4741    1.9372 C   0  0  0  0  0  0  0  0  0  0  0  0
   14.5637   26.6168    2.6361 C   0  0  0  0  0  0  0  0  0  0  0  0
   15.0854   27.9942    2.8374 C   0  0  0  0  0  0  0  0  0  0  0  0
   15.7039   27.1200    1.7872 C   0  0  0  0  0  0  0  0  0  0  0  0
 20 21  1  0  0  0
 21 22  1  0  0  0
 21 23  2  0  0  0
 23  1  1  0  0  0
  1  2  2  0  0  0
  2  3  1  0  0  0
  3  4  2  0  0  0
  4  5  1  0  0  0
  5  6  1  0  0  0
  6  7  1  0  0  0
  7 39  1  0  0  0
 39 40  1  0  0  0
 40 41  1  0  0  0
 41 42  1  0  0  0
  7  8  1  0  0  0
  8  9  1  0  0  0
 10  9  1  0  0  0
 10 11  1  0  0  0
 11 12  1  0  0  0
 12 13  1  0  0  0
 13 14  2  0  0  0
 11 15  1  0  0  0
 15 16  2  0  0  0
 15 17  1  0  0  0
 17 18  1  0  0  0
 18 19  1  0  0  0
 19 28  1  0  0  0
 28 29  1  0  0  0
 29 30  2  0  0  0
 29 32  1  0  0  0
 32 33  2  0  0  0
 33 34  1  0  0  0
 34 35  1  0  0  0
 35 36  2  0  0  0
 36 37  1  0  0  0
 37 38  1  0  0  0
 13  1  1  0  0  0
 38 34  2  0  0  0
 14  4  1  0  0  0
 19  6  1  0  0  0
 42 40  1  0  0  0
 14 10  1  0  0  0
 19 10  1  0  0  0
 20 24  1  0  0  0
 20 25  1  0  0  0
 22 26  1  0  0  0
 22 27  1  0  0  0
 28 31  1  0  0  0
M  END
> <minimizedAffinity>
8.34842

> <CNNscore>
0.3416192532

> <CNNaffinity>
7.5343956947

> <CNN_VS>
2.5738947392

> <CNNaffinity_variance>
0.5261541605

$$$$
[H]/C(C(=O)N([H])[C@@]12C([H])([H])C([H])([H])C(=O)[C@]3([H])Oc4c(N=C(N([H])[H])N([H])[H])c([H])c([H])c5c4[C@]13C([H])([H])C([H])([H])N(C([H])([H])C1([H])C([H])([H])C1([H])[H])C2([H])C5([H])[H])=C(/[H])c1c([H])oc([H])c1[H]


 42 48  0  0  0  0  0  0  0  0999 V2000
   14.4969   25.3218   -4.3329 C   0  0  0  0  0  0  0  0  0  0  0  0
   13.8337   26.5339   -4.2067 C   0  0  0  0  0  0  0  0  0  0  0  0
   12.9830   26.7603   -3.1187 C   0  0  0  0  0  0  0  0  0  0  0  0
   12.8132   25.7763   -2.1856 C   0  0  0  0  0  0  0  0  0  0  0  0
   11.9552   25.9400   -1.0015 C   0  0  0  0  0  0  0  0  0  0  0  0
   11.8429   24.7433   -0.1699 C   0  0  0  0  0  0  0  0  0  0  0  0
   10.8053   23.8430   -0.4552 N   0  0  0  0  0  0  0  0  0  0  0  0
   10.9272   22.8768   -1.4497 C   0  0  0  0  0  0  0  0  0  0  0  0
   12.2822   22.5458   -1.9399 C   0  0  0  0  0  0  0  0  0  0  0  0
   13.3777   23.4095   -1.4238 C   0  0  0  0  0  0  0  0  0  0  0  0
   14.7635   22.8777   -1.7322 C   0  0  0  0  0  0  0  0  0  0  0  0
   14.7955   23.0698   -3.1893 O   0  0  0  0  0  0  0  0  0  0  0  0
   14.3107   24.3581   -3.3888 C   0  0  0  0  0  0  0  0  0  0  0  0
   13.4620   24.6102   -2.3254 C   0  0  0  0  0  0  0  0  0  0  0  0
   15.7770   23.8552   -1.2426 C   0  0  0  0  0  0  0  0  0  0  0  0
   16.7906   23.9947   -1.8968 O   0  0  0  0  0  0  0  0  0  0  0  0
   15.5737   24.6386   -0.0032 C   0  0  0  0  0  0  0  0  0  0  0  0
   14.1894   24.7946    0.4802 C   0  0  0  0  0  0  0  0  0  0  0  0
   13.1433   23.8853   -0.0389 C   0  0  0  0  0  0  0  0  0  0  0  0
   16.3110   25.5085   -7.5184 N   0  0  0  0  0  0  0  0  0  0  0  0
   15.3746   25.8595   -6.5070 C   0  0  0  0  0  0  0  0  0  0  0  0
   14.4955   26.9546   -6.6358 N   0  0  0  0  0  0  0  0  0  0  0  0
   15.3413   25.1563   -5.4582 N   0  0  0  0  0  0  0  0  0  0  0  0
   15.9957   24.8585   -8.2816 H   0  0  0  0  0  0  0  0  0  0  0  0
   17.2846   25.8529   -7.5506 H   0  0  0  0  0  0  0  0  0  0  0  0
   14.1287   27.2378   -7.5572 H   0  0  0  0  0  0  0  0  0  0  0  0
   14.2160   27.4798   -5.7925 H   0  0  0  0  0  0  0  0  0  0  0  0
   12.7028   22.8607    0.9054 N   0  0  0  0  0  0  0  0  0  0  0  0
   13.3375   21.6850    1.3061 C   0  0  0  0  0  0  0  0  0  0  0  0
   14.4821   21.4027    0.8233 O   0  0  0  0  0  0  0  0  0  0  0  0
   11.7465   22.9828    1.3960 H   0  0  0  0  0  0  0  0  0  0  0  0
   12.8047   20.7247    2.2468 C   0  0  0  0  0  0  0  0  0  0  0  0
   11.7291   20.9347    2.9595 C   0  0  0  0  0  0  0  0  0  0  0  0
   11.2371   19.9033    3.9079 C   0  0  0  0  0  0  0  0  0  0  0  0
   10.1160   20.0157    4.6850 C   0  0  0  0  0  0  0  0  0  0  0  0
   10.0106   18.8402    5.4238 C   0  0  0  0  0  0  0  0  0  0  0  0
   11.0241   18.0923    5.0839 O   0  0  0  0  0  0  0  0  0  0  0  0
   11.7870   18.6803    4.1821 C   0  0  0  0  0  0  0  0  0  0  0  0
    9.5320   24.1007    0.0854 C   0  0  0  0  0  0  0  0  0  0  0  0
    9.2710   23.5069    1.4273 C   0  0  0  0  0  0  0  0  0  0  0  0
    8.2421   24.1618    2.2772 C   0  0  0  0  0  0  0  0  0  0  0  0
    9.6937   24.3482    2.6052 C   0  0  0  0  0  0  0  0  0  0  0  0
 20 21  1  0  0  0
 21 22  1  0  0  0
 21 23  2  0  0  0
 23  1  1  0  0  0
  1  2  2  0  0  0
  2  3  1  0  0  0
  3  4  2  0  0  0
  4  5  1  0  0  0
  5  6  1  0  0  0
  6  7  1  0  0  0
  7 39  1  0  0  0
 39 40  1  0  0  0
 40 41  1  0  0  0
 41 42  1  0  0  0
  7  8  1  0  0  0
  8  9  1  0  0  0
 10  9  1  0  0  0
 10 11  1  0  0  0
 11 12  1  0  0  0
 12 13  1  0  0  0
 13 14  2  0  0  0
 11 15  1  0  0  0
 15 16  2  0  0  0
 15 17  1  0  0  0
 17 18  1  0  0  0
 18 19  1  0  0  0
 19 28  1  0  0  0
 28 29  1  0  0  0
 29 30  2  0  0  0
 29 32  1  0  0  0
 32 33  2  0  0  0
 33 34  1  0  0  0
 34 35  1  0  0  0
 35 36  2  0  0  0
 36 37  1  0  0  0
 37 38  1  0  0  0
 13  1  1  0  0  0
 38 34  2  0  0  0
 14  4  1  0  0  0
 19  6  1  0  0  0
 42 40  1  0  0  0
 14 10  1  0  0  0
 19 10  1  0  0  0
 20 24  1  0  0  0
 20 25  1  0  0  0
 22 26  1  0  0  0
 22 27  1  0  0  0
 28 31  1  0  0  0
M  END
> <minimizedAffinity>
-7.06798

> <CNNscore>
0.3217754662

> <CNNaffinity>
7.6724410057

> <CNN_VS>
2.4688031673

> <CNNaffinity_variance>
0.1626219749

$$$$
[H]/C(C(=O)N([H])[C@@]12C([H])([H])C([H])([H])C(=O)[C@]3([H])Oc4c(N=C(N([H])[H])N([H])[H])c([H])c([H])c5c4[C@]13C([H])([H])C([H])([H])N(C([H])([H])C1([H])C([H])([H])C1([H])[H])C2([H])C5([H])[H])=C(/[H])c1c([H])oc([H])c1[H]


 42 48  0  0  0  0  0  0  0  0999 V2000
    7.8904   21.4591    2.4764 C   0  0  0  0  0  0  0  0  0  0  0  0
    7.0215   21.3561    1.3996 C   0  0  0  0  0  0  0  0  0  0  0  0
    7.4670   21.6495    0.1058 C   0  0  0  0  0  0  0  0  0  0  0  0
    8.7634   22.0382   -0.0839 C   0  0  0  0  0  0  0  0  0  0  0  0
    9.3179   22.3438   -1.4120 C   0  0  0  0  0  0  0  0  0  0  0  0
   10.6996   22.8199   -1.3922 C   0  0  0  0  0  0  0  0  0  0  0  0
   10.9139   24.2027   -1.2895 N   0  0  0  0  0  0  0  0  0  0  0  0
   10.8992   24.8567   -0.0609 C   0  0  0  0  0  0  0  0  0  0  0  0
   11.0433   24.0433    1.1653 C   0  0  0  0  0  0  0  0  0  0  0  0
   11.0275   22.5700    0.9610 C   0  0  0  0  0  0  0  0  0  0  0  0
   11.4428   21.7846    2.1893 C   0  0  0  0  0  0  0  0  0  0  0  0
   10.2930   22.0492    3.0662 O   0  0  0  0  0  0  0  0  0  0  0  0
    9.1775   21.8481    2.2600 C   0  0  0  0  0  0  0  0  0  0  0  0
    9.5884   22.1334    0.9700 C   0  0  0  0  0  0  0  0  0  0  0  0
   11.3147   20.3281    1.8986 C   0  0  0  0  0  0  0  0  0  0  0  0
   10.9556   19.6003    2.8019 O   0  0  0  0  0  0  0  0  0  0  0  0
   11.6110   19.7681    0.5607 C   0  0  0  0  0  0  0  0  0  0  0  0
   11.5761   20.6959   -0.5849 C   0  0  0  0  0  0  0  0  0  0  0  0
   11.6305   22.1526   -0.3280 C   0  0  0  0  0  0  0  0  0  0  0  0
    6.1661   20.1136    5.4243 N   0  0  0  0  0  0  0  0  0  0  0  0
    6.5463   20.2460    4.0601 C   0  0  0  0  0  0  0  0  0  0  0  0
    6.0347   19.4096    3.0466 N   0  0  0  0  0  0  0  0  0  0  0  0
    7.3758   21.1500    3.7595 N   0  0  0  0  0  0  0  0  0  0  0  0
    5.3159   20.6354    5.7547 H   0  0  0  0  0  0  0  0  0  0  0  0
    6.6743   19.5352    6.1133 H   0  0  0  0  0  0  0  0  0  0  0  0
    5.0769   19.0308    3.1014 H   0  0  0  0  0  0  0  0  0  0  0  0
    6.6305   19.1740    2.2375 H   0  0  0  0  0  0  0  0  0  0  0  0
   12.9102   22.7809   -0.6493 N   0  0  0  0  0  0  0  0  0  0  0  0
   14.0665   22.8950    0.1223 C   0  0  0  0  0  0  0  0  0  0  0  0
   14.0841   22.3893    1.2915 O   0  0  0  0  0  0  0  0  0  0  0  0
   13.0329   23.2432   -1.6195 H   0  0  0  0  0  0  0  0  0  0  0  0
   15.2864   23.5531   -0.2896 C   0  0  0  0  0  0  0  0  0  0  0  0
   15.3089   24.6423   -1.0121 C   0  0  0  0  0  0  0  0  0  0  0  0
   16.5996   25.2661   -1.3997 C   0  0  0  0  0  0  0  0  0  0  0  0
   16.7331   26.4272   -2.1120 C   0  0  0  0  0  0  0  0  0  0  0  0
   18.0975   26.6616   -2.2607 C   0  0  0  0  0  0  0  0  0  0  0  0
   18.7135   25.6801   -1.6612 O   0  0  0  0  0  0  0  0  0  0  0  0
   17.8652   24.8198   -1.1307 C   0  0  0  0  0  0  0  0  0  0  0  0
   10.8712   24.9728   -2.4664 C   0  0  0  0  0  0  0  0  0  0  0  0
   12.1872   25.2210   -3.1206 C   0  0  0  0  0  0  0  0  0  0  0  0
   13.1044   26.1912   -2.4668 C   0  0  0  0  0  0  0  0  0  0  0  0
   12.3717   26.5960   -3.7115 C   0  0  0  0  0  0  0  0  0  0  0  0
 20 21  1  0  0  0
 21 22  1  0  0  0
 21 23  2  0  0  0
 23  1  1  0  0  0
  1  2  2  0  0  0
  2  3  1  0  0  0
  3  4  2  0  0  0
  4  5  1  0  0  0
  5  6  1  0  0  0
  6  7  1  0  0  0
  7 39  1  0  0  0
 39 40  1  0  0  0
 40 41  1  0  0  0
 41 42  1  0  0  0
  7  8  1  0  0  0
  8  9  1  0  0  0
 10  9  1  0  0  0
 10 11  1  0  0  0
 11 12  1  0  0  0
 12 13  1  0  0  0
 13 14  2  0  0  0
 11 15  1  0  0  0
 15 16  2  0  0  0
 15 17  1  0  0  0
 17 18  1  0  0  0
 18 19  1  0  0  0
 19 28  1  0  0  0
 28 29  1  0  0  0
 29 30  2  0  0  0
 29 32  1  0  0  0
 32 33  2  0  0  0
 33 34  1  0  0  0
 34 35  1  0  0  0
 35 36  2  0  0  0
 36 37  1  0  0  0
 37 38  1  0  0  0
 13  1  1  0  0  0
 38 34  2  0  0  0
 14  4  1  0  0  0
 19  6  1  0  0  0
 42 40  1  0  0  0
 14 10  1  0  0  0
 19 10  1  0  0  0
 20 24  1  0  0  0
 20 25  1  0  0  0
 22 26  1  0  0  0
 22 27  1  0  0  0
 28 31  1  0  0  0
M  END
> <minimizedAffinity>
3.82885

> <CNNscore>
0.2974280715

> <CNNaffinity>
7.0579185486

> <CNN_VS>
2.0992231369

> <CNNaffinity_variance>
0.3684727550

$$$$
[H]/C(C(=O)N([H])[C@@]12C([H])([H])C([H])([H])C(=O)[C@]3([H])Oc4c(N=C(N([H])[H])N([H])[H])c([H])c([H])c5c4[C@]13C([H])([H])C([H])([H])N(C([H])([H])C1([H])C([H])([H])C1([H])[H])C2([H])C5([H])[H])=C(/[H])c1c([H])oc([H])c1[H]


 42 48  0  0  0  0  0  0  0  0999 V2000
   15.0765   24.4513   -2.9628 C   0  0  0  0  0  0  0  0  0  0  0  0
   15.6906   25.4006   -2.1586 C   0  0  0  0  0  0  0  0  0  0  0  0
   15.2700   25.5801   -0.8360 C   0  0  0  0  0  0  0  0  0  0  0  0
   14.2502   24.8125   -0.3476 C   0  0  0  0  0  0  0  0  0  0  0  0
   13.7620   24.9219    1.0360 C   0  0  0  0  0  0  0  0  0  0  0  0
   12.6116   24.0721    1.3371 C   0  0  0  0  0  0  0  0  0  0  0  0
   11.3310   24.6086    1.1356 N   0  0  0  0  0  0  0  0  0  0  0  0
   10.7270   24.6105   -0.1185 C   0  0  0  0  0  0  0  0  0  0  0  0
   11.2668   23.7053   -1.1553 C   0  0  0  0  0  0  0  0  0  0  0  0
   12.5208   22.9925   -0.7921 C   0  0  0  0  0  0  0  0  0  0  0  0
   12.8898   21.8860   -1.7605 C   0  0  0  0  0  0  0  0  0  0  0  0
   13.2467   22.6850   -2.9417 O   0  0  0  0  0  0  0  0  0  0  0  0
   14.0629   23.6991   -2.4516 C   0  0  0  0  0  0  0  0  0  0  0  0
   13.6676   23.9006   -1.1410 C   0  0  0  0  0  0  0  0  0  0  0  0
   14.1952   21.2966   -1.3472 C   0  0  0  0  0  0  0  0  0  0  0  0
   14.9533   20.9309   -2.2226 O   0  0  0  0  0  0  0  0  0  0  0  0
   14.5731   21.1529    0.0768 C   0  0  0  0  0  0  0  0  0  0  0  0
   13.8740   22.0088    1.0529 C   0  0  0  0  0  0  0  0  0  0  0  0
   12.6103   22.6667    0.6520 C   0  0  0  0  0  0  0  0  0  0  0  0
   15.8971   24.7592   -6.5273 N   0  0  0  0  0  0  0  0  0  0  0  0
   15.3144   25.0846   -5.2712 C   0  0  0  0  0  0  0  0  0  0  0  0
   14.4965   26.2183   -5.0866 N   0  0  0  0  0  0  0  0  0  0  0  0
   15.5484   24.3214   -4.2922 N   0  0  0  0  0  0  0  0  0  0  0  0
   15.3395   24.1688   -7.1942 H   0  0  0  0  0  0  0  0  0  0  0  0
   16.8368   25.0672   -6.8266 H   0  0  0  0  0  0  0  0  0  0  0  0
   13.8944   26.5703   -5.8464 H   0  0  0  0  0  0  0  0  0  0  0  0
   14.5022   26.7023   -4.1751 H   0  0  0  0  0  0  0  0  0  0  0  0
   11.4055   22.0784    1.2334 N   0  0  0  0  0  0  0  0  0  0  0  0
   11.2706   21.2074    2.3145 C   0  0  0  0  0  0  0  0  0  0  0  0
   12.3135   20.8339    2.9436 O   0  0  0  0  0  0  0  0  0  0  0  0
   10.4460   22.3215    0.7972 H   0  0  0  0  0  0  0  0  0  0  0  0
   10.0213   20.6702    2.8060 C   0  0  0  0  0  0  0  0  0  0  0  0
    9.0686   21.4090    3.3114 C   0  0  0  0  0  0  0  0  0  0  0  0
    7.8093   20.7902    3.7979 C   0  0  0  0  0  0  0  0  0  0  0  0
    7.1968   21.0772    4.9878 C   0  0  0  0  0  0  0  0  0  0  0  0
    6.0523   20.2873    5.0600 C   0  0  0  0  0  0  0  0  0  0  0  0
    6.0140   19.5828    3.9626 O   0  0  0  0  0  0  0  0  0  0  0  0
    7.0397   19.8451    3.1751 C   0  0  0  0  0  0  0  0  0  0  0  0
   10.7699   25.3958    2.1581 C   0  0  0  0  0  0  0  0  0  0  0  0
    9.6675   24.7561    2.9306 C   0  0  0  0  0  0  0  0  0  0  0  0
    8.2764   24.9946    2.4635 C   0  0  0  0  0  0  0  0  0  0  0  0
    8.7712   25.7011    3.6906 C   0  0  0  0  0  0  0  0  0  0  0  0
 20 21  1  0  0  0
 21 22  1  0  0  0
 21 23  2  0  0  0
 23  1  1  0  0  0
  1  2  2  0  0  0
  2  3  1  0  0  0
  3  4  2  0  0  0
  4  5  1  0  0  0
  5  6  1  0  0  0
  6  7  1  0  0  0
  7 39  1  0  0  0
 39 40  1  0  0  0
 40 41  1  0  0  0
 41 42  1  0  0  0
  7  8  1  0  0  0
  8  9  1  0  0  0
 10  9  1  0  0  0
 10 11  1  0  0  0
 11 12  1  0  0  0
 12 13  1  0  0  0
 13 14  2  0  0  0
 11 15  1  0  0  0
 15 16  2  0  0  0
 15 17  1  0  0  0
 17 18  1  0  0  0
 18 19  1  0  0  0
 19 28  1  0  0  0
 28 29  1  0  0  0
 29 30  2  0  0  0
 29 32  1  0  0  0
 32 33  2  0  0  0
 33 34  1  0  0  0
 34 35  1  0  0  0
 35 36  2  0  0  0
 36 37  1  0  0  0
 37 38  1  0  0  0
 13  1  1  0  0  0
 38 34  2  0  0  0
 14  4  1  0  0  0
 19  6  1  0  0  0
 42 40  1  0  0  0
 14 10  1  0  0  0
 19 10  1  0  0  0
 20 24  1  0  0  0
 20 25  1  0  0  0
 22 26  1  0  0  0
 22 27  1  0  0  0
 28 31  1  0  0  0
M  END
> <minimizedAffinity>
-2.51033

> <CNNscore>
0.2939382493

> <CNNaffinity>
7.3065657616

> <CNN_VS>
2.1476790905

> <CNNaffinity_variance>
0.1968129426

$$$$
[H]/C(C(=O)N([H])[C@@]12C([H])([H])C([H])([H])C(=O)[C@]3([H])Oc4c(N=C(N([H])[H])N([H])[H])c([H])c([H])c5c4[C@]13C([H])([H])C([H])([H])N(C([H])([H])C1([H])C([H])([H])C1([H])[H])C2([H])C5([H])[H])=C(/[H])c1c([H])oc([H])c1[H]


 42 48  0  0  0  0  0  0  0  0999 V2000
    7.9516   21.3779    2.8108 C   0  0  0  0  0  0  0  0  0  0  0  0
    7.5504   20.2102    2.1779 C   0  0  0  0  0  0  0  0  0  0  0  0
    8.2231   19.7626    1.0353 C   0  0  0  0  0  0  0  0  0  0  0  0
    9.2758   20.4873    0.5512 C   0  0  0  0  0  0  0  0  0  0  0  0
   10.0502   20.0765   -0.6306 C   0  0  0  0  0  0  0  0  0  0  0  0
   11.0824   21.0291   -1.0345 C   0  0  0  0  0  0  0  0  0  0  0  0
   10.7283   22.0262   -1.9559 N   0  0  0  0  0  0  0  0  0  0  0  0
   10.1035   23.2040   -1.5561 C   0  0  0  0  0  0  0  0  0  0  0  0
   10.1617   23.5752   -0.1261 C   0  0  0  0  0  0  0  0  0  0  0  0
   10.7543   22.5522    0.7765 C   0  0  0  0  0  0  0  0  0  0  0  0
   11.0399   23.0700    2.1725 C   0  0  0  0  0  0  0  0  0  0  0  0
    9.6674   23.2499    2.6671 O   0  0  0  0  0  0  0  0  0  0  0  0
    9.0041   22.0811    2.3082 C   0  0  0  0  0  0  0  0  0  0  0  0
    9.6483   21.6148    1.1760 C   0  0  0  0  0  0  0  0  0  0  0  0
   11.5537   21.9482    3.0090 C   0  0  0  0  0  0  0  0  0  0  0  0
   11.2352   21.9242    4.1806 O   0  0  0  0  0  0  0  0  0  0  0  0
   12.4242   20.8897    2.4495 C   0  0  0  0  0  0  0  0  0  0  0  0
   12.3954   20.6908    0.9887 C   0  0  0  0  0  0  0  0  0  0  0  0
   11.8270   21.7559    0.1325 C   0  0  0  0  0  0  0  0  0  0  0  0
    6.0194   23.0838    5.4241 N   0  0  0  0  0  0  0  0  0  0  0  0
    6.7065   22.9038    4.1918 C   0  0  0  0  0  0  0  0  0  0  0  0
    6.8211   23.9302    3.2316 N   0  0  0  0  0  0  0  0  0  0  0  0
    7.2273   21.7764    3.9611 N   0  0  0  0  0  0  0  0  0  0  0  0
    6.5599   23.4613    6.2424 H   0  0  0  0  0  0  0  0  0  0  0  0
    5.0194   22.8662    5.5665 H   0  0  0  0  0  0  0  0  0  0  0  0
    6.8757   24.9206    3.5143 H   0  0  0  0  0  0  0  0  0  0  0  0
    6.8505   23.6836    2.2298 H   0  0  0  0  0  0  0  0  0  0  0  0
   12.8160   22.5315   -0.6131 N   0  0  0  0  0  0  0  0  0  0  0  0
   13.8491   23.3439   -0.1459 C   0  0  0  0  0  0  0  0  0  0  0  0
   14.0213   23.4671    1.1104 O   0  0  0  0  0  0  0  0  0  0  0  0
   12.7873   22.5079   -1.6941 H   0  0  0  0  0  0  0  0  0  0  0  0
   14.7733   24.0837   -0.9762 C   0  0  0  0  0  0  0  0  0  0  0  0
   14.4032   24.7968   -2.0075 C   0  0  0  0  0  0  0  0  0  0  0  0
   15.4071   25.5326   -2.8176 C   0  0  0  0  0  0  0  0  0  0  0  0
   16.5233   26.1498   -2.3212 C   0  0  0  0  0  0  0  0  0  0  0  0
   17.1922   26.7173   -3.4026 C   0  0  0  0  0  0  0  0  0  0  0  0
   16.4903   26.4367   -4.4660 O   0  0  0  0  0  0  0  0  0  0  0  0
   15.4148   25.7312   -4.1718 C   0  0  0  0  0  0  0  0  0  0  0  0
   10.7604   21.7088   -3.3263 C   0  0  0  0  0  0  0  0  0  0  0  0
    9.4422   21.3876   -3.9430 C   0  0  0  0  0  0  0  0  0  0  0  0
    8.6091   20.3520   -3.2771 C   0  0  0  0  0  0  0  0  0  0  0  0
    9.3251   20.0124   -4.5506 C   0  0  0  0  0  0  0  0  0  0  0  0
 20 21  1  0  0  0
 21 22  1  0  0  0
 21 23  2  0  0  0
 23  1  1  0  0  0
  1  2  2  0  0  0
  2  3  1  0  0  0
  3  4  2  0  0  0
  4  5  1  0  0  0
  5  6  1  0  0  0
  6  7  1  0  0  0
  7 39  1  0  0  0
 39 40  1  0  0  0
 40 41  1  0  0  0
 41 42  1  0  0  0
  7  8  1  0  0  0
  8  9  1  0  0  0
 10  9  1  0  0  0
 10 11  1  0  0  0
 11 12  1  0  0  0
 12 13  1  0  0  0
 13 14  2  0  0  0
 11 15  1  0  0  0
 15 16  2  0  0  0
 15 17  1  0  0  0
 17 18  1  0  0  0
 18 19  1  0  0  0
 19 28  1  0  0  0
 28 29  1  0  0  0
 29 30  2  0  0  0
 29 32  1  0  0  0
 32 33  2  0  0  0
 33 34  1  0  0  0
 34 35  1  0  0  0
 35 36  2  0  0  0
 36 37  1  0  0  0
 37 38  1  0  0  0
 13  1  1  0  0  0
 38 34  2  0  0  0
 14  4  1  0  0  0
 19  6  1  0  0  0
 42 40  1  0  0  0
 14 10  1  0  0  0
 19 10  1  0  0  0
 20 24  1  0  0  0
 20 25  1  0  0  0
 22 26  1  0  0  0
 22 27  1  0  0  0
 28 31  1  0  0  0
M  END
> <minimizedAffinity>
4.79075

> <CNNscore>
0.2839730680

> <CNNaffinity>
7.3306045532

> <CNN_VS>
2.0816943645

> <CNNaffinity_variance>
0.8831680417

$$$$
[H]O[C@]1([H])C([H])([H])[C@@]([H])(N2C([H])([H])[C@]([H])(F)[C@@]([H])(OC([H])([H])[H])C2([H])[H])[C@@]([H])([C@@]2([H])C([H])([H])C([H])([H])[C@@]3(C([H])([H])[H])C([H])([H])C([H])([H])[C@@]([H])(O[H])C(=O)O[C@@]32[H])C1([H])[H]


 29 32  0  0  0  0  0  0  0  0999 V2000
   12.7698   24.9511   -0.0787 C   0  0  0  0  0  0  0  0  0  0  0  0
   11.3034   24.9387    0.3194 C   0  0  0  0  0  0  0  0  0  0  0  0
   10.7394   23.6932   -0.3512 C   0  0  0  0  0  0  0  0  0  0  0  0
    9.5114   23.9596   -0.9510 O   0  0  0  0  0  0  0  0  0  0  0  0
   11.7469   23.2737   -1.3935 C   0  0  0  0  0  0  0  0  0  0  0  0
   12.6912   24.4201   -1.4303 C   0  0  0  0  0  0  0  0  0  0  0  0
    8.8336   23.2987   -0.7170 H   0  0  0  0  0  0  0  0  0  0  0  0
   13.8643   24.2481   -2.2800 C   0  0  0  0  0  0  0  0  0  0  0  0
   14.3159   22.8312   -2.4624 C   0  0  0  0  0  0  0  0  0  0  0  0
   15.2814   22.9154   -3.6482 C   0  0  0  0  0  0  0  0  0  0  0  0
   15.3667   24.4014   -4.0086 C   0  0  0  0  0  0  0  0  0  0  0  0
   16.3827   25.0449   -3.1383 C   0  0  0  0  0  0  0  0  0  0  0  0
   15.5609   24.5633   -5.4725 C   0  0  0  0  0  0  0  0  0  0  0  0
   16.0570   25.8990   -5.8976 C   0  0  0  0  0  0  0  0  0  0  0  0
   15.0066   26.9831   -5.8349 C   0  0  0  0  0  0  0  0  0  0  0  0
   14.0237   26.7997   -6.8078 O   0  0  0  0  0  0  0  0  0  0  0  0
   14.4522   27.1746   -4.4931 C   0  0  0  0  0  0  0  0  0  0  0  0
   14.4970   28.3382   -3.9705 O   0  0  0  0  0  0  0  0  0  0  0  0
   13.8626   26.2174   -3.6876 O   0  0  0  0  0  0  0  0  0  0  0  0
   13.9243   24.8257   -3.6342 C   0  0  0  0  0  0  0  0  0  0  0  0
   14.3911   26.1772   -7.4837 H   0  0  0  0  0  0  0  0  0  0  0  0
   15.3372   22.9289    0.4682 C   0  0  0  0  0  0  0  0  0  0  0  0
   13.9550   23.1360    0.9360 C   0  0  0  0  0  0  0  0  0  0  0  0
   13.6965   24.5560    0.8711 N   0  0  0  0  0  0  0  0  0  0  0  0
   14.9377   25.1670    1.0620 C   0  0  0  0  0  0  0  0  0  0  0  0
   16.0066   24.2454    0.5445 C   0  0  0  0  0  0  0  0  0  0  0  0
   16.5697   24.6664   -0.6373 F   0  0  0  0  0  0  0  0  0  0  0  0
   15.5869   20.6603    0.9295 C   0  0  0  0  0  0  0  0  0  0  0  0
   16.0228   21.9332    1.1747 O   0  0  0  0  0  0  0  0  0  0  0  0
 28 29  1  0  0  0
 29 22  1  0  0  0
 22 23  1  0  0  0
 23 24  1  0  0  0
 24  1  1  0  0  0
  1  2  1  0  0  0
  2  3  1  0  0  0
  3  4  1  0  0  0
  3  5  1  0  0  0
  5  6  1  0  0  0
  6  8  1  0  0  0
  8  9  1  0  0  0
  9 10  1  0  0  0
 10 11  1  0  0  0
 11 12  1  0  0  0
 11 13  1  0  0  0
 13 14  1  0  0  0
 14 15  1  0  0  0
 15 16  1  0  0  0
 15 17  1  0  0  0
 17 18  2  0  0  0
 17 19  1  0  0  0
 19 20  1  0  0  0
 24 25  1  0  0  0
 25 26  1  0  0  0
 26 27  1  0  0  0
 26 22  1  0  0  0
  6  1  1  0  0  0
 20  8  1  0  0  0
 20 11  1  0  0  0
  4  7  1  0  0  0
 16 21  1  0  0  0
M  END
> <minimizedAffinity>
-6.02554

> <CNNscore>
0.6351231337

> <CNNaffinity>
7.3060998917

> <CNN_VS>
4.6402730942

> <CNNaffinity_variance>
0.4506483674

$$$$
[H]O[C@]1([H])C([H])([H])[C@@]([H])(N2C([H])([H])[C@]([H])(F)[C@@]([H])(OC([H])([H])[H])C2([H])[H])[C@@]([H])([C@@]2([H])C([H])([H])C([H])([H])[C@@]3(C([H])([H])[H])C([H])([H])C([H])([H])[C@@]([H])(O[H])C(=O)O[C@@]32[H])C1([H])[H]


 29 32  0  0  0  0  0  0  0  0999 V2000
   12.5279   23.9341    0.3315 C   0  0  0  0  0  0  0  0  0  0  0  0
   11.0455   24.0761    0.6332 C   0  0  0  0  0  0  0  0  0  0  0  0
   10.3530   23.4032   -0.5445 C   0  0  0  0  0  0  0  0  0  0  0  0
    9.2823   24.1680   -0.9998 O   0  0  0  0  0  0  0  0  0  0  0  0
   11.3918   23.2644   -1.6305 C   0  0  0  0  0  0  0  0  0  0  0  0
   12.5274   24.0725   -1.1162 C   0  0  0  0  0  0  0  0  0  0  0  0
    8.4703   23.6396   -1.1108 H   0  0  0  0  0  0  0  0  0  0  0  0
   13.7482   24.0300   -1.9135 C   0  0  0  0  0  0  0  0  0  0  0  0
   14.3548   22.6696   -2.0764 C   0  0  0  0  0  0  0  0  0  0  0  0
   15.3569   22.8615   -3.2184 C   0  0  0  0  0  0  0  0  0  0  0  0
   15.3001   24.3500   -3.5741 C   0  0  0  0  0  0  0  0  0  0  0  0
   16.2032   25.0929   -2.6596 C   0  0  0  0  0  0  0  0  0  0  0  0
   15.5401   24.5389   -5.0279 C   0  0  0  0  0  0  0  0  0  0  0  0
   15.9101   25.9217   -5.4302 C   0  0  0  0  0  0  0  0  0  0  0  0
   14.7491   26.8884   -5.4135 C   0  0  0  0  0  0  0  0  0  0  0  0
   13.8346   26.6070   -6.4288 O   0  0  0  0  0  0  0  0  0  0  0  0
   14.1193   27.0133   -4.0973 C   0  0  0  0  0  0  0  0  0  0  0  0
   14.0176   28.1725   -3.5728 O   0  0  0  0  0  0  0  0  0  0  0  0
   13.5996   25.9951   -3.3190 O   0  0  0  0  0  0  0  0  0  0  0  0
   13.8060   24.6175   -3.2635 C   0  0  0  0  0  0  0  0  0  0  0  0
   14.2951   26.0303   -7.0881 H   0  0  0  0  0  0  0  0  0  0  0  0
   12.3372   20.8877    1.6213 C   0  0  0  0  0  0  0  0  0  0  0  0
   12.4983   22.2839    2.0650 C   0  0  0  0  0  0  0  0  0  0  0  0
   13.2365   22.9721    1.0312 N   0  0  0  0  0  0  0  0  0  0  0  0
   14.0370   21.9950    0.4355 C   0  0  0  0  0  0  0  0  0  0  0  0
   13.3381   20.6695    0.5546 C   0  0  0  0  0  0  0  0  0  0  0  0
   12.8137   20.2165   -0.6332 F   0  0  0  0  0  0  0  0  0  0  0  0
   11.5649   20.1489    3.6898 C   0  0  0  0  0  0  0  0  0  0  0  0
   12.4442   19.9554    2.6605 O   0  0  0  0  0  0  0  0  0  0  0  0
 28 29  1  0  0  0
 29 22  1  0  0  0
 22 23  1  0  0  0
 23 24  1  0  0  0
 24  1  1  0  0  0
  1  2  1  0  0  0
  2  3  1  0  0  0
  3  4  1  0  0  0
  3  5  1  0  0  0
  5  6  1  0  0  0
  6  8  1  0  0  0
  8  9  1  0  0  0
  9 10  1  0  0  0
 10 11  1  0  0  0
 11 12  1  0  0  0
 11 13  1  0  0  0
 13 14  1  0  0  0
 14 15  1  0  0  0
 15 16  1  0  0  0
 15 17  1  0  0  0
 17 18  2  0  0  0
 17 19  1  0  0  0
 19 20  1  0  0  0
 24 25  1  0  0  0
 25 26  1  0  0  0
 26 27  1  0  0  0
 26 22  1  0  0  0
  6  1  1  0  0  0
 20  8  1  0  0  0
 20 11  1  0  0  0
  4  7  1  0  0  0
 16 21  1  0  0  0
M  END
> <minimizedAffinity>
-5.97554

> <CNNscore>
0.6055427194

> <CNNaffinity>
7.0705499649

> <CNN_VS>
4.2815198898

> <CNNaffinity_variance>
0.4841755927

$$$$
[H]O[C@]1([H])C([H])([H])[C@@]([H])(N2C([H])([H])[C@]([H])(F)[C@@]([H])(OC([H])([H])[H])C2([H])[H])[C@@]([H])([C@@]2([H])C([H])([H])C([H])([H])[C@@]3(C([H])([H])[H])C([H])([H])C([H])([H])[C@@]([H])(O[H])C(=O)O[C@@]32[H])C1([H])[H]


 29 32  0  0  0  0  0  0  0  0999 V2000
   14.4392   25.9183   -2.8963 C   0  0  0  0  0  0  0  0  0  0  0  0
   15.1278   27.0292   -3.6713 C   0  0  0  0  0  0  0  0  0  0  0  0
   15.3027   26.4608   -5.0733 C   0  0  0  0  0  0  0  0  0  0  0  0
   16.5763   26.7295   -5.5675 O   0  0  0  0  0  0  0  0  0  0  0  0
   15.0923   24.9706   -4.9612 C   0  0  0  0  0  0  0  0  0  0  0  0
   15.0563   24.7446   -3.4933 C   0  0  0  0  0  0  0  0  0  0  0  0
   16.5533   27.1009   -6.4689 H   0  0  0  0  0  0  0  0  0  0  0  0
   14.7411   23.3851   -3.0686 C   0  0  0  0  0  0  0  0  0  0  0  0
   14.9956   22.3229   -4.0943 C   0  0  0  0  0  0  0  0  0  0  0  0
   14.9418   21.0251   -3.2830 C   0  0  0  0  0  0  0  0  0  0  0  0
   14.5822   21.4438   -1.8544 C   0  0  0  0  0  0  0  0  0  0  0  0
   13.1064   21.5667   -1.7515 C   0  0  0  0  0  0  0  0  0  0  0  0
   15.2339   20.5364   -0.8752 C   0  0  0  0  0  0  0  0  0  0  0  0
   14.6593   20.5730    0.4957 C   0  0  0  0  0  0  0  0  0  0  0  0
   15.0305   21.8130    1.2749 C   0  0  0  0  0  0  0  0  0  0  0  0
   16.3849   21.8204    1.6096 O   0  0  0  0  0  0  0  0  0  0  0  0
   14.5958   23.0535    0.6295 C   0  0  0  0  0  0  0  0  0  0  0  0
   13.8630   23.8645    1.2886 O   0  0  0  0  0  0  0  0  0  0  0  0
   14.8896   23.4756   -0.6543 O   0  0  0  0  0  0  0  0  0  0  0  0
   15.2867   22.8233   -1.8206 C   0  0  0  0  0  0  0  0  0  0  0  0
   16.7177   20.8939    1.5099 H   0  0  0  0  0  0  0  0  0  0  0  0
   11.8653   24.5549   -1.3163 C   0  0  0  0  0  0  0  0  0  0  0  0
   12.3158   24.8327   -2.6918 C   0  0  0  0  0  0  0  0  0  0  0  0
   13.0845   26.0551   -2.6447 N   0  0  0  0  0  0  0  0  0  0  0  0
   12.5510   26.7867   -1.5814 C   0  0  0  0  0  0  0  0  0  0  0  0
   12.0051   25.8218   -0.5663 C   0  0  0  0  0  0  0  0  0  0  0  0
   12.7729   25.7278    0.5706 F   0  0  0  0  0  0  0  0  0  0  0  0
   10.1302   23.7625    0.0190 C   0  0  0  0  0  0  0  0  0  0  0  0
   10.5699   24.0278   -1.2485 O   0  0  0  0  0  0  0  0  0  0  0  0
 28 29  1  0  0  0
 29 22  1  0  0  0
 22 23  1  0  0  0
 23 24  1  0  0  0
 24  1  1  0  0  0
  1  2  1  0  0  0
  2  3  1  0  0  0
  3  4  1  0  0  0
  3  5  1  0  0  0
  5  6  1  0  0  0
  6  8  1  0  0  0
  8  9  1  0  0  0
  9 10  1  0  0  0
 10 11  1  0  0  0
 11 12  1  0  0  0
 11 13  1  0  0  0
 13 14  1  0  0  0
 14 15  1  0  0  0
 15 16  1  0  0  0
 15 17  1  0  0  0
 17 18  2  0  0  0
 17 19  1  0  0  0
 19 20  1  0  0  0
 24 25  1  0  0  0
 25 26  1  0  0  0
 26 27  1  0  0  0
 26 22  1  0  0  0
  6  1  1  0  0  0
 20  8  1  0  0  0
 20 11  1  0  0  0
  4  7  1  0  0  0
 16 21  1  0  0  0
M  END
> <minimizedAffinity>
-0.26916

> <CNNscore>
0.5517322421

> <CNNaffinity>
6.9594230652

> <CNN_VS>
3.8397381306

> <CNNaffinity_variance>
0.4609142840

$$$$
[H]O[C@]1([H])C([H])([H])[C@@]([H])(N2C([H])([H])[C@]([H])(F)[C@@]([H])(OC([H])([H])[H])C2([H])[H])[C@@]([H])([C@@]2([H])C([H])([H])C([H])([H])[C@@]3(C([H])([H])[H])C([H])([H])C([H])([H])[C@@]([H])(O[H])C(=O)O[C@@]32[H])C1([H])[H]


 29 32  0  0  0  0  0  0  0  0999 V2000
   12.3725   25.9992    0.6340 C   0  0  0  0  0  0  0  0  0  0  0  0
   11.9847   27.2173    1.4553 C   0  0  0  0  0  0  0  0  0  0  0  0
   13.2945   27.9654    1.6650 C   0  0  0  0  0  0  0  0  0  0  0  0
   13.4200   28.3961    2.9831 O   0  0  0  0  0  0  0  0  0  0  0  0
   14.4008   26.9961    1.3273 C   0  0  0  0  0  0  0  0  0  0  0  0
   13.6843   25.7022    1.1870 C   0  0  0  0  0  0  0  0  0  0  0  0
   13.6744   29.3356    3.0434 H   0  0  0  0  0  0  0  0  0  0  0  0
   14.4934   24.5748    0.7373 C   0  0  0  0  0  0  0  0  0  0  0  0
   15.9716   24.8189    0.7209 C   0  0  0  0  0  0  0  0  0  0  0  0
   16.5627   23.4129    0.5819 C   0  0  0  0  0  0  0  0  0  0  0  0
   15.3631   22.4698    0.4523 C   0  0  0  0  0  0  0  0  0  0  0  0
   14.9399   22.4303   -0.9701 C   0  0  0  0  0  0  0  0  0  0  0  0
   15.6712   21.1595    1.0808 C   0  0  0  0  0  0  0  0  0  0  0  0
   14.7747   20.0430    0.6800 C   0  0  0  0  0  0  0  0  0  0  0  0
   13.4023   20.1132    1.3078 C   0  0  0  0  0  0  0  0  0  0  0  0
   13.4542   19.8648    2.6797 O   0  0  0  0  0  0  0  0  0  0  0  0
   12.6773   21.3419    0.9778 C   0  0  0  0  0  0  0  0  0  0  0  0
   11.5206   21.2485    0.4464 O   0  0  0  0  0  0  0  0  0  0  0  0
   13.1028   22.6428    1.1763 O   0  0  0  0  0  0  0  0  0  0  0  0
   14.3526   23.2380    1.3408 C   0  0  0  0  0  0  0  0  0  0  0  0
   14.3211   19.4257    2.8667 H   0  0  0  0  0  0  0  0  0  0  0  0
   13.4853   25.1162   -2.3597 C   0  0  0  0  0  0  0  0  0  0  0  0
   13.1704   26.3375   -1.5972 C   0  0  0  0  0  0  0  0  0  0  0  0
   12.0712   26.0133   -0.7174 N   0  0  0  0  0  0  0  0  0  0  0  0
   11.3545   25.0110   -1.3748 C   0  0  0  0  0  0  0  0  0  0  0  0
   12.3084   24.2294   -2.2343 C   0  0  0  0  0  0  0  0  0  0  0  0
   12.5903   22.9765   -1.7426 F   0  0  0  0  0  0  0  0  0  0  0  0
   15.0389   25.9908   -3.8574 C   0  0  0  0  0  0  0  0  0  0  0  0
   13.8343   25.3645   -3.6928 O   0  0  0  0  0  0  0  0  0  0  0  0
 28 29  1  0  0  0
 29 22  1  0  0  0
 22 23  1  0  0  0
 23 24  1  0  0  0
 24  1  1  0  0  0
  1  2  1  0  0  0
  2  3  1  0  0  0
  3  4  1  0  0  0
  3  5  1  0  0  0
  5  6  1  0  0  0
  6  8  1  0  0  0
  8  9  1  0  0  0
  9 10  1  0  0  0
 10 11  1  0  0  0
 11 12  1  0  0  0
 11 13  1  0  0  0
 13 14  1  0  0  0
 14 15  1  0  0  0
 15 16  1  0  0  0
 15 17  1  0  0  0
 17 18  2  0  0  0
 17 19  1  0  0  0
 19 20  1  0  0  0
 24 25  1  0  0  0
 25 26  1  0  0  0
 26 27  1  0  0  0
 26 22  1  0  0  0
  6  1  1  0  0  0
 20  8  1  0  0  0
 20 11  1  0  0  0
  4  7  1  0  0  0
 16 21  1  0  0  0
M  END
> <minimizedAffinity>
10.96193

> <CNNscore>
0.5390094519

> <CNNaffinity>
6.3935556412

> <CNN_VS>
3.4461870193

> <CNNaffinity_variance>
0.5838890076

$$$$
[H]O[C@]1([H])C([H])([H])[C@@]([H])(N2C([H])([H])[C@]([H])(F)[C@@]([H])(OC([H])([H])[H])C2([H])[H])[C@@]([H])([C@@]2([H])C([H])([H])C([H])([H])[C@@]3(C([H])([H])[H])C([H])([H])C([H])([H])[C@@]([H])(O[H])C(=O)O[C@@]32[H])C1([H])[H]


 29 32  0  0  0  0  0  0  0  0999 V2000
   12.6538   25.4706    0.9528 C   0  0  0  0  0  0  0  0  0  0  0  0
   13.0116   26.6176    1.8830 C   0  0  0  0  0  0  0  0  0  0  0  0
   14.4839   26.8878    1.6023 C   0  0  0  0  0  0  0  0  0  0  0  0
   15.1953   27.0647    2.7860 O   0  0  0  0  0  0  0  0  0  0  0  0
   15.0062   25.6841    0.8568 C   0  0  0  0  0  0  0  0  0  0  0  0
   13.8920   24.7079    0.9695 C   0  0  0  0  0  0  0  0  0  0  0  0
   15.7574   27.8613    2.7650 H   0  0  0  0  0  0  0  0  0  0  0  0
   14.0621   23.4632    0.2282 C   0  0  0  0  0  0  0  0  0  0  0  0
   13.0805   22.3825    0.5653 C   0  0  0  0  0  0  0  0  0  0  0  0
   13.2484   21.3797   -0.5799 C   0  0  0  0  0  0  0  0  0  0  0  0
   14.3783   21.9330   -1.4531 C   0  0  0  0  0  0  0  0  0  0  0  0
   15.6778   21.4965   -0.8833 C   0  0  0  0  0  0  0  0  0  0  0  0
   14.1395   21.5892   -2.8785 C   0  0  0  0  0  0  0  0  0  0  0  0
   15.3302   21.7046   -3.7616 C   0  0  0  0  0  0  0  0  0  0  0  0
   15.7085   23.1311   -4.0847 C   0  0  0  0  0  0  0  0  0  0  0  0
   14.7650   23.7346   -4.9166 O   0  0  0  0  0  0  0  0  0  0  0  0
   16.0164   23.9310   -2.8974 C   0  0  0  0  0  0  0  0  0  0  0  0
   17.1464   24.5208   -2.8305 O   0  0  0  0  0  0  0  0  0  0  0  0
   15.2069   24.1374   -1.7952 O   0  0  0  0  0  0  0  0  0  0  0  0
   14.1283   23.4476   -1.2437 C   0  0  0  0  0  0  0  0  0  0  0  0
   14.2278   23.0112   -5.3257 H   0  0  0  0  0  0  0  0  0  0  0  0
   12.5787   25.1024   -2.3395 C   0  0  0  0  0  0  0  0  0  0  0  0
   12.7086   26.1729   -1.3348 C   0  0  0  0  0  0  0  0  0  0  0  0
   11.9280   25.7709   -0.1874 N   0  0  0  0  0  0  0  0  0  0  0  0
   10.9009   24.9750   -0.6993 C   0  0  0  0  0  0  0  0  0  0  0  0
   11.3972   24.3032   -1.9491 C   0  0  0  0  0  0  0  0  0  0  0  0
   11.6466   22.9604   -1.7889 F   0  0  0  0  0  0  0  0  0  0  0  0
   13.3386   26.6195   -3.9339 C   0  0  0  0  0  0  0  0  0  0  0  0
   12.4987   25.5771   -3.6543 O   0  0  0  0  0  0  0  0  0  0  0  0
 28 29  1  0  0  0
 29 22  1  0  0  0
 22 23  1  0  0  0
 23 24  1  0  0  0
 24  1  1  0  0  0
  1  2  1  0  0  0
  2  3  1  0  0  0
  3  4  1  0  0  0
  3  5  1  0  0  0
  5  6  1  0  0  0
  6  8  1  0  0  0
  8  9  1  0  0  0
  9 10  1  0  0  0
 10 11  1  0  0  0
 11 12  1  0  0  0
 11 13  1  0  0  0
 13 14  1  0  0  0
 14 15  1  0  0  0
 15 16  1  0  0  0
 15 17  1  0  0  0
 17 18  2  0  0  0
 17 19  1  0  0  0
 19 20  1  0  0  0
 24 25  1  0  0  0
 25 26  1  0  0  0
 26 27  1  0  0  0
 26 22  1  0  0  0
  6  1  1  0  0  0
 20  8  1  0  0  0
 20 11  1  0  0  0
  4  7  1  0  0  0
 16 21  1  0  0  0
M  END
> <minimizedAffinity>
7.44154

> <CNNscore>
0.5064945817

> <CNNaffinity>
6.4816198349

> <CNN_VS>
3.2829053402

> <CNNaffinity_variance>
0.5542684793

$$$$
[H]O[C@]1([H])C([H])([H])[C@@]([H])(N2C([H])([H])[C@]([H])(F)[C@@]([H])(OC([H])([H])[H])C2([H])[H])[C@@]([H])([C@@]2([H])C([H])([H])C([H])([H])[C@@]3(C([H])([H])[H])C([H])([H])C([H])([H])[C@@]([H])(O[H])C(=O)O[C@@]32[H])C1([H])[H]


 29 32  0  0  0  0  0  0  0  0999 V2000
   12.4879   23.0021   -0.7950 C   0  0  0  0  0  0  0  0  0  0  0  0
   11.8869   21.6451   -1.1209 C   0  0  0  0  0  0  0  0  0  0  0  0
   13.0859   20.7098   -1.2040 C   0  0  0  0  0  0  0  0  0  0  0  0
   12.9901   19.8694   -2.3099 O   0  0  0  0  0  0  0  0  0  0  0  0
   14.3075   21.5881   -1.3227 C   0  0  0  0  0  0  0  0  0  0  0  0
   13.7310   22.9389   -1.5470 C   0  0  0  0  0  0  0  0  0  0  0  0
   13.1521   18.9355   -2.0807 H   0  0  0  0  0  0  0  0  0  0  0  0
   14.6884   24.0389   -1.5828 C   0  0  0  0  0  0  0  0  0  0  0  0
   15.9658   23.7952   -0.8385 C   0  0  0  0  0  0  0  0  0  0  0  0
   16.8895   24.9074   -1.3436 C   0  0  0  0  0  0  0  0  0  0  0  0
   16.0368   25.7559   -2.2915 C   0  0  0  0  0  0  0  0  0  0  0  0
   15.2807   26.7508   -1.4901 C   0  0  0  0  0  0  0  0  0  0  0  0
   16.8779   26.3009   -3.3881 C   0  0  0  0  0  0  0  0  0  0  0  0
   16.2823   27.4440   -4.1293 C   0  0  0  0  0  0  0  0  0  0  0  0
   15.1716   27.0420   -5.0713 C   0  0  0  0  0  0  0  0  0  0  0  0
   15.6599   26.3136   -6.1564 O   0  0  0  0  0  0  0  0  0  0  0  0
   14.0526   26.3801   -4.3974 C   0  0  0  0  0  0  0  0  0  0  0  0
   12.8785   26.8595   -4.5417 O   0  0  0  0  0  0  0  0  0  0  0  0
   14.1076   25.2569   -3.5924 O   0  0  0  0  0  0  0  0  0  0  0  0
   15.1193   24.6423   -2.8560 C   0  0  0  0  0  0  0  0  0  0  0  0
   16.6351   26.4745   -6.2039 H   0  0  0  0  0  0  0  0  0  0  0  0
   10.3597   24.2090    1.4399 C   0  0  0  0  0  0  0  0  0  0  0  0
   11.5553   24.6322    0.6890 C   0  0  0  0  0  0  0  0  0  0  0  0
   12.3767   23.4576    0.5078 N   0  0  0  0  0  0  0  0  0  0  0  0
   12.1016   22.6408    1.6067 C   0  0  0  0  0  0  0  0  0  0  0  0
   10.6920   22.9064    2.0561 C   0  0  0  0  0  0  0  0  0  0  0  0
    9.8168   21.8916    1.7475 F   0  0  0  0  0  0  0  0  0  0  0  0
    9.3450   24.6207    3.4947 C   0  0  0  0  0  0  0  0  0  0  0  0
    9.9253   25.1542    2.3771 O   0  0  0  0  0  0  0  0  0  0  0  0
 28 29  1  0  0  0
 29 22  1  0  0  0
 22 23  1  0  0  0
 23 24  1  0  0  0
 24  1  1  0  0  0
  1  2  1  0  0  0
  2  3  1  0  0  0
  3  4  1  0  0  0
  3  5  1  0  0  0
  5  6  1  0  0  0
  6  8  1  0  0  0
  8  9  1  0  0  0
  9 10  1  0  0  0
 10 11  1  0  0  0
 11 12  1  0  0  0
 11 13  1  0  0  0
 13 14  1  0  0  0
 14 15  1  0  0  0
 15 16  1  0  0  0
 15 17  1  0  0  0
 17 18  2  0  0  0
 17 19  1  0  0  0
 19 20  1  0  0  0
 24 25  1  0  0  0
 25 26  1  0  0  0
 26 27  1  0  0  0
 26 22  1  0  0  0
  6  1  1  0  0  0
 20  8  1  0  0  0
 20 11  1  0  0  0
  4  7  1  0  0  0
 16 21  1  0  0  0
M  END
> <minimizedAffinity>
-5.08869

> <CNNscore>
0.4965911508

> <CNNaffinity>
6.7966375351

> <CNN_VS>
3.3751499653

> <CNNaffinity_variance>
0.4400969148

$$$$
[H]O[C@]1([H])C([H])([H])[C@@]([H])(N2C([H])([H])[C@]([H])(F)[C@@]([H])(OC([H])([H])[H])C2([H])[H])[C@@]([H])([C@@]2([H])C([H])([H])C([H])([H])[C@@]3(C([H])([H])[H])C([H])([H])C([H])([H])[C@@]([H])(O[H])C(=O)O[C@@]32[H])C1([H])[H]


 29 32  0  0  0  0  0  0  0  0999 V2000
   13.7161   22.7748   -1.3879 C   0  0  0  0  0  0  0  0  0  0  0  0
   14.2803   22.2373   -0.0835 C   0  0  0  0  0  0  0  0  0  0  0  0
   14.6914   23.4813    0.6927 C   0  0  0  0  0  0  0  0  0  0  0  0
   15.9441   23.3158    1.2775 O   0  0  0  0  0  0  0  0  0  0  0  0
   14.7280   24.6152   -0.3026 C   0  0  0  0  0  0  0  0  0  0  0  0
   14.5819   23.9223   -1.6086 C   0  0  0  0  0  0  0  0  0  0  0  0
   15.9499   23.5693    2.2191 H   0  0  0  0  0  0  0  0  0  0  0  0
   14.4617   24.7885   -2.7760 C   0  0  0  0  0  0  0  0  0  0  0  0
   13.0640   24.9922   -3.2761 C   0  0  0  0  0  0  0  0  0  0  0  0
   13.1957   26.1890   -4.2224 C   0  0  0  0  0  0  0  0  0  0  0  0
   14.6875   26.5341   -4.2493 C   0  0  0  0  0  0  0  0  0  0  0  0
   15.3583   25.6697   -5.2526 C   0  0  0  0  0  0  0  0  0  0  0  0
   14.8717   27.9985   -4.4184 C   0  0  0  0  0  0  0  0  0  0  0  0
   16.2289   28.4152   -4.8603 C   0  0  0  0  0  0  0  0  0  0  0  0
   17.2735   28.3274   -3.7723 C   0  0  0  0  0  0  0  0  0  0  0  0
   17.0647   29.2898   -2.7840 O   0  0  0  0  0  0  0  0  0  0  0  0
   17.4306   26.9767   -3.2288 C   0  0  0  0  0  0  0  0  0  0  0  0
   18.5895   26.4420   -3.2382 O   0  0  0  0  0  0  0  0  0  0  0  0
   16.4442   26.1743   -2.6848 O   0  0  0  0  0  0  0  0  0  0  0  0
   15.0552   26.1370   -2.7975 C   0  0  0  0  0  0  0  0  0  0  0  0
   16.4631   29.9770   -3.1649 H   0  0  0  0  0  0  0  0  0  0  0  0
   10.8561   22.1937    0.1817 C   0  0  0  0  0  0  0  0  0  0  0  0
   11.6409   21.6658   -0.9486 C   0  0  0  0  0  0  0  0  0  0  0  0
   12.3395   22.7857   -1.5361 N   0  0  0  0  0  0  0  0  0  0  0  0
   11.5298   23.8968   -1.2904 C   0  0  0  0  0  0  0  0  0  0  0  0
   10.7641   23.6560   -0.0194 C   0  0  0  0  0  0  0  0  0  0  0  0
   11.2128   24.4055    1.0426 F   0  0  0  0  0  0  0  0  0  0  0  0
    9.0863   21.0744   -0.8362 C   0  0  0  0  0  0  0  0  0  0  0  0
    9.6015   21.5882    0.3218 O   0  0  0  0  0  0  0  0  0  0  0  0
 28 29  1  0  0  0
 29 22  1  0  0  0
 22 23  1  0  0  0
 23 24  1  0  0  0
 24  1  1  0  0  0
  1  2  1  0  0  0
  2  3  1  0  0  0
  3  4  1  0  0  0
  3  5  1  0  0  0
  5  6  1  0  0  0
  6  8  1  0  0  0
  8  9  1  0  0  0
  9 10  1  0  0  0
 10 11  1  0  0  0
 11 12  1  0  0  0
 11 13  1  0  0  0
 13 14  1  0  0  0
 14 15  1  0  0  0
 15 16  1  0  0  0
 15 17  1  0  0  0
 17 18  2  0  0  0
 17 19  1  0  0  0
 19 20  1  0  0  0
 24 25  1  0  0  0
 25 26  1  0  0  0
 26 27  1  0  0  0
 26 22  1  0  0  0
  6  1  1  0  0  0
 20  8  1  0  0  0
 20 11  1  0  0  0
  4  7  1  0  0  0
 16 21  1  0  0  0
M  END
> <minimizedAffinity>
-3.37323

> <CNNscore>
0.4929338396

> <CNNaffinity>
6.9205408096

> <CNN_VS>
3.4113688469

> <CNNaffinity_variance>
0.2192341387

$$$$
[H]O[C@]1([H])C([H])([H])[C@@]([H])(N2C([H])([H])[C@]([H])(F)[C@@]([H])(OC([H])([H])[H])C2([H])[H])[C@@]([H])([C@@]2([H])C([H])([H])C([H])([H])[C@@]3(C([H])([H])[H])C([H])([H])C([H])([H])[C@@]([H])(O[H])C(=O)O[C@@]32[H])C1([H])[H]


 29 32  0  0  0  0  0  0  0  0999 V2000
   13.5862   24.2972   -2.5470 C   0  0  0  0  0  0  0  0  0  0  0  0
   13.3982   22.8734   -2.0509 C   0  0  0  0  0  0  0  0  0  0  0  0
   14.7163   22.1825   -2.3742 C   0  0  0  0  0  0  0  0  0  0  0  0
   14.4994   20.9236   -2.9280 O   0  0  0  0  0  0  0  0  0  0  0  0
   15.4338   23.0687   -3.3628 C   0  0  0  0  0  0  0  0  0  0  0  0
   14.3996   24.0697   -3.7309 C   0  0  0  0  0  0  0  0  0  0  0  0
   15.0378   20.2325   -2.4996 H   0  0  0  0  0  0  0  0  0  0  0  0
   14.8458   25.1517   -4.6015 C   0  0  0  0  0  0  0  0  0  0  0  0
   13.8904   25.5248   -5.6938 C   0  0  0  0  0  0  0  0  0  0  0  0
   14.4225   26.8737   -6.1863 C   0  0  0  0  0  0  0  0  0  0  0  0
   15.6983   27.1354   -5.3805 C   0  0  0  0  0  0  0  0  0  0  0  0
   16.8321   26.4471   -6.0473 C   0  0  0  0  0  0  0  0  0  0  0  0
   15.8645   28.5924   -5.1431 C   0  0  0  0  0  0  0  0  0  0  0  0
   17.2327   29.0121   -4.7398 C   0  0  0  0  0  0  0  0  0  0  0  0
   17.5789   28.6575   -3.3126 C   0  0  0  0  0  0  0  0  0  0  0  0
   16.8440   29.4194   -2.4037 O   0  0  0  0  0  0  0  0  0  0  0  0
   17.5085   27.2204   -3.0402 C   0  0  0  0  0  0  0  0  0  0  0  0
   18.5366   26.6352   -2.5610 O   0  0  0  0  0  0  0  0  0  0  0  0
   16.4271   26.3828   -3.2438 O   0  0  0  0  0  0  0  0  0  0  0  0
   15.2943   26.4440   -4.0541 C   0  0  0  0  0  0  0  0  0  0  0  0
   16.4853   30.1994   -2.8958 H   0  0  0  0  0  0  0  0  0  0  0  0
   12.7883   25.3245    0.5007 C   0  0  0  0  0  0  0  0  0  0  0  0
   12.6621   25.7672   -0.8994 C   0  0  0  0  0  0  0  0  0  0  0  0
   13.8268   25.2801   -1.6020 N   0  0  0  0  0  0  0  0  0  0  0  0
   14.8389   25.2182   -0.6417 C   0  0  0  0  0  0  0  0  0  0  0  0
   14.2084   24.9621    0.6986 C   0  0  0  0  0  0  0  0  0  0  0  0
   14.4095   23.6842    1.1650 F   0  0  0  0  0  0  0  0  0  0  0  0
   13.2601   27.2279    1.7560 C   0  0  0  0  0  0  0  0  0  0  0  0
   12.3388   26.2717    1.4287 O   0  0  0  0  0  0  0  0  0  0  0  0
 28 29  1  0  0  0
 29 22  1  0  0  0
 22 23  1  0  0  0
 23 24  1  0  0  0
 24  1  1  0  0  0
  1  2  1  0  0  0
  2  3  1  0  0  0
  3  4  1  0  0  0
  3  5  1  0  0  0
  5  6  1  0  0  0
  6  8  1  0  0  0
  8  9  1  0  0  0
  9 10  1  0  0  0
 10 11  1  0  0  0
 11 12  1  0  0  0
 11 13  1  0  0  0
 13 14  1  0  0  0
 14 15  1  0  0  0
 15 16  1  0  0  0
 15 17  1  0  0  0
 17 18  2  0  0  0
 17 19  1  0  0  0
 19 20  1  0  0  0
 24 25  1  0  0  0
 25 26  1  0  0  0
 26 27  1  0  0  0
 26 22  1  0  0  0
  6  1  1  0  0  0
 20  8  1  0  0  0
 20 11  1  0  0  0
  4  7  1  0  0  0
 16 21  1  0  0  0
M  END
> <minimizedAffinity>
6.89891

> <CNNscore>
0.4783323705

> <CNNaffinity>
6.5236907005

> <CNN_VS>
3.1204924583

> <CNNaffinity_variance>
0.5037962198

$$$$
[H]O[C@]1([H])C([H])([H])[C@@]([H])(N2C([H])([H])[C@]([H])(F)[C@@]([H])(OC([H])([H])[H])C2([H])[H])[C@@]([H])([C@@]2([H])C([H])([H])C([H])([H])[C@@]3(C([H])([H])[H])C([H])([H])C([H])([H])[C@@]([H])(O[H])C(=O)O[C@@]32[H])C1([H])[H]


 29 32  0  0  0  0  0  0  0  0999 V2000
   13.5346   24.6504   -3.2809 C   0  0  0  0  0  0  0  0  0  0  0  0
   13.0106   26.0760   -3.2380 C   0  0  0  0  0  0  0  0  0  0  0  0
   13.3857   26.5759   -1.8492 C   0  0  0  0  0  0  0  0  0  0  0  0
   12.3267   27.2621   -1.2609 O   0  0  0  0  0  0  0  0  0  0  0  0
   13.7314   25.3546   -1.0328 C   0  0  0  0  0  0  0  0  0  0  0  0
   13.3039   24.2322   -1.9073 C   0  0  0  0  0  0  0  0  0  0  0  0
   12.6023   28.1205   -0.8892 H   0  0  0  0  0  0  0  0  0  0  0  0
   13.6270   22.8940   -1.4249 C   0  0  0  0  0  0  0  0  0  0  0  0
   15.0296   22.4417   -1.6950 C   0  0  0  0  0  0  0  0  0  0  0  0
   15.1903   21.2195   -0.7862 C   0  0  0  0  0  0  0  0  0  0  0  0
   13.8282   21.0197   -0.1154 C   0  0  0  0  0  0  0  0  0  0  0  0
   12.9616   20.2276   -1.0239 C   0  0  0  0  0  0  0  0  0  0  0  0
   14.0072   20.4784    1.2564 C   0  0  0  0  0  0  0  0  0  0  0  0
   12.7911   19.8674    1.8554 C   0  0  0  0  0  0  0  0  0  0  0  0
   11.7619   20.8796    2.3014 C   0  0  0  0  0  0  0  0  0  0  0  0
   12.2045   21.6055    3.4076 O   0  0  0  0  0  0  0  0  0  0  0  0
   11.2816   21.7341    1.2135 C   0  0  0  0  0  0  0  0  0  0  0  0
   10.0271   21.7911    0.9857 O   0  0  0  0  0  0  0  0  0  0  0  0
   12.0442   22.5187    0.3677 O   0  0  0  0  0  0  0  0  0  0  0  0
   13.3813   22.5006   -0.0264 C   0  0  0  0  0  0  0  0  0  0  0  0
   12.9541   21.1005    3.8103 H   0  0  0  0  0  0  0  0  0  0  0  0
   15.3895   25.7359   -5.8032 C   0  0  0  0  0  0  0  0  0  0  0  0
   14.5930   24.5546   -5.4256 C   0  0  0  0  0  0  0  0  0  0  0  0
   14.6995   24.4154   -3.9915 N   0  0  0  0  0  0  0  0  0  0  0  0
   15.9460   24.9507   -3.6595 C   0  0  0  0  0  0  0  0  0  0  0  0
   16.2894   26.0156   -4.6634 C   0  0  0  0  0  0  0  0  0  0  0  0
   16.1936   27.2930   -4.1635 F   0  0  0  0  0  0  0  0  0  0  0  0
   16.4944   26.7520   -7.5830 C   0  0  0  0  0  0  0  0  0  0  0  0
   16.0806   25.5808   -7.0110 O   0  0  0  0  0  0  0  0  0  0  0  0
 28 29  1  0  0  0
 29 22  1  0  0  0
 22 23  1  0  0  0
 23 24  1  0  0  0
 24  1  1  0  0  0
  1  2  1  0  0  0
  2  3  1  0  0  0
  3  4  1  0  0  0
  3  5  1  0  0  0
  5  6  1  0  0  0
  6  8  1  0  0  0
  8  9  1  0  0  0
  9 10  1  0  0  0
 10 11  1  0  0  0
 11 12  1  0  0  0
 11 13  1  0  0  0
 13 14  1  0  0  0
 14 15  1  0  0  0
 15 16  1  0  0  0
 15 17  1  0  0  0
 17 18  2  0  0  0
 17 19  1  0  0  0
 19 20  1  0  0  0
 24 25  1  0  0  0
 25 26  1  0  0  0
 26 27  1  0  0  0
 26 22  1  0  0  0
  6  1  1  0  0  0
 20  8  1  0  0  0
 20 11  1  0  0  0
  4  7  1  0  0  0
 16 21  1  0  0  0
M  END
> <minimizedAffinity>
1.44135

> <CNNscore>
0.4509297609

> <CNNaffinity>
6.9211511612

> <CNN_VS>
3.1209530830

> <CNNaffinity_variance>
1.2375673056

$$$$
[H]c1nn(C([H])([H])[C@@]([H])(F)N2C([H])([H])C([H])([H])N(C([H])([H])[H])C([H])([H])C2([H])[H])c([H])c1-c1c([H])c2c3c(nc([H])c2n1C([H])([H])C([H])([H])F)SC(N([H])[H])=NC(N([H])C([H])([H])c1c([H])c([H])c([H])c([H])c1[H])=N3


 44 49  0  0  0  0  0  0  0  0999 V2000
   12.2992   25.5035   -2.4862 C   0  0  0  0  0  0  0  0  0  0  0  0
   13.5806   25.1767   -2.0076 C   0  0  0  0  0  0  0  0  0  0  0  0
   13.5450   24.0323   -1.2586 C   0  0  0  0  0  0  0  0  0  0  0  0
   12.2313   23.6411   -1.2702 C   0  0  0  0  0  0  0  0  0  0  0  0
   11.9232   22.4900   -0.5730 C   0  0  0  0  0  0  0  0  0  0  0  0
   12.8923   21.7974    0.0844 N   0  0  0  0  0  0  0  0  0  0  0  0
   14.1792   22.1737    0.1009 C   0  0  0  0  0  0  0  0  0  0  0  0
   15.2499   21.0966    1.0390 S   0  0  0  0  0  0  0  0  0  0  0  0
   16.6033   22.0620    1.6700 C   0  0  0  0  0  0  0  0  0  0  0  0
   17.1376   21.5905    2.8910 N   0  0  0  0  0  0  0  0  0  0  0  0
   17.1073   23.0996    1.1328 N   0  0  0  0  0  0  0  0  0  0  0  0
   16.8609   23.8342   -0.0182 C   0  0  0  0  0  0  0  0  0  0  0  0
   15.7821   23.9012   -0.7072 N   0  0  0  0  0  0  0  0  0  0  0  0
   14.5271   23.3038   -0.5745 C   0  0  0  0  0  0  0  0  0  0  0  0
   11.5044   24.5359   -2.0110 N   0  0  0  0  0  0  0  0  0  0  0  0
   17.8985   22.1018    3.3819 H   0  0  0  0  0  0  0  0  0  0  0  0
   16.7786   20.7203    3.3238 H   0  0  0  0  0  0  0  0  0  0  0  0
   11.1816   28.5367   -4.2557 N   0  0  0  0  0  0  0  0  0  0  0  0
   11.0722   27.6580   -3.2099 C   0  0  0  0  0  0  0  0  0  0  0  0
   12.0020   26.6688   -3.3154 C   0  0  0  0  0  0  0  0  0  0  0  0
   12.6963   26.9835   -4.4869 C   0  0  0  0  0  0  0  0  0  0  0  0
   12.1704   28.0962   -5.0020 N   0  0  0  0  0  0  0  0  0  0  0  0
   10.3915   29.7219   -4.5201 C   0  0  0  0  0  0  0  0  0  0  0  0
    9.2635   29.3071   -5.4417 C   0  0  0  0  0  0  0  0  0  0  0  0
    9.2541   27.9380   -5.6225 F   0  0  0  0  0  0  0  0  0  0  0  0
    5.2201   30.3397   -3.4150 C   0  0  0  0  0  0  0  0  0  0  0  0
    6.0212   29.2410   -2.9739 N   0  0  0  0  0  0  0  0  0  0  0  0
    6.2387   28.2194   -3.9583 C   0  0  0  0  0  0  0  0  0  0  0  0
    6.9427   28.7474   -5.1511 C   0  0  0  0  0  0  0  0  0  0  0  0
    7.9623   29.6934   -4.9655 N   0  0  0  0  0  0  0  0  0  0  0  0
    7.9815   30.4465   -3.7570 C   0  0  0  0  0  0  0  0  0  0  0  0
    7.3342   29.7448   -2.5901 C   0  0  0  0  0  0  0  0  0  0  0  0
   17.9139   24.6264   -0.5118 N   0  0  0  0  0  0  0  0  0  0  0  0
   18.3883   25.2540    0.1816 H   0  0  0  0  0  0  0  0  0  0  0  0
   18.3460   24.6090   -1.8727 C   0  0  0  0  0  0  0  0  0  0  0  0
   17.4227   25.4247   -2.6932 C   0  0  0  0  0  0  0  0  0  0  0  0
   16.5649   24.8253   -3.5871 C   0  0  0  0  0  0  0  0  0  0  0  0
   15.6981   25.5682   -4.3564 C   0  0  0  0  0  0  0  0  0  0  0  0
   15.6537   26.9423   -4.2632 C   0  0  0  0  0  0  0  0  0  0  0  0
   16.5093   27.5514   -3.3703 C   0  0  0  0  0  0  0  0  0  0  0  0
   17.3680   26.8019   -2.6095 C   0  0  0  0  0  0  0  0  0  0  0  0
   10.0870   24.3584   -2.2074 C   0  0  0  0  0  0  0  0  0  0  0  0
    9.3652   24.0493   -0.9068 C   0  0  0  0  0  0  0  0  0  0  0  0
    9.1353   22.6789   -0.7760 F   0  0  0  0  0  0  0  0  0  0  0  0
 26 27  1  0  0  0
 27 28  1  0  0  0
 28 29  1  0  0  0
 29 30  1  0  0  0
 30 31  1  0  0  0
 31 32  1  0  0  0
 30 24  1  0  0  0
 24 25  1  0  0  0
 24 23  1  0  0  0
 23 18  1  0  0  0
 18 19  1  0  0  0
 19 20  2  0  0  0
 20 21  1  0  0  0
 21 22  2  0  0  0
 20  1  1  0  0  0
  1  2  2  0  0  0
  2  3  1  0  0  0
  3  4  2  0  0  0
  4  5  1  0  0  0
  5  6  2  0  0  0
  6  7  1  0  0  0
  7  8  1  0  0  0
  8  9  1  0  0  0
  9 10  1  0  0  0
  9 11  2  0  0  0
 11 12  1  0  0  0
 12 33  1  0  0  0
 33 35  1  0  0  0
 35 36  1  0  0  0
 36 37  2  0  0  0
 37 38  1  0  0  0
 38 39  2  0  0  0
 39 40  1  0  0  0
 40 41  2  0  0  0
 12 13  2  0  0  0
 13 14  1  0  0  0
  4 15  1  0  0  0
 15 42  1  0  0  0
 42 43  1  0  0  0
 43 44  1  0  0  0
 32 27  1  0  0  0
 22 18  1  0  0  0
 15  1  1  0  0  0
 14  3  1  0  0  0
 14  7  2  0  0  0
 41 36  1  0  0  0
 10 16  1  0  0  0
 10 17  1  0  0  0
 33 34  1  0  0  0
M  END
> <minimizedAffinity>
23.08303

> <CNNscore>
0.5898070335

> <CNNaffinity>
8.0232038498

> <CNN_VS>
4.7321419716

> <CNNaffinity_variance>
2.3713974953

$$$$
[H]c1nn(C([H])([H])[C@@]([H])(F)N2C([H])([H])C([H])([H])N(C([H])([H])[H])C([H])([H])C2([H])[H])c([H])c1-c1c([H])c2c3c(nc([H])c2n1C([H])([H])C([H])([H])F)SC(N([H])[H])=NC(N([H])C([H])([H])c1c([H])c([H])c([H])c([H])c1[H])=N3


 44 49  0  0  0  0  0  0  0  0999 V2000
   13.1205   26.6226   -3.4022 C   0  0  0  0  0  0  0  0  0  0  0  0
   12.8586   25.8437   -2.2610 C   0  0  0  0  0  0  0  0  0  0  0  0
   13.9407   25.0712   -1.9380 C   0  0  0  0  0  0  0  0  0  0  0  0
   14.8858   25.3706   -2.8847 C   0  0  0  0  0  0  0  0  0  0  0  0
   16.0945   24.7116   -2.7810 C   0  0  0  0  0  0  0  0  0  0  0  0
   16.3116   23.8149   -1.7811 N   0  0  0  0  0  0  0  0  0  0  0  0
   15.3923   23.5163   -0.8518 C   0  0  0  0  0  0  0  0  0  0  0  0
   15.9230   22.3053    0.3475 S   0  0  0  0  0  0  0  0  0  0  0  0
   14.4915   21.4217    0.9238 C   0  0  0  0  0  0  0  0  0  0  0  0
   14.7482   20.0893    1.3202 N   0  0  0  0  0  0  0  0  0  0  0  0
   13.3049   21.8744    1.0039 N   0  0  0  0  0  0  0  0  0  0  0  0
   12.6883   23.0840    0.7183 C   0  0  0  0  0  0  0  0  0  0  0  0
   13.0744   24.0079   -0.0820 N   0  0  0  0  0  0  0  0  0  0  0  0
   14.1854   24.1439   -0.9166 C   0  0  0  0  0  0  0  0  0  0  0  0
   14.3733   26.3013   -3.7501 N   0  0  0  0  0  0  0  0  0  0  0  0
   13.9804   19.4589    1.6276 H   0  0  0  0  0  0  0  0  0  0  0  0
   15.7131   19.7121    1.3119 H   0  0  0  0  0  0  0  0  0  0  0  0
   10.7469   29.2229   -4.4909 N   0  0  0  0  0  0  0  0  0  0  0  0
   11.6089   28.7114   -3.5566 C   0  0  0  0  0  0  0  0  0  0  0  0
   12.1661   27.5516   -4.0023 C   0  0  0  0  0  0  0  0  0  0  0  0
   11.6011   27.3718   -5.2680 C   0  0  0  0  0  0  0  0  0  0  0  0
   10.7701   28.3880   -5.5063 N   0  0  0  0  0  0  0  0  0  0  0  0
    9.9552   30.4339   -4.4155 C   0  0  0  0  0  0  0  0  0  0  0  0
    8.6767   30.0838   -3.6830 C   0  0  0  0  0  0  0  0  0  0  0  0
    8.2968   31.1086   -2.8389 F   0  0  0  0  0  0  0  0  0  0  0  0
    5.0509   28.7147   -6.2328 C   0  0  0  0  0  0  0  0  0  0  0  0
    5.9273   27.7733   -5.6089 N   0  0  0  0  0  0  0  0  0  0  0  0
    7.2930   27.8393   -6.0453 C   0  0  0  0  0  0  0  0  0  0  0  0
    7.8960   29.1638   -5.7633 C   0  0  0  0  0  0  0  0  0  0  0  0
    7.5704   29.8077   -4.5598 N   0  0  0  0  0  0  0  0  0  0  0  0
    6.3716   29.4328   -3.8889 C   0  0  0  0  0  0  0  0  0  0  0  0
    5.9301   28.0192   -4.1720 C   0  0  0  0  0  0  0  0  0  0  0  0
   11.4723   23.3549    1.3725 N   0  0  0  0  0  0  0  0  0  0  0  0
   11.0902   24.3251    1.2609 H   0  0  0  0  0  0  0  0  0  0  0  0
   10.7637   22.3931    2.1548 C   0  0  0  0  0  0  0  0  0  0  0  0
    9.6328   21.8537    1.3665 C   0  0  0  0  0  0  0  0  0  0  0  0
    8.3394   22.2286    1.6507 C   0  0  0  0  0  0  0  0  0  0  0  0
    7.2761   21.7387    0.9265 C   0  0  0  0  0  0  0  0  0  0  0  0
    7.4629   20.8530   -0.1125 C   0  0  0  0  0  0  0  0  0  0  0  0
    8.7551   20.4720   -0.4044 C   0  0  0  0  0  0  0  0  0  0  0  0
    9.8061   20.9661    0.3232 C   0  0  0  0  0  0  0  0  0  0  0  0
   15.1636   26.8142   -4.8416 C   0  0  0  0  0  0  0  0  0  0  0  0
   15.9584   28.0455   -4.4411 C   0  0  0  0  0  0  0  0  0  0  0  0
   16.2223   28.8524   -5.5490 F   0  0  0  0  0  0  0  0  0  0  0  0
 26 27  1  0  0  0
 27 28  1  0  0  0
 28 29  1  0  0  0
 29 30  1  0  0  0
 30 31  1  0  0  0
 31 32  1  0  0  0
 30 24  1  0  0  0
 24 25  1  0  0  0
 24 23  1  0  0  0
 23 18  1  0  0  0
 18 19  1  0  0  0
 19 20  2  0  0  0
 20 21  1  0  0  0
 21 22  2  0  0  0
 20  1  1  0  0  0
  1  2  2  0  0  0
  2  3  1  0  0  0
  3  4  2  0  0  0
  4  5  1  0  0  0
  5  6  2  0  0  0
  6  7  1  0  0  0
  7  8  1  0  0  0
  8  9  1  0  0  0
  9 10  1  0  0  0
  9 11  2  0  0  0
 11 12  1  0  0  0
 12 33  1  0  0  0
 33 35  1  0  0  0
 35 36  1  0  0  0
 36 37  2  0  0  0
 37 38  1  0  0  0
 38 39  2  0  0  0
 39 40  1  0  0  0
 40 41  2  0  0  0
 12 13  2  0  0  0
 13 14  1  0  0  0
  4 15  1  0  0  0
 15 42  1  0  0  0
 42 43  1  0  0  0
 43 44  1  0  0  0
 32 27  1  0  0  0
 22 18  1  0  0  0
 15  1  1  0  0  0
 14  3  1  0  0  0
 14  7  2  0  0  0
 41 36  1  0  0  0
 10 16  1  0  0  0
 10 17  1  0  0  0
 33 34  1  0  0  0
M  END
> <minimizedAffinity>
11.65535

> <CNNscore>
0.5749170184

> <CNNaffinity>
8.0327529907

> <CNN_VS>
4.6181664467

> <CNNaffinity_variance>
1.1602367163

$$$$
[H]c1nn(C([H])([H])[C@@]([H])(F)N2C([H])([H])C([H])([H])N(C([H])([H])[H])C([H])([H])C2([H])[H])c([H])c1-c1c([H])c2c3c(nc([H])c2n1C([H])([H])C([H])([H])F)SC(N([H])[H])=NC(N([H])C([H])([H])c1c([H])c([H])c([H])c([H])c1[H])=N3


 44 49  0  0  0  0  0  0  0  0999 V2000
   12.0021   23.5653    0.2855 C   0  0  0  0  0  0  0  0  0  0  0  0
   12.0044   24.4899   -0.7742 C   0  0  0  0  0  0  0  0  0  0  0  0
   13.0240   24.2284   -1.6482 C   0  0  0  0  0  0  0  0  0  0  0  0
   13.6629   23.1317   -1.1306 C   0  0  0  0  0  0  0  0  0  0  0  0
   14.7490   22.6578   -1.8390 C   0  0  0  0  0  0  0  0  0  0  0  0
   15.1454   23.2665   -2.9893 N   0  0  0  0  0  0  0  0  0  0  0  0
   14.5261   24.3397   -3.5018 C   0  0  0  0  0  0  0  0  0  0  0  0
   15.2446   24.9515   -5.0172 S   0  0  0  0  0  0  0  0  0  0  0  0
   14.9419   26.7009   -5.1153 C   0  0  0  0  0  0  0  0  0  0  0  0
   15.9275   27.4253   -5.8241 N   0  0  0  0  0  0  0  0  0  0  0  0
   13.9508   27.3259   -4.6190 N   0  0  0  0  0  0  0  0  0  0  0  0
   12.8272   26.9722   -3.8857 C   0  0  0  0  0  0  0  0  0  0  0  0
   12.6448   25.9355   -3.1542 N   0  0  0  0  0  0  0  0  0  0  0  0
   13.4494   24.8400   -2.8349 C   0  0  0  0  0  0  0  0  0  0  0  0
   13.0341   22.7520    0.0262 N   0  0  0  0  0  0  0  0  0  0  0  0
   15.8843   28.4611   -5.9046 H   0  0  0  0  0  0  0  0  0  0  0  0
   16.7179   26.9346   -6.2802 H   0  0  0  0  0  0  0  0  0  0  0  0
    9.7006   23.1119    3.1277 N   0  0  0  0  0  0  0  0  0  0  0  0
   10.6618   22.6229    2.2823 C   0  0  0  0  0  0  0  0  0  0  0  0
   11.0400   23.5746    1.3848 C   0  0  0  0  0  0  0  0  0  0  0  0
   10.2588   24.6836    1.7213 C   0  0  0  0  0  0  0  0  0  0  0  0
    9.4855   24.3550    2.7576 N   0  0  0  0  0  0  0  0  0  0  0  0
    9.0342   22.4321    4.2200 C   0  0  0  0  0  0  0  0  0  0  0  0
    9.3296   20.9543    4.0694 C   0  0  0  0  0  0  0  0  0  0  0  0
   10.3707   20.5742    4.8934 F   0  0  0  0  0  0  0  0  0  0  0  0
    5.4500   18.6927    5.2341 C   0  0  0  0  0  0  0  0  0  0  0  0
    5.8604   19.8794    5.9175 N   0  0  0  0  0  0  0  0  0  0  0  0
    7.1284   19.7843    6.5831 C   0  0  0  0  0  0  0  0  0  0  0  0
    8.2276   19.4952    5.6315 C   0  0  0  0  0  0  0  0  0  0  0  0
    8.2041   20.1108    4.3708 N   0  0  0  0  0  0  0  0  0  0  0  0
    6.9610   20.5934    3.8710 C   0  0  0  0  0  0  0  0  0  0  0  0
    5.9719   20.9619    4.9476 C   0  0  0  0  0  0  0  0  0  0  0  0
   11.7315   27.8540   -3.9247 N   0  0  0  0  0  0  0  0  0  0  0  0
   11.1475   27.9090   -3.0554 H   0  0  0  0  0  0  0  0  0  0  0  0
   11.3960   28.6489   -5.0625 C   0  0  0  0  0  0  0  0  0  0  0  0
    9.9495   28.9623   -5.0354 C   0  0  0  0  0  0  0  0  0  0  0  0
    9.0659   28.2591   -5.8220 C   0  0  0  0  0  0  0  0  0  0  0  0
    7.7173   28.5356   -5.8076 C   0  0  0  0  0  0  0  0  0  0  0  0
    7.1969   29.5276   -5.0052 C   0  0  0  0  0  0  0  0  0  0  0  0
    8.0746   30.2372   -4.2137 C   0  0  0  0  0  0  0  0  0  0  0  0
    9.4151   29.9534   -4.2361 C   0  0  0  0  0  0  0  0  0  0  0  0
   13.4881   21.6074    0.7765 C   0  0  0  0  0  0  0  0  0  0  0  0
   15.0016   21.5726    0.9038 C   0  0  0  0  0  0  0  0  0  0  0  0
   15.5057   20.3240    0.5366 F   0  0  0  0  0  0  0  0  0  0  0  0
 26 27  1  0  0  0
 27 28  1  0  0  0
 28 29  1  0  0  0
 29 30  1  0  0  0
 30 31  1  0  0  0
 31 32  1  0  0  0
 30 24  1  0  0  0
 24 25  1  0  0  0
 24 23  1  0  0  0
 23 18  1  0  0  0
 18 19  1  0  0  0
 19 20  2  0  0  0
 20 21  1  0  0  0
 21 22  2  0  0  0
 20  1  1  0  0  0
  1  2  2  0  0  0
  2  3  1  0  0  0
  3  4  2  0  0  0
  4  5  1  0  0  0
  5  6  2  0  0  0
  6  7  1  0  0  0
  7  8  1  0  0  0
  8  9  1  0  0  0
  9 10  1  0  0  0
  9 11  2  0  0  0
 11 12  1  0  0  0
 12 33  1  0  0  0
 33 35  1  0  0  0
 35 36  1  0  0  0
 36 37  2  0  0  0
 37 38  1  0  0  0
 38 39  2  0  0  0
 39 40  1  0  0  0
 40 41  2  0  0  0
 12 13  2  0  0  0
 13 14  1  0  0  0
  4 15  1  0  0  0
 15 42  1  0  0  0
 42 43  1  0  0  0
 43 44  1  0  0  0
 32 27  1  0  0  0
 22 18  1  0  0  0
 15  1  1  0  0  0
 14  3  1  0  0  0
 14  7  2  0  0  0
 41 36  1  0  0  0
 10 16  1  0  0  0
 10 17  1  0  0  0
 33 34  1  0  0  0
M  END
> <minimizedAffinity>
2.89534

> <CNNscore>
0.5373696685

> <CNNaffinity>
7.9785208702

> <CNN_VS>
4.2874150276

> <CNNaffinity_variance>
0.2800497413

$$$$
[H]c1nn(C([H])([H])[C@@]([H])(F)N2C([H])([H])C([H])([H])N(C([H])([H])[H])C([H])([H])C2([H])[H])c([H])c1-c1c([H])c2c3c(nc([H])c2n1C([H])([H])C([H])([H])F)SC(N([H])[H])=NC(N([H])C([H])([H])c1c([H])c([H])c([H])c([H])c1[H])=N3


 44 49  0  0  0  0  0  0  0  0999 V2000
   11.1870   23.7323    0.1159 C   0  0  0  0  0  0  0  0  0  0  0  0
   11.4179   24.5626   -0.9953 C   0  0  0  0  0  0  0  0  0  0  0  0
   12.7379   24.5419   -1.3547 C   0  0  0  0  0  0  0  0  0  0  0  0
   13.3357   23.6914   -0.4612 C   0  0  0  0  0  0  0  0  0  0  0  0
   14.6939   23.4939   -0.6101 C   0  0  0  0  0  0  0  0  0  0  0  0
   15.3815   24.1235   -1.6010 N   0  0  0  0  0  0  0  0  0  0  0  0
   14.8041   24.9570   -2.4784 C   0  0  0  0  0  0  0  0  0  0  0  0
   15.9260   25.6574   -3.6774 S   0  0  0  0  0  0  0  0  0  0  0  0
   15.3028   27.2496   -4.1656 C   0  0  0  0  0  0  0  0  0  0  0  0
   16.3007   28.1755   -4.5470 N   0  0  0  0  0  0  0  0  0  0  0  0
   14.0818   27.6066   -4.1972 N   0  0  0  0  0  0  0  0  0  0  0  0
   12.8680   27.0004   -3.9065 C   0  0  0  0  0  0  0  0  0  0  0  0
   12.6396   25.9952   -3.1447 N   0  0  0  0  0  0  0  0  0  0  0  0
   13.4653   25.1802   -2.3679 C   0  0  0  0  0  0  0  0  0  0  0  0
   12.3887   23.2186    0.4091 N   0  0  0  0  0  0  0  0  0  0  0  0
   16.0609   29.1541   -4.8041 H   0  0  0  0  0  0  0  0  0  0  0  0
   17.2976   27.8950   -4.5779 H   0  0  0  0  0  0  0  0  0  0  0  0
    8.1154   22.8919    1.9705 N   0  0  0  0  0  0  0  0  0  0  0  0
    9.4533   22.7116    1.7358 C   0  0  0  0  0  0  0  0  0  0  0  0
    9.8817   23.5389    0.7427 C   0  0  0  0  0  0  0  0  0  0  0  0
    8.7330   24.2445    0.3739 C   0  0  0  0  0  0  0  0  0  0  0  0
    7.7186   23.8226    1.1309 N   0  0  0  0  0  0  0  0  0  0  0  0
    7.2737   22.2177    2.9380 C   0  0  0  0  0  0  0  0  0  0  0  0
    6.9488   20.8523    2.3688 C   0  0  0  0  0  0  0  0  0  0  0  0
    6.0505   20.1835    3.1768 F   0  0  0  0  0  0  0  0  0  0  0  0
    4.8944   20.5327   -1.7784 C   0  0  0  0  0  0  0  0  0  0  0  0
    5.1999   19.3724   -1.0013 N   0  0  0  0  0  0  0  0  0  0  0  0
    6.5959   19.1781   -0.7304 C   0  0  0  0  0  0  0  0  0  0  0  0
    7.1690   20.3099    0.0362 C   0  0  0  0  0  0  0  0  0  0  0  0
    6.3915   20.9012    1.0436 N   0  0  0  0  0  0  0  0  0  0  0  0
    4.9776   20.7384    0.9972 C   0  0  0  0  0  0  0  0  0  0  0  0
    4.5304   19.4849    0.2888 C   0  0  0  0  0  0  0  0  0  0  0  0
   11.7181   27.5461   -4.5063 N   0  0  0  0  0  0  0  0  0  0  0  0
   11.0800   26.8689   -4.9902 H   0  0  0  0  0  0  0  0  0  0  0  0
   11.3978   28.9375   -4.4821 C   0  0  0  0  0  0  0  0  0  0  0  0
    9.9580   29.1168   -4.7756 C   0  0  0  0  0  0  0  0  0  0  0  0
    9.2243   30.0789   -4.1197 C   0  0  0  0  0  0  0  0  0  0  0  0
    7.8852   30.2610   -4.3818 C   0  0  0  0  0  0  0  0  0  0  0  0
    7.2244   29.4875   -5.3113 C   0  0  0  0  0  0  0  0  0  0  0  0
    7.9514   28.5214   -5.9733 C   0  0  0  0  0  0  0  0  0  0  0  0
    9.2841   28.3489   -5.7044 C   0  0  0  0  0  0  0  0  0  0  0  0
   12.7381   22.2845    1.4504 C   0  0  0  0  0  0  0  0  0  0  0  0
   12.8585   20.8639    0.9255 C   0  0  0  0  0  0  0  0  0  0  0  0
   13.9273   20.1975    1.5270 F   0  0  0  0  0  0  0  0  0  0  0  0
 26 27  1  0  0  0
 27 28  1  0  0  0
 28 29  1  0  0  0
 29 30  1  0  0  0
 30 31  1  0  0  0
 31 32  1  0  0  0
 30 24  1  0  0  0
 24 25  1  0  0  0
 24 23  1  0  0  0
 23 18  1  0  0  0
 18 19  1  0  0  0
 19 20  2  0  0  0
 20 21  1  0  0  0
 21 22  2  0  0  0
 20  1  1  0  0  0
  1  2  2  0  0  0
  2  3  1  0  0  0
  3  4  2  0  0  0
  4  5  1  0  0  0
  5  6  2  0  0  0
  6  7  1  0  0  0
  7  8  1  0  0  0
  8  9  1  0  0  0
  9 10  1  0  0  0
  9 11  2  0  0  0
 11 12  1  0  0  0
 12 33  1  0  0  0
 33 35  1  0  0  0
 35 36  1  0  0  0
 36 37  2  0  0  0
 37 38  1  0  0  0
 38 39  2  0  0  0
 39 40  1  0  0  0
 40 41  2  0  0  0
 12 13  2  0  0  0
 13 14  1  0  0  0
  4 15  1  0  0  0
 15 42  1  0  0  0
 42 43  1  0  0  0
 43 44  1  0  0  0
 32 27  1  0  0  0
 22 18  1  0  0  0
 15  1  1  0  0  0
 14  3  1  0  0  0
 14  7  2  0  0  0
 41 36  1  0  0  0
 10 16  1  0  0  0
 10 17  1  0  0  0
 33 34  1  0  0  0
M  END
> <minimizedAffinity>
3.03890

> <CNNscore>
0.4968686998

> <CNNaffinity>
8.1285543442

> <CNN_VS>
4.0388240814

> <CNNaffinity_variance>
0.5126303434

$$$$
[H]c1nn(C([H])([H])[C@@]([H])(F)N2C([H])([H])C([H])([H])N(C([H])([H])[H])C([H])([H])C2([H])[H])c([H])c1-c1c([H])c2c3c(nc([H])c2n1C([H])([H])C([H])([H])F)SC(N([H])[H])=NC(N([H])C([H])([H])c1c([H])c([H])c([H])c([H])c1[H])=N3


 44 49  0  0  0  0  0  0  0  0999 V2000
   12.9062   25.0092   -1.9539 C   0  0  0  0  0  0  0  0  0  0  0  0
   11.9404   24.8521   -0.9437 C   0  0  0  0  0  0  0  0  0  0  0  0
   12.2852   23.8384   -0.0919 C   0  0  0  0  0  0  0  0  0  0  0  0
   13.4757   23.3594   -0.5736 C   0  0  0  0  0  0  0  0  0  0  0  0
   14.0471   22.3123    0.1216 C   0  0  0  0  0  0  0  0  0  0  0  0
   13.4391   21.7994    1.2253 N   0  0  0  0  0  0  0  0  0  0  0  0
   12.2745   22.2620    1.7024 C   0  0  0  0  0  0  0  0  0  0  0  0
   11.6864   21.4149    3.1595 S   0  0  0  0  0  0  0  0  0  0  0  0
    9.9102   21.4972    3.1777 C   0  0  0  0  0  0  0  0  0  0  0  0
    9.2814   20.4032    3.8151 N   0  0  0  0  0  0  0  0  0  0  0  0
    9.1909   22.4232    2.6833 N   0  0  0  0  0  0  0  0  0  0  0  0
    9.4364   23.6096    2.0070 C   0  0  0  0  0  0  0  0  0  0  0  0
   10.4756   23.9462    1.3362 N   0  0  0  0  0  0  0  0  0  0  0  0
   11.6762   23.2949    1.0469 C   0  0  0  0  0  0  0  0  0  0  0  0
   13.8282   24.0751   -1.6877 N   0  0  0  0  0  0  0  0  0  0  0  0
    8.2456   20.3162    3.8438 H   0  0  0  0  0  0  0  0  0  0  0  0
    9.8445   19.6614    4.2692 H   0  0  0  0  0  0  0  0  0  0  0  0
   12.2191   27.5134   -4.5687 N   0  0  0  0  0  0  0  0  0  0  0  0
   11.7828   26.6776   -3.5745 C   0  0  0  0  0  0  0  0  0  0  0  0
   12.8290   26.0056   -3.0194 C   0  0  0  0  0  0  0  0  0  0  0  0
   13.9411   26.4724   -3.7256 C   0  0  0  0  0  0  0  0  0  0  0  0
   13.5236   27.3611   -4.6289 N   0  0  0  0  0  0  0  0  0  0  0  0
   11.4365   28.4016   -5.4041 C   0  0  0  0  0  0  0  0  0  0  0  0
   10.2689   28.8832   -4.5684 C   0  0  0  0  0  0  0  0  0  0  0  0
   10.5407   30.1154   -4.0071 F   0  0  0  0  0  0  0  0  0  0  0  0
    6.0564   29.0998   -6.4997 C   0  0  0  0  0  0  0  0  0  0  0  0
    6.3455   28.1966   -5.4300 N   0  0  0  0  0  0  0  0  0  0  0  0
    7.3609   27.2243   -5.7192 C   0  0  0  0  0  0  0  0  0  0  0  0
    8.6595   27.8646   -6.0368 C   0  0  0  0  0  0  0  0  0  0  0  0
    9.0427   29.0027   -5.3109 N   0  0  0  0  0  0  0  0  0  0  0  0
    8.0339   29.7648   -4.6556 C   0  0  0  0  0  0  0  0  0  0  0  0
    6.8111   28.9657   -4.2824 C   0  0  0  0  0  0  0  0  0  0  0  0
    8.4245   24.5869    2.0373 N   0  0  0  0  0  0  0  0  0  0  0  0
    8.5136   25.3702    1.3457 H   0  0  0  0  0  0  0  0  0  0  0  0
    7.3199   24.5540    2.9416 C   0  0  0  0  0  0  0  0  0  0  0  0
    7.7380   25.1055    4.2501 C   0  0  0  0  0  0  0  0  0  0  0  0
    7.4083   24.4595    5.4198 C   0  0  0  0  0  0  0  0  0  0  0  0
    7.7907   24.9568    6.6452 C   0  0  0  0  0  0  0  0  0  0  0  0
    8.5192   26.1217    6.7510 C   0  0  0  0  0  0  0  0  0  0  0  0
    8.8541   26.7756    5.5846 C   0  0  0  0  0  0  0  0  0  0  0  0
    8.4680   26.2714    4.3702 C   0  0  0  0  0  0  0  0  0  0  0  0
   15.0542   23.7944   -2.3929 C   0  0  0  0  0  0  0  0  0  0  0  0
   16.2496   24.4810   -1.7544 C   0  0  0  0  0  0  0  0  0  0  0  0
   16.0141   25.8473   -1.5930 F   0  0  0  0  0  0  0  0  0  0  0  0
 26 27  1  0  0  0
 27 28  1  0  0  0
 28 29  1  0  0  0
 29 30  1  0  0  0
 30 31  1  0  0  0
 31 32  1  0  0  0
 30 24  1  0  0  0
 24 25  1  0  0  0
 24 23  1  0  0  0
 23 18  1  0  0  0
 18 19  1  0  0  0
 19 20  2  0  0  0
 20 21  1  0  0  0
 21 22  2  0  0  0
 20  1  1  0  0  0
  1  2  2  0  0  0
  2  3  1  0  0  0
  3  4  2  0  0  0
  4  5  1  0  0  0
  5  6  2  0  0  0
  6  7  1  0  0  0
  7  8  1  0  0  0
  8  9  1  0  0  0
  9 10  1  0  0  0
  9 11  2  0  0  0
 11 12  1  0  0  0
 12 33  1  0  0  0
 33 35  1  0  0  0
 35 36  1  0  0  0
 36 37  2  0  0  0
 37 38  1  0  0  0
 38 39  2  0  0  0
 39 40  1  0  0  0
 40 41  2  0  0  0
 12 13  2  0  0  0
 13 14  1  0  0  0
  4 15  1  0  0  0
 15 42  1  0  0  0
 42 43  1  0  0  0
 43 44  1  0  0  0
 32 27  1  0  0  0
 22 18  1  0  0  0
 15  1  1  0  0  0
 14  3  1  0  0  0
 14  7  2  0  0  0
 41 36  1  0  0  0
 10 16  1  0  0  0
 10 17  1  0  0  0
 33 34  1  0  0  0
M  END
> <minimizedAffinity>
7.33591

> <CNNscore>
0.4169180393

> <CNNaffinity>
7.8018302917

> <CNN_VS>
3.2527236938

> <CNNaffinity_variance>
0.8447352648

$$$$
[H]c1nn(C([H])([H])[C@@]([H])(F)N2C([H])([H])C([H])([H])N(C([H])([H])[H])C([H])([H])C2([H])[H])c([H])c1-c1c([H])c2c3c(nc([H])c2n1C([H])([H])C([H])([H])F)SC(N([H])[H])=NC(N([H])C([H])([H])c1c([H])c([H])c([H])c([H])c1[H])=N3


 44 49  0  0  0  0  0  0  0  0999 V2000
   13.3878   25.1817   -2.4574 C   0  0  0  0  0  0  0  0  0  0  0  0
   12.3799   24.5702   -1.6905 C   0  0  0  0  0  0  0  0  0  0  0  0
   12.9198   23.7315   -0.7540 C   0  0  0  0  0  0  0  0  0  0  0  0
   14.2754   23.8205   -0.9371 C   0  0  0  0  0  0  0  0  0  0  0  0
   15.0634   23.0557   -0.1004 C   0  0  0  0  0  0  0  0  0  0  0  0
   14.4990   22.2618    0.8494 N   0  0  0  0  0  0  0  0  0  0  0  0
   13.1742   22.1689    1.0344 C   0  0  0  0  0  0  0  0  0  0  0  0
   12.6891   21.0548    2.3421 S   0  0  0  0  0  0  0  0  0  0  0  0
   11.0839   20.3967    1.9517 C   0  0  0  0  0  0  0  0  0  0  0  0
   10.8456   19.0990    2.4594 N   0  0  0  0  0  0  0  0  0  0  0  0
   10.1718   20.9764    1.2800 N   0  0  0  0  0  0  0  0  0  0  0  0
   10.0421   22.2029    0.6443 C   0  0  0  0  0  0  0  0  0  0  0  0
   10.9655   22.9838    0.2193 N   0  0  0  0  0  0  0  0  0  0  0  0
   12.3595   22.9069    0.2306 C   0  0  0  0  0  0  0  0  0  0  0  0
   14.5322   24.6941   -1.9612 N   0  0  0  0  0  0  0  0  0  0  0  0
    9.9619   18.5913    2.2531 H   0  0  0  0  0  0  0  0  0  0  0  0
   11.5520   18.6251    3.0510 H   0  0  0  0  0  0  0  0  0  0  0  0
   12.3147   27.6499   -4.9746 N   0  0  0  0  0  0  0  0  0  0  0  0
   12.0828   26.9423   -3.8244 C   0  0  0  0  0  0  0  0  0  0  0  0
   13.1380   26.1299   -3.5402 C   0  0  0  0  0  0  0  0  0  0  0  0
   14.0396   26.3736   -4.5799 C   0  0  0  0  0  0  0  0  0  0  0  0
   13.5028   27.2797   -5.3990 N   0  0  0  0  0  0  0  0  0  0  0  0
   11.4545   28.6191   -5.6225 C   0  0  0  0  0  0  0  0  0  0  0  0
   10.2712   28.8461   -4.7048 C   0  0  0  0  0  0  0  0  0  0  0  0
   10.4382   29.9986   -3.9625 F   0  0  0  0  0  0  0  0  0  0  0  0
    5.9852   29.0652   -6.4667 C   0  0  0  0  0  0  0  0  0  0  0  0
    6.2946   28.2305   -5.3482 N   0  0  0  0  0  0  0  0  0  0  0  0
    7.2666   27.2072   -5.6096 C   0  0  0  0  0  0  0  0  0  0  0  0
    8.5683   27.7804   -6.0269 C   0  0  0  0  0  0  0  0  0  0  0  0
    9.0174   28.9535   -5.4014 N   0  0  0  0  0  0  0  0  0  0  0  0
    8.0620   29.7926   -4.7604 C   0  0  0  0  0  0  0  0  0  0  0  0
    6.8336   29.0626   -4.2795 C   0  0  0  0  0  0  0  0  0  0  0  0
    8.7354   22.6718    0.4148 N   0  0  0  0  0  0  0  0  0  0  0  0
    8.6505   23.5650   -0.1282 H   0  0  0  0  0  0  0  0  0  0  0  0
    7.5621   22.0017    0.8765 C   0  0  0  0  0  0  0  0  0  0  0  0
    6.9680   21.2259   -0.2355 C   0  0  0  0  0  0  0  0  0  0  0  0
    5.6921   21.4965   -0.6746 C   0  0  0  0  0  0  0  0  0  0  0  0
    5.1249   20.7866   -1.7089 C   0  0  0  0  0  0  0  0  0  0  0  0
    5.8112   19.7762   -2.3467 C   0  0  0  0  0  0  0  0  0  0  0  0
    7.0900   19.4983   -1.9136 C   0  0  0  0  0  0  0  0  0  0  0  0
    7.6446   20.2114   -0.8831 C   0  0  0  0  0  0  0  0  0  0  0  0
   15.8853   24.9936   -2.3594 C   0  0  0  0  0  0  0  0  0  0  0  0
   16.4128   26.2500   -1.6876 C   0  0  0  0  0  0  0  0  0  0  0  0
   17.0738   27.0678   -2.6054 F   0  0  0  0  0  0  0  0  0  0  0  0
 26 27  1  0  0  0
 27 28  1  0  0  0
 28 29  1  0  0  0
 29 30  1  0  0  0
 30 31  1  0  0  0
 31 32  1  0  0  0
 30 24  1  0  0  0
 24 25  1  0  0  0
 24 23  1  0  0  0
 23 18  1  0  0  0
 18 19  1  0  0  0
 19 20  2  0  0  0
 20 21  1  0  0  0
 21 22  2  0  0  0
 20  1  1  0  0  0
  1  2  2  0  0  0
  2  3  1  0  0  0
  3  4  2  0  0  0
  4  5  1  0  0  0
  5  6  2  0  0  0
  6  7  1  0  0  0
  7  8  1  0  0  0
  8  9  1  0  0  0
  9 10  1  0  0  0
  9 11  2  0  0  0
 11 12  1  0  0  0
 12 33  1  0  0  0
 33 35  1  0  0  0
 35 36  1  0  0  0
 36 37  2  0  0  0
 37 38  1  0  0  0
 38 39  2  0  0  0
 39 40  1  0  0  0
 40 41  2  0  0  0
 12 13  2  0  0  0
 13 14  1  0  0  0
  4 15  1  0  0  0
 15 42  1  0  0  0
 42 43  1  0  0  0
 43 44  1  0  0  0
 32 27  1  0  0  0
 22 18  1  0  0  0
 15  1  1  0  0  0
 14  3  1  0  0  0
 14  7  2  0  0  0
 41 36  1  0  0  0
 10 16  1  0  0  0
 10 17  1  0  0  0
 33 34  1  0  0  0
M  END
> <minimizedAffinity>
8.93602

> <CNNscore>
0.4096487761

> <CNNaffinity>
7.9315247536

> <CNN_VS>
3.2491393089

> <CNNaffinity_variance>
0.8703796268

$$$$
[H]c1nn(C([H])([H])[C@@]([H])(F)N2C([H])([H])C([H])([H])N(C([H])([H])[H])C([H])([H])C2([H])[H])c([H])c1-c1c([H])c2c3c(nc([H])c2n1C([H])([H])C([H])([H])F)SC(N([H])[H])=NC(N([H])C([H])([H])c1c([H])c([H])c([H])c([H])c1[H])=N3


 44 49  0  0  0  0  0  0  0  0999 V2000
   11.9270   22.8630   -0.7678 C   0  0  0  0  0  0  0  0  0  0  0  0
   11.9727   23.9772   -1.6246 C   0  0  0  0  0  0  0  0  0  0  0  0
   13.1782   24.0499   -2.2675 C   0  0  0  0  0  0  0  0  0  0  0  0
   13.8906   22.9723   -1.8090 C   0  0  0  0  0  0  0  0  0  0  0  0
   15.1659   22.8147   -2.3139 C   0  0  0  0  0  0  0  0  0  0  0  0
   15.6672   23.6980   -3.2191 N   0  0  0  0  0  0  0  0  0  0  0  0
   14.9770   24.7546   -3.6720 C   0  0  0  0  0  0  0  0  0  0  0  0
   15.8613   25.7622   -4.8508 S   0  0  0  0  0  0  0  0  0  0  0  0
   15.2669   27.4328   -4.7182 C   0  0  0  0  0  0  0  0  0  0  0  0
   16.2244   28.4208   -5.0432 N   0  0  0  0  0  0  0  0  0  0  0  0
   14.0980   27.7942   -4.3684 N   0  0  0  0  0  0  0  0  0  0  0  0
   12.9345   27.1402   -3.9891 C   0  0  0  0  0  0  0  0  0  0  0  0
   12.8026   25.9596   -3.5077 N   0  0  0  0  0  0  0  0  0  0  0  0
   13.7142   24.9477   -3.2002 C   0  0  0  0  0  0  0  0  0  0  0  0
   13.1222   22.2762   -0.9131 N   0  0  0  0  0  0  0  0  0  0  0  0
   16.0079   29.4340   -4.9544 H   0  0  0  0  0  0  0  0  0  0  0  0
   17.1674   28.1526   -5.3785 H   0  0  0  0  0  0  0  0  0  0  0  0
    9.1683   22.3423    1.6193 N   0  0  0  0  0  0  0  0  0  0  0  0
   10.2716   23.0424    1.2067 C   0  0  0  0  0  0  0  0  0  0  0  0
   10.7779   22.5078    0.0612 C   0  0  0  0  0  0  0  0  0  0  0  0
    9.9253   21.4353   -0.2148 C   0  0  0  0  0  0  0  0  0  0  0  0
    8.9924   21.3832    0.7375 N   0  0  0  0  0  0  0  0  0  0  0  0
    8.3363   22.5794    2.7815 C   0  0  0  0  0  0  0  0  0  0  0  0
    8.4562   24.0506    3.1208 C   0  0  0  0  0  0  0  0  0  0  0  0
    7.8745   24.8306    2.1408 F   0  0  0  0  0  0  0  0  0  0  0  0
    6.3357   25.6545    6.9225 C   0  0  0  0  0  0  0  0  0  0  0  0
    6.8839   26.5371    5.9406 N   0  0  0  0  0  0  0  0  0  0  0  0
    8.3012   26.4191    5.7474 C   0  0  0  0  0  0  0  0  0  0  0  0
    8.6818   25.0609    5.2915 C   0  0  0  0  0  0  0  0  0  0  0  0
    7.8477   24.4012    4.3761 N   0  0  0  0  0  0  0  0  0  0  0  0
    6.4886   24.8137    4.2724 C   0  0  0  0  0  0  0  0  0  0  0  0
    6.2568   26.2533    4.6556 C   0  0  0  0  0  0  0  0  0  0  0  0
   11.7257   27.8459   -4.1327 N   0  0  0  0  0  0  0  0  0  0  0  0
   11.2067   28.0644   -3.2480 H   0  0  0  0  0  0  0  0  0  0  0  0
   11.1971   28.2613   -5.3925 C   0  0  0  0  0  0  0  0  0  0  0  0
    9.8135   28.7541   -5.2080 C   0  0  0  0  0  0  0  0  0  0  0  0
    9.5602   29.8480   -4.4121 C   0  0  0  0  0  0  0  0  0  0  0  0
    8.2802   30.3212   -4.2312 C   0  0  0  0  0  0  0  0  0  0  0  0
    7.2001   29.7192   -4.8393 C   0  0  0  0  0  0  0  0  0  0  0  0
    7.4443   28.6228   -5.6385 C   0  0  0  0  0  0  0  0  0  0  0  0
    8.7227   28.1604   -5.8114 C   0  0  0  0  0  0  0  0  0  0  0  0
   13.6186   21.0779   -0.2833 C   0  0  0  0  0  0  0  0  0  0  0  0
   14.0151   21.3163    1.1637 C   0  0  0  0  0  0  0  0  0  0  0  0
   13.2425   20.5394    2.0284 F   0  0  0  0  0  0  0  0  0  0  0  0
 26 27  1  0  0  0
 27 28  1  0  0  0
 28 29  1  0  0  0
 29 30  1  0  0  0
 30 31  1  0  0  0
 31 32  1  0  0  0
 30 24  1  0  0  0
 24 25  1  0  0  0
 24 23  1  0  0  0
 23 18  1  0  0  0
 18 19  1  0  0  0
 19 20  2  0  0  0
 20 21  1  0  0  0
 21 22  2  0  0  0
 20  1  1  0  0  0
  1  2  2  0  0  0
  2  3  1  0  0  0
  3  4  2  0  0  0
  4  5  1  0  0  0
  5  6  2  0  0  0
  6  7  1  0  0  0
  7  8  1  0  0  0
  8  9  1  0  0  0
  9 10  1  0  0  0
  9 11  2  0  0  0
 11 12  1  0  0  0
 12 33  1  0  0  0
 33 35  1  0  0  0
 35 36  1  0  0  0
 36 37  2  0  0  0
 37 38  1  0  0  0
 38 39  2  0  0  0
 39 40  1  0  0  0
 40 41  2  0  0  0
 12 13  2  0  0  0
 13 14  1  0  0  0
  4 15  1  0  0  0
 15 42  1  0  0  0
 42 43  1  0  0  0
 43 44  1  0  0  0
 32 27  1  0  0  0
 22 18  1  0  0  0
 15  1  1  0  0  0
 14  3  1  0  0  0
 14  7  2  0  0  0
 41 36  1  0  0  0
 10 16  1  0  0  0
 10 17  1  0  0  0
 33 34  1  0  0  0
M  END
> <minimizedAffinity>
3.78526

> <CNNscore>
0.3967756033

> <CNNaffinity>
7.8519668579

> <CNN_VS>
3.1154689789

> <CNNaffinity_variance>
0.2754009664

$$$$
[H]c1nn(C([H])([H])[C@@]([H])(F)N2C([H])([H])C([H])([H])N(C([H])([H])[H])C([H])([H])C2([H])[H])c([H])c1-c1c([H])c2c3c(nc([H])c2n1C([H])([H])C([H])([H])F)SC(N([H])[H])=NC(N([H])C([H])([H])c1c([H])c([H])c([H])c([H])c1[H])=N3


 44 49  0  0  0  0  0  0  0  0999 V2000
   12.7053   27.3538   -3.7103 C   0  0  0  0  0  0  0  0  0  0  0  0
   12.3306   26.3173   -2.8368 C   0  0  0  0  0  0  0  0  0  0  0  0
   13.2798   25.3321   -2.8123 C   0  0  0  0  0  0  0  0  0  0  0  0
   14.2550   25.7572   -3.6767 C   0  0  0  0  0  0  0  0  0  0  0  0
   15.3459   24.9259   -3.8346 C   0  0  0  0  0  0  0  0  0  0  0  0
   15.4250   23.7496   -3.1557 N   0  0  0  0  0  0  0  0  0  0  0  0
   14.4752   23.3266   -2.3089 C   0  0  0  0  0  0  0  0  0  0  0  0
   14.8159   21.7479   -1.5484 S   0  0  0  0  0  0  0  0  0  0  0  0
   13.2666   20.9548   -1.1841 C   0  0  0  0  0  0  0  0  0  0  0  0
   13.3131   19.5422   -1.2114 N   0  0  0  0  0  0  0  0  0  0  0  0
   12.1662   21.5334   -0.9127 N   0  0  0  0  0  0  0  0  0  0  0  0
   11.7455   22.8505   -0.7972 C   0  0  0  0  0  0  0  0  0  0  0  0
   12.2674   23.9035   -1.3090 N   0  0  0  0  0  0  0  0  0  0  0  0
   13.3815   24.1164   -2.1233 C   0  0  0  0  0  0  0  0  0  0  0  0
   13.8902   26.9692   -4.2020 N   0  0  0  0  0  0  0  0  0  0  0  0
   12.4576   18.9698   -1.0636 H   0  0  0  0  0  0  0  0  0  0  0  0
   14.2069   19.0461   -1.3805 H   0  0  0  0  0  0  0  0  0  0  0  0
   10.3847   30.0745   -4.6006 N   0  0  0  0  0  0  0  0  0  0  0  0
   10.7403   28.7517   -4.6356 C   0  0  0  0  0  0  0  0  0  0  0  0
   11.9053   28.5503   -3.9599 C   0  0  0  0  0  0  0  0  0  0  0  0
   12.2531   29.8243   -3.5022 C   0  0  0  0  0  0  0  0  0  0  0  0
   11.3203   30.6870   -3.9092 N   0  0  0  0  0  0  0  0  0  0  0  0
    9.2226   30.7087   -5.1893 C   0  0  0  0  0  0  0  0  0  0  0  0
    8.1385   29.6547   -5.2774 C   0  0  0  0  0  0  0  0  0  0  0  0
    8.6217   28.4992   -5.8590 F   0  0  0  0  0  0  0  0  0  0  0  0
    5.8612   28.7448   -1.3393 C   0  0  0  0  0  0  0  0  0  0  0  0
    5.5140   29.8578   -2.1665 N   0  0  0  0  0  0  0  0  0  0  0  0
    6.5555   30.8306   -2.3373 C   0  0  0  0  0  0  0  0  0  0  0  0
    7.7564   30.2425   -2.9769 C   0  0  0  0  0  0  0  0  0  0  0  0
    7.5786   29.2997   -4.0008 N   0  0  0  0  0  0  0  0  0  0  0  0
    6.3385   28.6040   -4.0790 C   0  0  0  0  0  0  0  0  0  0  0  0
    5.1745   29.3640   -3.4954 C   0  0  0  0  0  0  0  0  0  0  0  0
   10.5907   23.0905   -0.0299 N   0  0  0  0  0  0  0  0  0  0  0  0
   10.1128   24.0112   -0.1842 H   0  0  0  0  0  0  0  0  0  0  0  0
   10.0631   22.1612    0.9173 C   0  0  0  0  0  0  0  0  0  0  0  0
    8.8162   21.5682    0.3836 C   0  0  0  0  0  0  0  0  0  0  0  0
    7.5879   22.0361    0.7917 C   0  0  0  0  0  0  0  0  0  0  0  0
    6.4183   21.4979    0.3041 C   0  0  0  0  0  0  0  0  0  0  0  0
    6.4294   20.4689   -0.6124 C   0  0  0  0  0  0  0  0  0  0  0  0
    7.6553   19.9940   -1.0270 C   0  0  0  0  0  0  0  0  0  0  0  0
    8.8132   20.5372   -0.5349 C   0  0  0  0  0  0  0  0  0  0  0  0
   14.7453   27.6618   -5.1337 C   0  0  0  0  0  0  0  0  0  0  0  0
   14.7348   27.0139   -6.5078 C   0  0  0  0  0  0  0  0  0  0  0  0
   15.7119   26.0216   -6.6002 F   0  0  0  0  0  0  0  0  0  0  0  0
 26 27  1  0  0  0
 27 28  1  0  0  0
 28 29  1  0  0  0
 29 30  1  0  0  0
 30 31  1  0  0  0
 31 32  1  0  0  0
 30 24  1  0  0  0
 24 25  1  0  0  0
 24 23  1  0  0  0
 23 18  1  0  0  0
 18 19  1  0  0  0
 19 20  2  0  0  0
 20 21  1  0  0  0
 21 22  2  0  0  0
 20  1  1  0  0  0
  1  2  2  0  0  0
  2  3  1  0  0  0
  3  4  2  0  0  0
  4  5  1  0  0  0
  5  6  2  0  0  0
  6  7  1  0  0  0
  7  8  1  0  0  0
  8  9  1  0  0  0
  9 10  1  0  0  0
  9 11  2  0  0  0
 11 12  1  0  0  0
 12 33  1  0  0  0
 33 35  1  0  0  0
 35 36  1  0  0  0
 36 37  2  0  0  0
 37 38  1  0  0  0
 38 39  2  0  0  0
 39 40  1  0  0  0
 40 41  2  0  0  0
 12 13  2  0  0  0
 13 14  1  0  0  0
  4 15  1  0  0  0
 15 42  1  0  0  0
 42 43  1  0  0  0
 43 44  1  0  0  0
 32 27  1  0  0  0
 22 18  1  0  0  0
 15  1  1  0  0  0
 14  3  1  0  0  0
 14  7  2  0  0  0
 41 36  1  0  0  0
 10 16  1  0  0  0
 10 17  1  0  0  0
 33 34  1  0  0  0
M  END
> <minimizedAffinity>
6.60583

> <CNNscore>
0.3832975924

> <CNNaffinity>
7.9086074829

> <CNN_VS>
3.0313501358

> <CNNaffinity_variance>
0.5623620152

$$$$
[H]c1nn(C([H])([H])[C@@]([H])(F)N2C([H])([H])C([H])([H])N(C([H])([H])[H])C([H])([H])C2([H])[H])c([H])c1-c1c([H])c2c3c(nc([H])c2n1C([H])([H])C([H])([H])F)SC(N([H])[H])=NC(N([H])C([H])([H])c1c([H])c([H])c([H])c([H])c1[H])=N3


 44 49  0  0  0  0  0  0  0  0999 V2000
   11.2196   23.9810    0.2726 C   0  0  0  0  0  0  0  0  0  0  0  0
   11.4423   24.7516   -0.8825 C   0  0  0  0  0  0  0  0  0  0  0  0
   12.7421   24.6463   -1.2968 C   0  0  0  0  0  0  0  0  0  0  0  0
   13.3352   23.8029   -0.3936 C   0  0  0  0  0  0  0  0  0  0  0  0
   14.6736   23.5278   -0.5918 C   0  0  0  0  0  0  0  0  0  0  0  0
   15.3471   24.0789   -1.6376 N   0  0  0  0  0  0  0  0  0  0  0  0
   14.7742   24.9050   -2.5249 C   0  0  0  0  0  0  0  0  0  0  0  0
   15.8752   25.4952   -3.8000 S   0  0  0  0  0  0  0  0  0  0  0  0
   15.3127   27.0967   -4.3298 C   0  0  0  0  0  0  0  0  0  0  0  0
   16.3385   27.9519   -4.7934 N   0  0  0  0  0  0  0  0  0  0  0  0
   14.1114   27.5162   -4.3246 N   0  0  0  0  0  0  0  0  0  0  0  0
   12.8826   26.9875   -3.9562 C   0  0  0  0  0  0  0  0  0  0  0  0
   12.6377   26.0279   -3.1424 N   0  0  0  0  0  0  0  0  0  0  0  0
   13.4548   25.2030   -2.3669 C   0  0  0  0  0  0  0  0  0  0  0  0
   12.4054   23.4170    0.5361 N   0  0  0  0  0  0  0  0  0  0  0  0
   16.1376   28.9305   -5.0822 H   0  0  0  0  0  0  0  0  0  0  0  0
   17.3174   27.6181   -4.8547 H   0  0  0  0  0  0  0  0  0  0  0  0
    8.2317   23.8538    2.4259 N   0  0  0  0  0  0  0  0  0  0  0  0
    9.5723   24.0834    2.2594 C   0  0  0  0  0  0  0  0  0  0  0  0
    9.9357   23.8830    0.9625 C   0  0  0  0  0  0  0  0  0  0  0  0
    8.7435   23.5161    0.3321 C   0  0  0  0  0  0  0  0  0  0  0  0
    7.7686   23.5147    1.2430 N   0  0  0  0  0  0  0  0  0  0  0  0
    7.4463   23.9555    3.6391 C   0  0  0  0  0  0  0  0  0  0  0  0
    7.5220   25.3970    4.0975 C   0  0  0  0  0  0  0  0  0  0  0  0
    8.6972   25.9866    3.6752 F   0  0  0  0  0  0  0  0  0  0  0  0
    4.2858   28.4468    2.7754 C   0  0  0  0  0  0  0  0  0  0  0  0
    5.1301   28.6906    3.9029 N   0  0  0  0  0  0  0  0  0  0  0  0
    5.0084   27.7338    4.9658 C   0  0  0  0  0  0  0  0  0  0  0  0
    5.3611   26.3661    4.5163 C   0  0  0  0  0  0  0  0  0  0  0  0
    6.4322   26.2075    3.6238 N   0  0  0  0  0  0  0  0  0  0  0  0
    6.8329   27.3233    2.8349 C   0  0  0  0  0  0  0  0  0  0  0  0
    6.5192   28.6582    3.4617 C   0  0  0  0  0  0  0  0  0  0  0  0
   11.7362   27.5681   -4.5293 N   0  0  0  0  0  0  0  0  0  0  0  0
   11.0927   26.9182   -5.0425 H   0  0  0  0  0  0  0  0  0  0  0  0
   11.4262   28.9593   -4.4420 C   0  0  0  0  0  0  0  0  0  0  0  0
    9.9896   29.1633   -4.7347 C   0  0  0  0  0  0  0  0  0  0  0  0
    9.2652   30.1166   -4.0560 C   0  0  0  0  0  0  0  0  0  0  0  0
    7.9291   30.3213   -4.3170 C   0  0  0  0  0  0  0  0  0  0  0  0
    7.2622   29.5803   -5.2683 C   0  0  0  0  0  0  0  0  0  0  0  0
    7.9798   28.6232   -5.9532 C   0  0  0  0  0  0  0  0  0  0  0  0
    9.3095   28.4280   -5.6852 C   0  0  0  0  0  0  0  0  0  0  0  0
   12.7532   22.5093    1.6011 C   0  0  0  0  0  0  0  0  0  0  0  0
   12.5944   21.0563    1.1868 C   0  0  0  0  0  0  0  0  0  0  0  0
   12.4378   20.2326    2.3026 F   0  0  0  0  0  0  0  0  0  0  0  0
 26 27  1  0  0  0
 27 28  1  0  0  0
 28 29  1  0  0  0
 29 30  1  0  0  0
 30 31  1  0  0  0
 31 32  1  0  0  0
 30 24  1  0  0  0
 24 25  1  0  0  0
 24 23  1  0  0  0
 23 18  1  0  0  0
 18 19  1  0  0  0
 19 20  2  0  0  0
 20 21  1  0  0  0
 21 22  2  0  0  0
 20  1  1  0  0  0
  1  2  2  0  0  0
  2  3  1  0  0  0
  3  4  2  0  0  0
  4  5  1  0  0  0
  5  6  2  0  0  0
  6  7  1  0  0  0
  7  8  1  0  0  0
  8  9  1  0  0  0
  9 10  1  0  0  0
  9 11  2  0  0  0
 11 12  1  0  0  0
 12 33  1  0  0  0
 33 35  1  0  0  0
 35 36  1  0  0  0
 36 37  2  0  0  0
 37 38  1  0  0  0
 38 39  2  0  0  0
 39 40  1  0  0  0
 40 41  2  0  0  0
 12 13  2  0  0  0
 13 14  1  0  0  0
  4 15  1  0  0  0
 15 42  1  0  0  0
 42 43  1  0  0  0
 43 44  1  0  0  0
 32 27  1  0  0  0
 22 18  1  0  0  0
 15  1  1  0  0  0
 14  3  1  0  0  0
 14  7  2  0  0  0
 41 36  1  0  0  0
 10 16  1  0  0  0
 10 17  1  0  0  0
 33 34  1  0  0  0
M  END
> <minimizedAffinity>
1.32620

> <CNNscore>
0.3587725759

> <CNNaffinity>
7.8731689453

> <CNN_VS>
2.8246769905

> <CNNaffinity_variance>
0.1501452029

$$$$
[H]OC(=O)[C@@]([H])(N([H])C(=O)[C@@]([H])(N([H])C(=O)[C@@]([H])(N([H])C(=O)c1c([H])c(OC([H])([H])[H])c([H])c(OC([H])([H])[H])c1[H])C([H])([H])c1c([H])c([H])c([H])c([H])c1[H])C([H])([H])c1c([H])c([H])c([H])c([H])c1[H])C([H])([H])c1c([H])c([H])c([H])c([H])c1[H]


 50 53  0  0  0  0  0  0  0  0999 V2000
   11.1526   22.2195    2.0146 C   0  0  0  0  0  0  0  0  0  0  0  0
   12.3325   22.7460    2.0806 O   0  0  0  0  0  0  0  0  0  0  0  0
   10.0779   23.0870    1.6281 N   0  0  0  0  0  0  0  0  0  0  0  0
    9.1138   22.7108    1.5656 H   0  0  0  0  0  0  0  0  0  0  0  0
   11.0224   20.8134    2.3229 C   0  0  0  0  0  0  0  0  0  0  0  0
    9.4789   20.7395    4.3361 C   0  0  0  0  0  0  0  0  0  0  0  0
   10.4454   21.0090    5.0902 O   0  0  0  0  0  0  0  0  0  0  0  0
    9.6786   20.6223    2.9450 N   0  0  0  0  0  0  0  0  0  0  0  0
    8.8864   20.4004    2.3202 H   0  0  0  0  0  0  0  0  0  0  0  0
    6.4784   19.0926    5.8652 C   0  0  0  0  0  0  0  0  0  0  0  0
    5.6825   20.1718    6.1650 C   0  0  0  0  0  0  0  0  0  0  0  0
    6.0984   21.4659    5.8746 C   0  0  0  0  0  0  0  0  0  0  0  0
    7.3485   21.6204    5.2711 C   0  0  0  0  0  0  0  0  0  0  0  0
    8.1686   20.5589    4.9586 C   0  0  0  0  0  0  0  0  0  0  0  0
    7.7017   19.3003    5.2704 C   0  0  0  0  0  0  0  0  0  0  0  0
    6.2334   16.6773    5.3693 C   0  0  0  0  0  0  0  0  0  0  0  0
    6.0533   17.8161    6.1594 O   0  0  0  0  0  0  0  0  0  0  0  0
    5.3077   22.5793    6.1690 O   0  0  0  0  0  0  0  0  0  0  0  0
    5.9731   23.8156    6.3624 C   0  0  0  0  0  0  0  0  0  0  0  0
   11.0587   19.8566    1.1899 C   0  0  0  0  0  0  0  0  0  0  0  0
   10.2402   20.0876    0.0229 C   0  0  0  0  0  0  0  0  0  0  0  0
    8.9488   19.6063   -0.0778 C   0  0  0  0  0  0  0  0  0  0  0  0
    8.1790   19.8832   -1.1681 C   0  0  0  0  0  0  0  0  0  0  0  0
    8.6876   20.6529   -2.1883 C   0  0  0  0  0  0  0  0  0  0  0  0
    9.9753   21.1496   -2.1187 C   0  0  0  0  0  0  0  0  0  0  0  0
   10.7572   20.8707   -1.0160 C   0  0  0  0  0  0  0  0  0  0  0  0
   10.3739   24.4910    1.3143 C   0  0  0  0  0  0  0  0  0  0  0  0
   11.5549   24.7044    0.4927 C   0  0  0  0  0  0  0  0  0  0  0  0
   12.3167   25.6645    0.7376 O   0  0  0  0  0  0  0  0  0  0  0  0
   11.9222   23.8802   -0.5967 N   0  0  0  0  0  0  0  0  0  0  0  0
   11.3335   23.0720   -0.8368 H   0  0  0  0  0  0  0  0  0  0  0  0
   13.1148   24.1033   -1.4250 C   0  0  0  0  0  0  0  0  0  0  0  0
   14.3403   23.9200   -0.6754 C   0  0  0  0  0  0  0  0  0  0  0  0
   15.1410   24.9570   -0.2627 O   0  0  0  0  0  0  0  0  0  0  0  0
   14.7424   22.7437   -0.3580 O   0  0  0  0  0  0  0  0  0  0  0  0
   15.8336   24.8707    0.4876 H   0  0  0  0  0  0  0  0  0  0  0  0
   12.9690   25.4222   -2.1571 C   0  0  0  0  0  0  0  0  0  0  0  0
   13.7619   25.5793   -3.3674 C   0  0  0  0  0  0  0  0  0  0  0  0
   14.6262   24.5982   -3.7828 C   0  0  0  0  0  0  0  0  0  0  0  0
   15.4066   24.6868   -4.9060 C   0  0  0  0  0  0  0  0  0  0  0  0
   15.3247   25.8465   -5.6855 C   0  0  0  0  0  0  0  0  0  0  0  0
   14.4563   26.8240   -5.2625 C   0  0  0  0  0  0  0  0  0  0  0  0
   13.6789   26.7257   -4.1359 C   0  0  0  0  0  0  0  0  0  0  0  0
   10.4543   25.2671    2.6362 C   0  0  0  0  0  0  0  0  0  0  0  0
    9.1464   25.7222    3.0889 C   0  0  0  0  0  0  0  0  0  0  0  0
    9.0247   26.8986    3.7845 C   0  0  0  0  0  0  0  0  0  0  0  0
    7.7908   27.3609    4.2395 C   0  0  0  0  0  0  0  0  0  0  0  0
    6.6599   26.6261    3.9899 C   0  0  0  0  0  0  0  0  0  0  0  0
    6.7525   25.4336    3.2891 C   0  0  0  0  0  0  0  0  0  0  0  0
    8.0012   25.0007    2.8484 C   0  0  0  0  0  0  0  0  0  0  0  0
 16 17  1  0  0  0
 17 10  1  0  0  0
 10 11  2  0  0  0
 11 12  1  0  0  0
 12 18  1  0  0  0
 18 19  1  0  0  0
 12 13  2  0  0  0
 13 14  1  0  0  0
 14 15  2  0  0  0
 14  6  1  0  0  0
  6  7  2  0  0  0
  6  8  1  0  0  0
  8  5  1  0  0  0
  5 20  1  0  0  0
 20 21  1  0  0  0
 21 22  2  0  0  0
 22 23  1  0  0  0
 23 24  2  0  0  0
 24 25  1  0  0  0
 25 26  2  0  0  0
  5  1  1  0  0  0
  1  2  2  0  0  0
  1  3  1  0  0  0
  3 27  1  0  0  0
 27 44  1  0  0  0
 44 45  1  0  0  0
 45 46  2  0  0  0
 46 47  1  0  0  0
 47 48  2  0  0  0
 48 49  1  0  0  0
 49 50  2  0  0  0
 27 28  1  0  0  0
 28 29  2  0  0  0
 28 30  1  0  0  0
 30 32  1  0  0  0
 32 37  1  0  0  0
 37 38  1  0  0  0
 38 39  2  0  0  0
 39 40  1  0  0  0
 40 41  2  0  0  0
 41 42  1  0  0  0
 42 43  2  0  0  0
 32 33  1  0  0  0
 33 34  1  0  0  0
 33 35  2  0  0  0
 15 10  1  0  0  0
 26 21  1  0  0  0
 50 45  1  0  0  0
 43 38  1  0  0  0
  8  9  1  0  0  0
  3  4  1  0  0  0
 30 31  1  0  0  0
 34 36  1  0  0  0
M  END
> <minimizedAffinity>
-6.53617

> <CNNscore>
0.2651603818

> <CNNaffinity>
7.0443587303

> <CNN_VS>
1.8678848743

> <CNNaffinity_variance>
0.5427024364

$$$$
[H]OC(=O)[C@@]([H])(N([H])C(=O)[C@@]([H])(N([H])C(=O)[C@@]([H])(N([H])C(=O)c1c([H])c(OC([H])([H])[H])c([H])c(OC([H])([H])[H])c1[H])C([H])([H])c1c([H])c([H])c([H])c([H])c1[H])C([H])([H])c1c([H])c([H])c([H])c([H])c1[H])C([H])([H])c1c([H])c([H])c([H])c([H])c1[H]


 50 53  0  0  0  0  0  0  0  0999 V2000
   10.9684   22.4224    2.0909 C   0  0  0  0  0  0  0  0  0  0  0  0
   12.0974   22.9751    2.3967 O   0  0  0  0  0  0  0  0  0  0  0  0
    9.9568   23.2781    1.5423 N   0  0  0  0  0  0  0  0  0  0  0  0
    9.0341   22.8807    1.2860 H   0  0  0  0  0  0  0  0  0  0  0  0
   10.8292   21.0015    2.3167 C   0  0  0  0  0  0  0  0  0  0  0  0
    8.7284   20.6056    3.6843 C   0  0  0  0  0  0  0  0  0  0  0  0
    9.3879   20.7458    4.7429 O   0  0  0  0  0  0  0  0  0  0  0  0
    9.3683   20.7157    2.4324 N   0  0  0  0  0  0  0  0  0  0  0  0
    8.8299   20.6009    1.5584 H   0  0  0  0  0  0  0  0  0  0  0  0
    5.0776   20.3667    2.8668 C   0  0  0  0  0  0  0  0  0  0  0  0
    4.5656   19.8020    4.0101 C   0  0  0  0  0  0  0  0  0  0  0  0
    5.3938   19.4864    5.0810 C   0  0  0  0  0  0  0  0  0  0  0  0
    6.7557   19.7649    4.9456 C   0  0  0  0  0  0  0  0  0  0  0  0
    7.2984   20.3300    3.8129 C   0  0  0  0  0  0  0  0  0  0  0  0
    6.4274   20.6208    2.7853 C   0  0  0  0  0  0  0  0  0  0  0  0
    4.4286   20.3117    0.4761 C   0  0  0  0  0  0  0  0  0  0  0  0
    4.2449   20.6735    1.8136 O   0  0  0  0  0  0  0  0  0  0  0  0
    4.8978   18.9122    6.2539 O   0  0  0  0  0  0  0  0  0  0  0  0
    4.9564   17.5003    6.3611 C   0  0  0  0  0  0  0  0  0  0  0  0
   11.3146   20.0874    1.2540 C   0  0  0  0  0  0  0  0  0  0  0  0
   12.5252   20.3987    0.5309 C   0  0  0  0  0  0  0  0  0  0  0  0
   13.7738   20.3226    1.1180 C   0  0  0  0  0  0  0  0  0  0  0  0
   14.9046   20.5708    0.3984 C   0  0  0  0  0  0  0  0  0  0  0  0
   14.8104   20.9029   -0.9330 C   0  0  0  0  0  0  0  0  0  0  0  0
   13.5769   20.9876   -1.5503 C   0  0  0  0  0  0  0  0  0  0  0  0
   12.4301   20.7370   -0.8242 C   0  0  0  0  0  0  0  0  0  0  0  0
   10.2598   24.7013    1.3422 C   0  0  0  0  0  0  0  0  0  0  0  0
   11.5323   24.9765    0.6938 C   0  0  0  0  0  0  0  0  0  0  0  0
   12.1650   26.0149    0.9827 O   0  0  0  0  0  0  0  0  0  0  0  0
   12.1310   24.1300   -0.2687 N   0  0  0  0  0  0  0  0  0  0  0  0
   11.6555   23.2589   -0.5376 H   0  0  0  0  0  0  0  0  0  0  0  0
   13.4152   24.4156   -0.9227 C   0  0  0  0  0  0  0  0  0  0  0  0
   14.4932   24.5583    0.0338 C   0  0  0  0  0  0  0  0  0  0  0  0
   15.0931   23.4968    0.6666 O   0  0  0  0  0  0  0  0  0  0  0  0
   14.9450   25.7191    0.3409 O   0  0  0  0  0  0  0  0  0  0  0  0
   16.0143   23.5531    1.1118 H   0  0  0  0  0  0  0  0  0  0  0  0
   13.2298   25.5605   -1.8980 C   0  0  0  0  0  0  0  0  0  0  0  0
   13.9581   25.4620   -3.1543 C   0  0  0  0  0  0  0  0  0  0  0  0
   14.8385   24.4358   -3.3865 C   0  0  0  0  0  0  0  0  0  0  0  0
   15.5610   24.2899   -4.5419 C   0  0  0  0  0  0  0  0  0  0  0  0
   15.3982   25.2417   -5.5553 C   0  0  0  0  0  0  0  0  0  0  0  0
   14.5142   26.2660   -5.3147 C   0  0  0  0  0  0  0  0  0  0  0  0
   13.7953   26.4033   -4.1539 C   0  0  0  0  0  0  0  0  0  0  0  0
   10.1512   25.4065    2.7013 C   0  0  0  0  0  0  0  0  0  0  0  0
    8.9042   25.0938    3.3867 C   0  0  0  0  0  0  0  0  0  0  0  0
    7.7386   25.7208    3.0249 C   0  0  0  0  0  0  0  0  0  0  0  0
    6.5290   25.4521    3.6634 C   0  0  0  0  0  0  0  0  0  0  0  0
    6.4921   24.5364    4.6839 C   0  0  0  0  0  0  0  0  0  0  0  0
    7.6542   23.8872    5.0707 C   0  0  0  0  0  0  0  0  0  0  0  0
    8.8462   24.1789    4.4112 C   0  0  0  0  0  0  0  0  0  0  0  0
 16 17  1  0  0  0
 17 10  1  0  0  0
 10 11  2  0  0  0
 11 12  1  0  0  0
 12 18  1  0  0  0
 18 19  1  0  0  0
 12 13  2  0  0  0
 13 14  1  0  0  0
 14 15  2  0  0  0
 14  6  1  0  0  0
  6  7  2  0  0  0
  6  8  1  0  0  0
  8  5  1  0  0  0
  5 20  1  0  0  0
 20 21  1  0  0  0
 21 22  2  0  0  0
 22 23  1  0  0  0
 23 24  2  0  0  0
 24 25  1  0  0  0
 25 26  2  0  0  0
  5  1  1  0  0  0
  1  2  2  0  0  0
  1  3  1  0  0  0
  3 27  1  0  0  0
 27 44  1  0  0  0
 44 45  1  0  0  0
 45 46  2  0  0  0
 46 47  1  0  0  0
 47 48  2  0  0  0
 48 49  1  0  0  0
 49 50  2  0  0  0
 27 28  1  0  0  0
 28 29  2  0  0  0
 28 30  1  0  0  0
 30 32  1  0  0  0
 32 37  1  0  0  0
 37 38  1  0  0  0
 38 39  2  0  0  0
 39 40  1  0  0  0
 40 41  2  0  0  0
 41 42  1  0  0  0
 42 43  2  0  0  0
 32 33  1  0  0  0
 33 34  1  0  0  0
 33 35  2  0  0  0
 15 10  1  0  0  0
 26 21  1  0  0  0
 50 45  1  0  0  0
 43 38  1  0  0  0
  8  9  1  0  0  0
  3  4  1  0  0  0
 30 31  1  0  0  0
 34 36  1  0  0  0
M  END
> <minimizedAffinity>
-6.44548

> <CNNscore>
0.2368695587

> <CNNaffinity>
7.1242933273

> <CNN_VS>
1.6875282526

> <CNNaffinity_variance>
0.1242645830

$$$$
[H]OC(=O)[C@@]([H])(N([H])C(=O)[C@@]([H])(N([H])C(=O)[C@@]([H])(N([H])C(=O)c1c([H])c(OC([H])([H])[H])c([H])c(OC([H])([H])[H])c1[H])C([H])([H])c1c([H])c([H])c([H])c([H])c1[H])C([H])([H])c1c([H])c([H])c([H])c([H])c1[H])C([H])([H])c1c([H])c([H])c([H])c([H])c1[H]


 50 53  0  0  0  0  0  0  0  0999 V2000
    9.7694   23.7364    0.4029 C   0  0  0  0  0  0  0  0  0  0  0  0
   10.6479   23.9755    1.3220 O   0  0  0  0  0  0  0  0  0  0  0  0
   10.2575   23.5994   -0.9386 N   0  0  0  0  0  0  0  0  0  0  0  0
    9.5900   23.4116   -1.7094 H   0  0  0  0  0  0  0  0  0  0  0  0
    8.3861   23.6187    0.8053 C   0  0  0  0  0  0  0  0  0  0  0  0
    6.8155   21.6255    0.8348 C   0  0  0  0  0  0  0  0  0  0  0  0
    6.2885   22.0531    1.8907 O   0  0  0  0  0  0  0  0  0  0  0  0
    7.8674   22.3429    0.2286 N   0  0  0  0  0  0  0  0  0  0  0  0
    8.3045   21.9950   -0.6403 H   0  0  0  0  0  0  0  0  0  0  0  0
    5.8674   18.0129    0.5135 C   0  0  0  0  0  0  0  0  0  0  0  0
    5.2951   17.9781   -0.7352 C   0  0  0  0  0  0  0  0  0  0  0  0
    5.2049   19.1290   -1.5095 C   0  0  0  0  0  0  0  0  0  0  0  0
    5.7157   20.3109   -0.9683 C   0  0  0  0  0  0  0  0  0  0  0  0
    6.2948   20.3774    0.2796 C   0  0  0  0  0  0  0  0  0  0  0  0
    6.3557   19.2039    0.9996 C   0  0  0  0  0  0  0  0  0  0  0  0
    5.3326   16.6357    2.5028 C   0  0  0  0  0  0  0  0  0  0  0  0
    5.9493   16.8646    1.2695 O   0  0  0  0  0  0  0  0  0  0  0  0
    4.6281   19.1198   -2.7818 O   0  0  0  0  0  0  0  0  0  0  0  0
    4.9177   20.2144   -3.6342 C   0  0  0  0  0  0  0  0  0  0  0  0
    8.1000   23.5257    2.2580 C   0  0  0  0  0  0  0  0  0  0  0  0
    8.1686   24.7078    3.0847 C   0  0  0  0  0  0  0  0  0  0  0  0
    7.6569   25.9240    2.6744 C   0  0  0  0  0  0  0  0  0  0  0  0
    7.6875   27.0118    3.4953 C   0  0  0  0  0  0  0  0  0  0  0  0
    8.2343   26.9059    4.7530 C   0  0  0  0  0  0  0  0  0  0  0  0
    8.7546   25.7040    5.1938 C   0  0  0  0  0  0  0  0  0  0  0  0
    8.7252   24.6008    4.3648 C   0  0  0  0  0  0  0  0  0  0  0  0
   11.7007   23.7144   -1.1864 C   0  0  0  0  0  0  0  0  0  0  0  0
   12.5518   23.1429   -0.1548 C   0  0  0  0  0  0  0  0  0  0  0  0
   13.3207   23.8824    0.4963 O   0  0  0  0  0  0  0  0  0  0  0  0
   12.5755   21.7691    0.1822 N   0  0  0  0  0  0  0  0  0  0  0  0
   11.9572   21.1178   -0.3184 H   0  0  0  0  0  0  0  0  0  0  0  0
   13.4404   21.1975    1.2231 C   0  0  0  0  0  0  0  0  0  0  0  0
   14.8078   21.0445    0.7712 C   0  0  0  0  0  0  0  0  0  0  0  0
   15.9012   21.3902    1.5275 O   0  0  0  0  0  0  0  0  0  0  0  0
   15.0620   20.5668   -0.3920 O   0  0  0  0  0  0  0  0  0  0  0  0
   16.8458   21.0359    1.3480 H   0  0  0  0  0  0  0  0  0  0  0  0
   12.7796   19.9567    1.7889 C   0  0  0  0  0  0  0  0  0  0  0  0
   11.9524   20.1484    2.9709 C   0  0  0  0  0  0  0  0  0  0  0  0
   11.6878   19.1109    3.8287 C   0  0  0  0  0  0  0  0  0  0  0  0
   10.9110   19.2220    4.9524 C   0  0  0  0  0  0  0  0  0  0  0  0
   10.3474   20.4674    5.2534 C   0  0  0  0  0  0  0  0  0  0  0  0
   10.6178   21.5012    4.3893 C   0  0  0  0  0  0  0  0  0  0  0  0
   11.3971   21.3796    3.2662 C   0  0  0  0  0  0  0  0  0  0  0  0
   12.0244   25.1944   -1.4337 C   0  0  0  0  0  0  0  0  0  0  0  0
   12.9783   25.3762   -2.5198 C   0  0  0  0  0  0  0  0  0  0  0  0
   13.9678   24.4504   -2.7351 C   0  0  0  0  0  0  0  0  0  0  0  0
   14.9020   24.5957   -3.7595 C   0  0  0  0  0  0  0  0  0  0  0  0
   14.8389   25.6921   -4.5813 C   0  0  0  0  0  0  0  0  0  0  0  0
   13.8497   26.6436   -4.3876 C   0  0  0  0  0  0  0  0  0  0  0  0
   12.9317   26.4675   -3.3546 C   0  0  0  0  0  0  0  0  0  0  0  0
 16 17  1  0  0  0
 17 10  1  0  0  0
 10 11  2  0  0  0
 11 12  1  0  0  0
 12 18  1  0  0  0
 18 19  1  0  0  0
 12 13  2  0  0  0
 13 14  1  0  0  0
 14 15  2  0  0  0
 14  6  1  0  0  0
  6  7  2  0  0  0
  6  8  1  0  0  0
  8  5  1  0  0  0
  5 20  1  0  0  0
 20 21  1  0  0  0
 21 22  2  0  0  0
 22 23  1  0  0  0
 23 24  2  0  0  0
 24 25  1  0  0  0
 25 26  2  0  0  0
  5  1  1  0  0  0
  1  2  2  0  0  0
  1  3  1  0  0  0
  3 27  1  0  0  0
 27 44  1  0  0  0
 44 45  1  0  0  0
 45 46  2  0  0  0
 46 47  1  0  0  0
 47 48  2  0  0  0
 48 49  1  0  0  0
 49 50  2  0  0  0
 27 28  1  0  0  0
 28 29  2  0  0  0
 28 30  1  0  0  0
 30 32  1  0  0  0
 32 37  1  0  0  0
 37 38  1  0  0  0
 38 39  2  0  0  0
 39 40  1  0  0  0
 40 41  2  0  0  0
 41 42  1  0  0  0
 42 43  2  0  0  0
 32 33  1  0  0  0
 33 34  1  0  0  0
 33 35  2  0  0  0
 15 10  1  0  0  0
 26 21  1  0  0  0
 50 45  1  0  0  0
 43 38  1  0  0  0
  8  9  1  0  0  0
  3  4  1  0  0  0
 30 31  1  0  0  0
 34 36  1  0  0  0
M  END
> <minimizedAffinity>
-9.99136

> <CNNscore>
0.2261078060

> <CNNaffinity>
7.1783742905

> <CNN_VS>
1.6230864525

> <CNNaffinity_variance>
0.6180963516

$$$$
[H]OC(=O)[C@@]([H])(N([H])C(=O)[C@@]([H])(N([H])C(=O)[C@@]([H])(N([H])C(=O)c1c([H])c(OC([H])([H])[H])c([H])c(OC([H])([H])[H])c1[H])C([H])([H])c1c([H])c([H])c([H])c([H])c1[H])C([H])([H])c1c([H])c([H])c([H])c([H])c1[H])C([H])([H])c1c([H])c([H])c([H])c([H])c1[H]


 50 53  0  0  0  0  0  0  0  0999 V2000
    9.8427   23.8585    0.4882 C   0  0  0  0  0  0  0  0  0  0  0  0
   10.7330   24.0613    1.4047 O   0  0  0  0  0  0  0  0  0  0  0  0
   10.3194   23.7193   -0.8572 N   0  0  0  0  0  0  0  0  0  0  0  0
    9.6424   23.5598   -1.6260 H   0  0  0  0  0  0  0  0  0  0  0  0
    8.4586   23.7799    0.8972 C   0  0  0  0  0  0  0  0  0  0  0  0
    6.8873   21.7894    0.9939 C   0  0  0  0  0  0  0  0  0  0  0  0
    6.4198   22.2079    2.0809 O   0  0  0  0  0  0  0  0  0  0  0  0
    7.9062   22.5105    0.3377 N   0  0  0  0  0  0  0  0  0  0  0  0
    8.2943   22.1701   -0.5570 H   0  0  0  0  0  0  0  0  0  0  0  0
    5.5476   19.2638   -1.4310 C   0  0  0  0  0  0  0  0  0  0  0  0
    5.2966   18.1884   -0.6133 C   0  0  0  0  0  0  0  0  0  0  0  0
    5.5529   18.2562    0.7512 C   0  0  0  0  0  0  0  0  0  0  0  0
    6.0721   19.4530    1.2502 C   0  0  0  0  0  0  0  0  0  0  0  0
    6.3342   20.5475    0.4563 C   0  0  0  0  0  0  0  0  0  0  0  0
    6.0593   20.4200   -0.8881 C   0  0  0  0  0  0  0  0  0  0  0  0
    4.6464   20.1446   -3.5645 C   0  0  0  0  0  0  0  0  0  0  0  0
    5.2892   19.1818   -2.7813 O   0  0  0  0  0  0  0  0  0  0  0  0
    5.3060   17.1772    1.6035 O   0  0  0  0  0  0  0  0  0  0  0  0
    5.7829   15.9061    1.1968 C   0  0  0  0  0  0  0  0  0  0  0  0
    8.1761   23.7114    2.3519 C   0  0  0  0  0  0  0  0  0  0  0  0
    8.1713   24.9187    3.1443 C   0  0  0  0  0  0  0  0  0  0  0  0
    8.8498   25.0145    4.3443 C   0  0  0  0  0  0  0  0  0  0  0  0
    8.8727   26.1823    5.0470 C   0  0  0  0  0  0  0  0  0  0  0  0
    8.2128   27.2871    4.5613 C   0  0  0  0  0  0  0  0  0  0  0  0
    7.5248   27.2247    3.3645 C   0  0  0  0  0  0  0  0  0  0  0  0
    7.4998   26.0435    2.6508 C   0  0  0  0  0  0  0  0  0  0  0  0
   11.7641   23.7918   -1.1118 C   0  0  0  0  0  0  0  0  0  0  0  0
   12.6024   23.1842   -0.0904 C   0  0  0  0  0  0  0  0  0  0  0  0
   13.4067   23.8909    0.5544 O   0  0  0  0  0  0  0  0  0  0  0  0
   12.5750   21.8097    0.2432 N   0  0  0  0  0  0  0  0  0  0  0  0
   11.9261   21.1848   -0.2524 H   0  0  0  0  0  0  0  0  0  0  0  0
   13.4271   21.2014    1.2738 C   0  0  0  0  0  0  0  0  0  0  0  0
   14.7901   21.0235    0.8178 C   0  0  0  0  0  0  0  0  0  0  0  0
   15.8894   21.4426    1.5268 O   0  0  0  0  0  0  0  0  0  0  0  0
   15.0343   20.4510   -0.3040 O   0  0  0  0  0  0  0  0  0  0  0  0
   16.8354   21.0834    1.3651 H   0  0  0  0  0  0  0  0  0  0  0  0
   12.7378   19.9676    1.8207 C   0  0  0  0  0  0  0  0  0  0  0  0
   11.8965   20.1644    2.9919 C   0  0  0  0  0  0  0  0  0  0  0  0
   11.3041   21.3756    3.2456 C   0  0  0  0  0  0  0  0  0  0  0  0
   10.5090   21.6293    4.3327 C   0  0  0  0  0  0  0  0  0  0  0  0
   10.2803   20.5952    5.2480 C   0  0  0  0  0  0  0  0  0  0  0  0
   10.8771   19.3853    4.9861 C   0  0  0  0  0  0  0  0  0  0  0  0
   11.6719   19.1413    3.8943 C   0  0  0  0  0  0  0  0  0  0  0  0
   12.1324   25.2634   -1.3468 C   0  0  0  0  0  0  0  0  0  0  0  0
   13.0224   25.4336   -2.4877 C   0  0  0  0  0  0  0  0  0  0  0  0
   14.0092   24.5143   -2.7399 C   0  0  0  0  0  0  0  0  0  0  0  0
   14.8833   24.6490   -3.8174 C   0  0  0  0  0  0  0  0  0  0  0  0
   14.7620   25.7282   -4.6553 C   0  0  0  0  0  0  0  0  0  0  0  0
   13.7740   26.6729   -4.4251 C   0  0  0  0  0  0  0  0  0  0  0  0
   12.9168   26.5076   -3.3394 C   0  0  0  0  0  0  0  0  0  0  0  0
 16 17  1  0  0  0
 17 10  1  0  0  0
 10 11  2  0  0  0
 11 12  1  0  0  0
 12 18  1  0  0  0
 18 19  1  0  0  0
 12 13  2  0  0  0
 13 14  1  0  0  0
 14 15  2  0  0  0
 14  6  1  0  0  0
  6  7  2  0  0  0
  6  8  1  0  0  0
  8  5  1  0  0  0
  5 20  1  0  0  0
 20 21  1  0  0  0
 21 22  2  0  0  0
 22 23  1  0  0  0
 23 24  2  0  0  0
 24 25  1  0  0  0
 25 26  2  0  0  0
  5  1  1  0  0  0
  1  2  2  0  0  0
  1  3  1  0  0  0
  3 27  1  0  0  0
 27 44  1  0  0  0
 44 45  1  0  0  0
 45 46  2  0  0  0
 46 47  1  0  0  0
 47 48  2  0  0  0
 48 49  1  0  0  0
 49 50  2  0  0  0
 27 28  1  0  0  0
 28 29  2  0  0  0
 28 30  1  0  0  0
 30 32  1  0  0  0
 32 37  1  0  0  0
 37 38  1  0  0  0
 38 39  2  0  0  0
 39 40  1  0  0  0
 40 41  2  0  0  0
 41 42  1  0  0  0
 42 43  2  0  0  0
 32 33  1  0  0  0
 33 34  1  0  0  0
 33 35  2  0  0  0
 15 10  1  0  0  0
 26 21  1  0  0  0
 50 45  1  0  0  0
 43 38  1  0  0  0
  8  9  1  0  0  0
  3  4  1  0  0  0
 30 31  1  0  0  0
 34 36  1  0  0  0
M  END
> <minimizedAffinity>
-10.13293

> <CNNscore>
0.1922924072

> <CNNaffinity>
7.0925264359

> <CNN_VS>
1.3638390303

> <CNNaffinity_variance>
0.7110164762

$$$$
[H]OC(=O)[C@@]([H])(N([H])C(=O)[C@@]([H])(N([H])C(=O)[C@@]([H])(N([H])C(=O)c1c([H])c(OC([H])([H])[H])c([H])c(OC([H])([H])[H])c1[H])C([H])([H])c1c([H])c([H])c([H])c([H])c1[H])C([H])([H])c1c([H])c([H])c([H])c([H])c1[H])C([H])([H])c1c([H])c([H])c([H])c([H])c1[H]


 50 53  0  0  0  0  0  0  0  0999 V2000
   10.9392   22.3998    1.9744 C   0  0  0  0  0  0  0  0  0  0  0  0
   12.0673   22.9464    2.2939 O   0  0  0  0  0  0  0  0  0  0  0  0
    9.9351   23.2631    1.4237 N   0  0  0  0  0  0  0  0  0  0  0  0
    9.0133   22.8708    1.1566 H   0  0  0  0  0  0  0  0  0  0  0  0
   10.7933   20.9778    2.1883 C   0  0  0  0  0  0  0  0  0  0  0  0
    8.6261   20.7327    3.4859 C   0  0  0  0  0  0  0  0  0  0  0  0
    9.2290   21.0117    4.5507 O   0  0  0  0  0  0  0  0  0  0  0  0
    9.3297   20.6924    2.2644 N   0  0  0  0  0  0  0  0  0  0  0  0
    8.8380   20.4631    1.3853 H   0  0  0  0  0  0  0  0  0  0  0  0
    5.2955   19.6896    4.8543 C   0  0  0  0  0  0  0  0  0  0  0  0
    4.4595   19.9423    3.7935 C   0  0  0  0  0  0  0  0  0  0  0  0
    4.9568   20.4560    2.6015 C   0  0  0  0  0  0  0  0  0  0  0  0
    6.3297   20.7022    2.5295 C   0  0  0  0  0  0  0  0  0  0  0  0
    7.1927   20.4594    3.5751 C   0  0  0  0  0  0  0  0  0  0  0  0
    6.6409   19.9500    4.7306 C   0  0  0  0  0  0  0  0  0  0  0  0
    4.6572   17.8299    6.3623 C   0  0  0  0  0  0  0  0  0  0  0  0
    4.7883   19.1811    6.0295 O   0  0  0  0  0  0  0  0  0  0  0  0
    4.1278   20.7210    1.5087 O   0  0  0  0  0  0  0  0  0  0  0  0
    4.7483   20.8650    0.2427 C   0  0  0  0  0  0  0  0  0  0  0  0
   11.3055   20.0694    1.1332 C   0  0  0  0  0  0  0  0  0  0  0  0
   12.5265   20.3920    0.4328 C   0  0  0  0  0  0  0  0  0  0  0  0
   12.5436   20.6984   -0.9146 C   0  0  0  0  0  0  0  0  0  0  0  0
   13.7023   21.0508   -1.5401 C   0  0  0  0  0  0  0  0  0  0  0  0
   14.8771   21.1046   -0.8267 C   0  0  0  0  0  0  0  0  0  0  0  0
   14.8943   20.8040    0.5220 C   0  0  0  0  0  0  0  0  0  0  0  0
   13.7226   20.4468    1.1581 C   0  0  0  0  0  0  0  0  0  0  0  0
   10.2446   24.6867    1.2369 C   0  0  0  0  0  0  0  0  0  0  0  0
   11.4779   24.9612    0.5166 C   0  0  0  0  0  0  0  0  0  0  0  0
   12.1284   25.9977    0.7709 O   0  0  0  0  0  0  0  0  0  0  0  0
   12.0182   24.1161   -0.4810 N   0  0  0  0  0  0  0  0  0  0  0  0
   11.5261   23.2466   -0.7241 H   0  0  0  0  0  0  0  0  0  0  0  0
   13.2629   24.4009   -1.2076 C   0  0  0  0  0  0  0  0  0  0  0  0
   14.4016   24.5006   -0.3183 C   0  0  0  0  0  0  0  0  0  0  0  0
   14.3445   24.2157    1.0242 O   0  0  0  0  0  0  0  0  0  0  0  0
   15.5463   24.8732   -0.7618 O   0  0  0  0  0  0  0  0  0  0  0  0
   15.1718   24.0095    1.5926 H   0  0  0  0  0  0  0  0  0  0  0  0
   13.0351   25.5755   -2.1376 C   0  0  0  0  0  0  0  0  0  0  0  0
   13.8301   25.5969   -3.3565 C   0  0  0  0  0  0  0  0  0  0  0  0
   14.6118   24.5275   -3.7136 C   0  0  0  0  0  0  0  0  0  0  0  0
   15.3895   24.4869   -4.8414 C   0  0  0  0  0  0  0  0  0  0  0  0
   15.3940   25.6007   -5.6892 C   0  0  0  0  0  0  0  0  0  0  0  0
   14.6080   26.6672   -5.3243 C   0  0  0  0  0  0  0  0  0  0  0  0
   13.8325   26.6981   -4.1924 C   0  0  0  0  0  0  0  0  0  0  0  0
   10.2304   25.3615    2.6156 C   0  0  0  0  0  0  0  0  0  0  0  0
    8.8862   25.4557    3.1696 C   0  0  0  0  0  0  0  0  0  0  0  0
    8.2384   24.3298    3.6115 C   0  0  0  0  0  0  0  0  0  0  0  0
    6.9496   24.3813    4.1401 C   0  0  0  0  0  0  0  0  0  0  0  0
    6.3016   25.5873    4.2252 C   0  0  0  0  0  0  0  0  0  0  0  0
    6.9317   26.7415    3.7867 C   0  0  0  0  0  0  0  0  0  0  0  0
    8.2202   26.6546    3.2641 C   0  0  0  0  0  0  0  0  0  0  0  0
 16 17  1  0  0  0
 17 10  1  0  0  0
 10 11  2  0  0  0
 11 12  1  0  0  0
 12 18  1  0  0  0
 18 19  1  0  0  0
 12 13  2  0  0  0
 13 14  1  0  0  0
 14 15  2  0  0  0
 14  6  1  0  0  0
  6  7  2  0  0  0
  6  8  1  0  0  0
  8  5  1  0  0  0
  5 20  1  0  0  0
 20 21  1  0  0  0
 21 22  2  0  0  0
 22 23  1  0  0  0
 23 24  2  0  0  0
 24 25  1  0  0  0
 25 26  2  0  0  0
  5  1  1  0  0  0
  1  2  2  0  0  0
  1  3  1  0  0  0
  3 27  1  0  0  0
 27 44  1  0  0  0
 44 45  1  0  0  0
 45 46  2  0  0  0
 46 47  1  0  0  0
 47 48  2  0  0  0
 48 49  1  0  0  0
 49 50  2  0  0  0
 27 28  1  0  0  0
 28 29  2  0  0  0
 28 30  1  0  0  0
 30 32  1  0  0  0
 32 37  1  0  0  0
 37 38  1  0  0  0
 38 39  2  0  0  0
 39 40  1  0  0  0
 40 41  2  0  0  0
 41 42  1  0  0  0
 42 43  2  0  0  0
 32 33  1  0  0  0
 33 34  1  0  0  0
 33 35  2  0  0  0
 15 10  1  0  0  0
 26 21  1  0  0  0
 50 45  1  0  0  0
 43 38  1  0  0  0
  8  9  1  0  0  0
  3  4  1  0  0  0
 30 31  1  0  0  0
 34 36  1  0  0  0
M  END
> <minimizedAffinity>
-7.34039

> <CNNscore>
0.1801309139

> <CNNaffinity>
6.9897093773

> <CNN_VS>
1.2590627670

> <CNNaffinity_variance>
0.0216451101

$$$$
[H]OC(=O)[C@@]([H])(N([H])C(=O)[C@@]([H])(N([H])C(=O)[C@@]([H])(N([H])C(=O)c1c([H])c(OC([H])([H])[H])c([H])c(OC([H])([H])[H])c1[H])C([H])([H])c1c([H])c([H])c([H])c([H])c1[H])C([H])([H])c1c([H])c([H])c([H])c([H])c1[H])C([H])([H])c1c([H])c([H])c([H])c([H])c1[H]


 50 53  0  0  0  0  0  0  0  0999 V2000
   10.6624   20.8078    0.6267 C   0  0  0  0  0  0  0  0  0  0  0  0
    9.8357   20.0212    0.0173 O   0  0  0  0  0  0  0  0  0  0  0  0
   10.1096   21.9865    1.2285 N   0  0  0  0  0  0  0  0  0  0  0  0
   10.7343   22.6490    1.7242 H   0  0  0  0  0  0  0  0  0  0  0  0
   12.0570   20.4291    0.6571 C   0  0  0  0  0  0  0  0  0  0  0  0
   13.3646   21.9428   -0.9047 C   0  0  0  0  0  0  0  0  0  0  0  0
   13.1576   21.1474   -1.8532 O   0  0  0  0  0  0  0  0  0  0  0  0
   12.8534   21.6611    0.3791 N   0  0  0  0  0  0  0  0  0  0  0  0
   13.0212   22.3125    1.1630 H   0  0  0  0  0  0  0  0  0  0  0  0
   14.6080   25.0311   -2.6281 C   0  0  0  0  0  0  0  0  0  0  0  0
   15.5908   25.4608   -1.7694 C   0  0  0  0  0  0  0  0  0  0  0  0
   15.8791   24.7555   -0.6068 C   0  0  0  0  0  0  0  0  0  0  0  0
   15.1334   23.6024   -0.3515 C   0  0  0  0  0  0  0  0  0  0  0  0
   14.1425   23.1466   -1.1925 C   0  0  0  0  0  0  0  0  0  0  0  0
   13.9028   23.8879   -2.3294 C   0  0  0  0  0  0  0  0  0  0  0  0
   13.1972   26.5176   -4.0209 C   0  0  0  0  0  0  0  0  0  0  0  0
   14.3330   25.7406   -3.7760 O   0  0  0  0  0  0  0  0  0  0  0  0
   16.8735   25.1714    0.2819 O   0  0  0  0  0  0  0  0  0  0  0  0
   17.8180   24.2010    0.7000 C   0  0  0  0  0  0  0  0  0  0  0  0
   12.5975   19.9047    1.9353 C   0  0  0  0  0  0  0  0  0  0  0  0
   11.8339   20.0428    3.1531 C   0  0  0  0  0  0  0  0  0  0  0  0
   11.3610   18.9496    3.8537 C   0  0  0  0  0  0  0  0  0  0  0  0
   10.6879   19.1058    5.0286 C   0  0  0  0  0  0  0  0  0  0  0  0
   10.4717   20.3675    5.5319 C   0  0  0  0  0  0  0  0  0  0  0  0
   10.9315   21.4817    4.8559 C   0  0  0  0  0  0  0  0  0  0  0  0
   11.6132   21.3266    3.6658 C   0  0  0  0  0  0  0  0  0  0  0  0
    8.6622   22.2193    1.1398 C   0  0  0  0  0  0  0  0  0  0  0  0
    8.1793   23.3872    1.8596 C   0  0  0  0  0  0  0  0  0  0  0  0
    7.8703   24.4214    1.2295 O   0  0  0  0  0  0  0  0  0  0  0  0
    8.0242   23.4442    3.2646 N   0  0  0  0  0  0  0  0  0  0  0  0
    8.2577   22.6180    3.8303 H   0  0  0  0  0  0  0  0  0  0  0  0
    7.5392   24.6285    3.9861 C   0  0  0  0  0  0  0  0  0  0  0  0
    8.6242   25.4850    4.4180 C   0  0  0  0  0  0  0  0  0  0  0  0
    9.6579   25.8725    3.6006 O   0  0  0  0  0  0  0  0  0  0  0  0
    8.6670   25.9292    5.6208 O   0  0  0  0  0  0  0  0  0  0  0  0
   10.2586   26.6796    3.7951 H   0  0  0  0  0  0  0  0  0  0  0  0
    6.5653   24.1887    5.0606 C   0  0  0  0  0  0  0  0  0  0  0  0
    6.4650   22.7554    5.2928 C   0  0  0  0  0  0  0  0  0  0  0  0
    5.5190   21.9964    4.6516 C   0  0  0  0  0  0  0  0  0  0  0  0
    5.3658   20.6464    4.8316 C   0  0  0  0  0  0  0  0  0  0  0  0
    6.2229   19.9907    5.7233 C   0  0  0  0  0  0  0  0  0  0  0  0
    7.1676   20.7583    6.3610 C   0  0  0  0  0  0  0  0  0  0  0  0
    7.3129   22.1101    6.1738 C   0  0  0  0  0  0  0  0  0  0  0  0
    7.9459   20.9386    1.5904 C   0  0  0  0  0  0  0  0  0  0  0  0
    6.6491   20.7764    0.9464 C   0  0  0  0  0  0  0  0  0  0  0  0
    5.7427   19.8684    1.4327 C   0  0  0  0  0  0  0  0  0  0  0  0
    4.4961   19.6812    0.8377 C   0  0  0  0  0  0  0  0  0  0  0  0
    4.1562   20.4209   -0.2663 C   0  0  0  0  0  0  0  0  0  0  0  0
    5.0519   21.3461   -0.7795 C   0  0  0  0  0  0  0  0  0  0  0  0
    6.2892   21.5084   -0.1602 C   0  0  0  0  0  0  0  0  0  0  0  0
 16 17  1  0  0  0
 17 10  1  0  0  0
 10 11  2  0  0  0
 11 12  1  0  0  0
 12 18  1  0  0  0
 18 19  1  0  0  0
 12 13  2  0  0  0
 13 14  1  0  0  0
 14 15  2  0  0  0
 14  6  1  0  0  0
  6  7  2  0  0  0
  6  8  1  0  0  0
  8  5  1  0  0  0
  5 20  1  0  0  0
 20 21  1  0  0  0
 21 22  2  0  0  0
 22 23  1  0  0  0
 23 24  2  0  0  0
 24 25  1  0  0  0
 25 26  2  0  0  0
  5  1  1  0  0  0
  1  2  2  0  0  0
  1  3  1  0  0  0
  3 27  1  0  0  0
 27 44  1  0  0  0
 44 45  1  0  0  0
 45 46  2  0  0  0
 46 47  1  0  0  0
 47 48  2  0  0  0
 48 49  1  0  0  0
 49 50  2  0  0  0
 27 28  1  0  0  0
 28 29  2  0  0  0
 28 30  1  0  0  0
 30 32  1  0  0  0
 32 37  1  0  0  0
 37 38  1  0  0  0
 38 39  2  0  0  0
 39 40  1  0  0  0
 40 41  2  0  0  0
 41 42  1  0  0  0
 42 43  2  0  0  0
 32 33  1  0  0  0
 33 34  1  0  0  0
 33 35  2  0  0  0
 15 10  1  0  0  0
 26 21  1  0  0  0
 50 45  1  0  0  0
 43 38  1  0  0  0
  8  9  1  0  0  0
  3  4  1  0  0  0
 30 31  1  0  0  0
 34 36  1  0  0  0
M  END
> <minimizedAffinity>
-5.72398

> <CNNscore>
0.1233524308

> <CNNaffinity>
6.7537589073

> <CNN_VS>
0.8330925703

> <CNNaffinity_variance>
0.2496257126

$$$$
[H]OC(=O)[C@@]([H])(N([H])C(=O)[C@@]([H])(N([H])C(=O)[C@@]([H])(N([H])C(=O)c1c([H])c(OC([H])([H])[H])c([H])c(OC([H])([H])[H])c1[H])C([H])([H])c1c([H])c([H])c([H])c([H])c1[H])C([H])([H])c1c([H])c([H])c([H])c([H])c1[H])C([H])([H])c1c([H])c([H])c([H])c([H])c1[H]


 50 53  0  0  0  0  0  0  0  0999 V2000
    9.7982   21.5799   -0.1351 C   0  0  0  0  0  0  0  0  0  0  0  0
    9.6905   22.8624   -0.0035 O   0  0  0  0  0  0  0  0  0  0  0  0
    8.6021   20.8087    0.0427 N   0  0  0  0  0  0  0  0  0  0  0  0
    8.6404   19.7767   -0.0488 H   0  0  0  0  0  0  0  0  0  0  0  0
   11.1001   21.0412   -0.4572 C   0  0  0  0  0  0  0  0  0  0  0  0
   13.1662   22.1511   -1.4267 C   0  0  0  0  0  0  0  0  0  0  0  0
   13.4130   21.1162   -2.0926 O   0  0  0  0  0  0  0  0  0  0  0  0
   12.0352   22.1981   -0.5856 N   0  0  0  0  0  0  0  0  0  0  0  0
   11.8280   23.0475   -0.0354 H   0  0  0  0  0  0  0  0  0  0  0  0
   15.8645   24.6377   -0.6586 C   0  0  0  0  0  0  0  0  0  0  0  0
   15.8776   25.4055   -1.7980 C   0  0  0  0  0  0  0  0  0  0  0  0
   15.0058   25.1378   -2.8472 C   0  0  0  0  0  0  0  0  0  0  0  0
   14.1250   24.0647   -2.6947 C   0  0  0  0  0  0  0  0  0  0  0  0
   14.0881   23.2772   -1.5654 C   0  0  0  0  0  0  0  0  0  0  0  0
   14.9760   23.5917   -0.5593 C   0  0  0  0  0  0  0  0  0  0  0  0
   17.6238   24.0186    0.9728 C   0  0  0  0  0  0  0  0  0  0  0  0
   16.7345   24.9144    0.3725 O   0  0  0  0  0  0  0  0  0  0  0  0
   14.9992   25.9037   -4.0155 O   0  0  0  0  0  0  0  0  0  0  0  0
   13.7626   26.4701   -4.4137 C   0  0  0  0  0  0  0  0  0  0  0  0
   11.7365   20.1439    0.5381 C   0  0  0  0  0  0  0  0  0  0  0  0
   11.6213   20.4325    1.9484 C   0  0  0  0  0  0  0  0  0  0  0  0
   11.4528   21.7183    2.4256 C   0  0  0  0  0  0  0  0  0  0  0  0
   11.2939   21.9579    3.7580 C   0  0  0  0  0  0  0  0  0  0  0  0
   11.2999   20.9093    4.6482 C   0  0  0  0  0  0  0  0  0  0  0  0
   11.4663   19.6114    4.2036 C   0  0  0  0  0  0  0  0  0  0  0  0
   11.6276   19.3658    2.8550 C   0  0  0  0  0  0  0  0  0  0  0  0
    7.3430   21.5053    0.3371 C   0  0  0  0  0  0  0  0  0  0  0  0
    7.0281   21.6407    1.7505 C   0  0  0  0  0  0  0  0  0  0  0  0
    5.8356   21.6330    2.1247 O   0  0  0  0  0  0  0  0  0  0  0  0
    7.9995   21.7821    2.7692 N   0  0  0  0  0  0  0  0  0  0  0  0
    8.9961   21.7877    2.5164 H   0  0  0  0  0  0  0  0  0  0  0  0
    7.6745   21.9220    4.1950 C   0  0  0  0  0  0  0  0  0  0  0  0
    7.2064   20.6786    4.7712 C   0  0  0  0  0  0  0  0  0  0  0  0
    7.8902   19.4912    4.6740 O   0  0  0  0  0  0  0  0  0  0  0  0
    6.0974   20.6331    5.4146 O   0  0  0  0  0  0  0  0  0  0  0  0
    7.7263   18.6935    5.2960 H   0  0  0  0  0  0  0  0  0  0  0  0
    6.7742   23.1268    4.3813 C   0  0  0  0  0  0  0  0  0  0  0  0
    7.4273   24.4273    4.3746 C   0  0  0  0  0  0  0  0  0  0  0  0
    7.3926   25.2340    3.2654 C   0  0  0  0  0  0  0  0  0  0  0  0
    7.9932   26.4637    3.1905 C   0  0  0  0  0  0  0  0  0  0  0  0
    8.6882   26.9360    4.3099 C   0  0  0  0  0  0  0  0  0  0  0  0
    8.7177   26.1220    5.4167 C   0  0  0  0  0  0  0  0  0  0  0  0
    8.1130   24.8918    5.4817 C   0  0  0  0  0  0  0  0  0  0  0  0
    6.2173   20.7977   -0.4299 C   0  0  0  0  0  0  0  0  0  0  0  0
    6.3204   19.3468   -0.3462 C   0  0  0  0  0  0  0  0  0  0  0  0
    5.6348   18.6582    0.6225 C   0  0  0  0  0  0  0  0  0  0  0  0
    5.7158   17.2713    0.7372 C   0  0  0  0  0  0  0  0  0  0  0  0
    6.5008   16.5654   -0.1386 C   0  0  0  0  0  0  0  0  0  0  0  0
    7.2047   17.2345   -1.1277 C   0  0  0  0  0  0  0  0  0  0  0  0
    7.1010   18.6211   -1.2145 C   0  0  0  0  0  0  0  0  0  0  0  0
 16 17  1  0  0  0
 17 10  1  0  0  0
 10 11  2  0  0  0
 11 12  1  0  0  0
 12 18  1  0  0  0
 18 19  1  0  0  0
 12 13  2  0  0  0
 13 14  1  0  0  0
 14 15  2  0  0  0
 14  6  1  0  0  0
  6  7  2  0  0  0
  6  8  1  0  0  0
  8  5  1  0  0  0
  5 20  1  0  0  0
 20 21  1  0  0  0
 21 22  2  0  0  0
 22 23  1  0  0  0
 23 24  2  0  0  0
 24 25  1  0  0  0
 25 26  2  0  0  0
  5  1  1  0  0  0
  1  2  2  0  0  0
  1  3  1  0  0  0
  3 27  1  0  0  0
 27 44  1  0  0  0
 44 45  1  0  0  0
 45 46  2  0  0  0
 46 47  1  0  0  0
 47 48  2  0  0  0
 48 49  1  0  0  0
 49 50  2  0  0  0
 27 28  1  0  0  0
 28 29  2  0  0  0
 28 30  1  0  0  0
 30 32  1  0  0  0
 32 37  1  0  0  0
 37 38  1  0  0  0
 38 39  2  0  0  0
 39 40  1  0  0  0
 40 41  2  0  0  0
 41 42  1  0  0  0
 42 43  2  0  0  0
 32 33  1  0  0  0
 33 34  1  0  0  0
 33 35  2  0  0  0
 15 10  1  0  0  0
 26 21  1  0  0  0
 50 45  1  0  0  0
 43 38  1  0  0  0
  8  9  1  0  0  0
  3  4  1  0  0  0
 30 31  1  0  0  0
 34 36  1  0  0  0
M  END
> <minimizedAffinity>
-7.69128

> <CNNscore>
0.1043824032

> <CNNaffinity>
7.0823988914

> <CNN_VS>
0.7392778397

> <CNNaffinity_variance>
0.3250644803

$$$$
[H]OC(=O)[C@@]([H])(N([H])C(=O)[C@@]([H])(N([H])C(=O)[C@@]([H])(N([H])C(=O)c1c([H])c(OC([H])([H])[H])c([H])c(OC([H])([H])[H])c1[H])C([H])([H])c1c([H])c([H])c([H])c([H])c1[H])C([H])([H])c1c([H])c([H])c([H])c([H])c1[H])C([H])([H])c1c([H])c([H])c([H])c([H])c1[H]


 50 53  0  0  0  0  0  0  0  0999 V2000
   10.9306   22.4494    1.7682 C   0  0  0  0  0  0  0  0  0  0  0  0
   12.0669   22.8988    2.1929 O   0  0  0  0  0  0  0  0  0  0  0  0
   10.0247   23.4088    1.2062 N   0  0  0  0  0  0  0  0  0  0  0  0
    9.1002   23.0960    0.8566 H   0  0  0  0  0  0  0  0  0  0  0  0
   10.6788   21.0310    1.8861 C   0  0  0  0  0  0  0  0  0  0  0  0
    8.5128   20.9523    0.5659 C   0  0  0  0  0  0  0  0  0  0  0  0
    9.1407   21.2269   -0.4856 O   0  0  0  0  0  0  0  0  0  0  0  0
    9.2013   20.8373    1.7913 N   0  0  0  0  0  0  0  0  0  0  0  0
    8.6890   20.6116    2.6594 H   0  0  0  0  0  0  0  0  0  0  0  0
    5.0868   20.5931   -0.9129 C   0  0  0  0  0  0  0  0  0  0  0  0
    4.3147   20.3821    0.2040 C   0  0  0  0  0  0  0  0  0  0  0  0
    4.8870   20.3544    1.4705 C   0  0  0  0  0  0  0  0  0  0  0  0
    6.2674   20.5479    1.5577 C   0  0  0  0  0  0  0  0  0  0  0  0
    7.0675   20.7615    0.4572 C   0  0  0  0  0  0  0  0  0  0  0  0
    6.4428   20.7785   -0.7712 C   0  0  0  0  0  0  0  0  0  0  0  0
    4.9250   19.9027   -3.2871 C   0  0  0  0  0  0  0  0  0  0  0  0
    4.5059   20.6174   -2.1614 O   0  0  0  0  0  0  0  0  0  0  0  0
    4.1238   20.1421    2.6212 O   0  0  0  0  0  0  0  0  0  0  0  0
    4.4840   19.0479    3.4467 C   0  0  0  0  0  0  0  0  0  0  0  0
   11.2484   20.1442    0.8422 C   0  0  0  0  0  0  0  0  0  0  0  0
   12.5282   20.4552    0.2500 C   0  0  0  0  0  0  0  0  0  0  0  0
   13.7034   20.4212    0.9762 C   0  0  0  0  0  0  0  0  0  0  0  0
   14.9045   20.6678    0.3806 C   0  0  0  0  0  0  0  0  0  0  0  0
   14.9565   20.9556   -0.9634 C   0  0  0  0  0  0  0  0  0  0  0  0
   13.7997   20.9976   -1.7181 C   0  0  0  0  0  0  0  0  0  0  0  0
   12.5820   20.7485   -1.1178 C   0  0  0  0  0  0  0  0  0  0  0  0
   10.4376   24.8160    1.1260 C   0  0  0  0  0  0  0  0  0  0  0  0
   11.7114   25.0490    0.4638 C   0  0  0  0  0  0  0  0  0  0  0  0
   12.4126   26.0297    0.7935 O   0  0  0  0  0  0  0  0  0  0  0  0
   12.2373   24.2223   -0.5566 N   0  0  0  0  0  0  0  0  0  0  0  0
   11.7036   23.3978   -0.8608 H   0  0  0  0  0  0  0  0  0  0  0  0
   13.5233   24.4653   -1.2240 C   0  0  0  0  0  0  0  0  0  0  0  0
   14.6272   24.4885   -0.2869 C   0  0  0  0  0  0  0  0  0  0  0  0
   14.5559   23.9725    0.9841 O   0  0  0  0  0  0  0  0  0  0  0  0
   15.7521   25.0109   -0.6150 O   0  0  0  0  0  0  0  0  0  0  0  0
   15.3809   23.7292    1.5411 H   0  0  0  0  0  0  0  0  0  0  0  0
   13.3897   25.6721   -2.1309 C   0  0  0  0  0  0  0  0  0  0  0  0
   14.0900   25.6023   -3.4049 C   0  0  0  0  0  0  0  0  0  0  0  0
   14.0372   26.6386   -4.3023 C   0  0  0  0  0  0  0  0  0  0  0  0
   14.6653   26.6330   -5.5204 C   0  0  0  0  0  0  0  0  0  0  0  0
   15.4101   25.5043   -5.8818 C   0  0  0  0  0  0  0  0  0  0  0  0
   15.4580   24.4710   -4.9771 C   0  0  0  0  0  0  0  0  0  0  0  0
   14.8253   24.4864   -3.7594 C   0  0  0  0  0  0  0  0  0  0  0  0
   10.4215   25.3982    2.5463 C   0  0  0  0  0  0  0  0  0  0  0  0
    9.1231   25.2465    3.1897 C   0  0  0  0  0  0  0  0  0  0  0  0
    8.0788   26.0669    2.8449 C   0  0  0  0  0  0  0  0  0  0  0  0
    6.8255   25.9554    3.4448 C   0  0  0  0  0  0  0  0  0  0  0  0
    6.6200   25.0014    4.4086 C   0  0  0  0  0  0  0  0  0  0  0  0
    7.6567   24.1581    4.7770 C   0  0  0  0  0  0  0  0  0  0  0  0
    8.8967   24.2963    4.1571 C   0  0  0  0  0  0  0  0  0  0  0  0
 16 17  1  0  0  0
 17 10  1  0  0  0
 10 11  2  0  0  0
 11 12  1  0  0  0
 12 18  1  0  0  0
 18 19  1  0  0  0
 12 13  2  0  0  0
 13 14  1  0  0  0
 14 15  2  0  0  0
 14  6  1  0  0  0
  6  7  2  0  0  0
  6  8  1  0  0  0
  8  5  1  0  0  0
  5 20  1  0  0  0
 20 21  1  0  0  0
 21 22  2  0  0  0
 22 23  1  0  0  0
 23 24  2  0  0  0
 24 25  1  0  0  0
 25 26  2  0  0  0
  5  1  1  0  0  0
  1  2  2  0  0  0
  1  3  1  0  0  0
  3 27  1  0  0  0
 27 44  1  0  0  0
 44 45  1  0  0  0
 45 46  2  0  0  0
 46 47  1  0  0  0
 47 48  2  0  0  0
 48 49  1  0  0  0
 49 50  2  0  0  0
 27 28  1  0  0  0
 28 29  2  0  0  0
 28 30  1  0  0  0
 30 32  1  0  0  0
 32 37  1  0  0  0
 37 38  1  0  0  0
 38 39  2  0  0  0
 39 40  1  0  0  0
 40 41  2  0  0  0
 41 42  1  0  0  0
 42 43  2  0  0  0
 32 33  1  0  0  0
 33 34  1  0  0  0
 33 35  2  0  0  0
 15 10  1  0  0  0
 26 21  1  0  0  0
 50 45  1  0  0  0
 43 38  1  0  0  0
  8  9  1  0  0  0
  3  4  1  0  0  0
 30 31  1  0  0  0
 34 36  1  0  0  0
M  END
> <minimizedAffinity>
-7.89803

> <CNNscore>
0.0972373486

> <CNNaffinity>
6.9602112770

> <CNN_VS>
0.6767925024

> <CNNaffinity_variance>
0.1675530374

$$$$
[H]OC(=O)[C@@]([H])(N([H])C(=O)[C@@]([H])(N([H])C(=O)[C@@]([H])(N([H])C(=O)c1c([H])c(OC([H])([H])[H])c([H])c(OC([H])([H])[H])c1[H])C([H])([H])c1c([H])c([H])c([H])c([H])c1[H])C([H])([H])c1c([H])c([H])c([H])c([H])c1[H])C([H])([H])c1c([H])c([H])c([H])c([H])c1[H]


 50 53  0  0  0  0  0  0  0  0999 V2000
   10.8904   22.4477    1.7604 C   0  0  0  0  0  0  0  0  0  0  0  0
   12.0382   22.8831    2.1685 O   0  0  0  0  0  0  0  0  0  0  0  0
    9.9849   23.4195    1.2196 N   0  0  0  0  0  0  0  0  0  0  0  0
    9.0515   23.1181    0.8838 H   0  0  0  0  0  0  0  0  0  0  0  0
   10.6264   21.0311    1.8740 C   0  0  0  0  0  0  0  0  0  0  0  0
    8.4945   21.0005    0.4976 C   0  0  0  0  0  0  0  0  0  0  0  0
    9.1498   21.3037   -0.5290 O   0  0  0  0  0  0  0  0  0  0  0  0
    9.1512   20.8464    1.7360 N   0  0  0  0  0  0  0  0  0  0  0  0
    8.6162   20.5971    2.5838 H   0  0  0  0  0  0  0  0  0  0  0  0
    4.8865   20.4322    1.3418 C   0  0  0  0  0  0  0  0  0  0  0  0
    4.2919   20.4870    0.1043 C   0  0  0  0  0  0  0  0  0  0  0  0
    5.0491   20.7068   -1.0405 C   0  0  0  0  0  0  0  0  0  0  0  0
    6.4270   20.8685   -0.8799 C   0  0  0  0  0  0  0  0  0  0  0  0
    7.0518   20.8189    0.3466 C   0  0  0  0  0  0  0  0  0  0  0  0
    6.2486   20.5978    1.4445 C   0  0  0  0  0  0  0  0  0  0  0  0
    4.5347   19.5732    3.6393 C   0  0  0  0  0  0  0  0  0  0  0  0
    4.1233   20.2143    2.4674 O   0  0  0  0  0  0  0  0  0  0  0  0
    4.4686   20.7664   -2.3097 O   0  0  0  0  0  0  0  0  0  0  0  0
    4.6120   19.6294   -3.1435 C   0  0  0  0  0  0  0  0  0  0  0  0
   11.2210   20.1383    0.8493 C   0  0  0  0  0  0  0  0  0  0  0  0
   12.5082   20.4538    0.2758 C   0  0  0  0  0  0  0  0  0  0  0  0
   13.6731   20.4212    1.0183 C   0  0  0  0  0  0  0  0  0  0  0  0
   14.8819   20.6720    0.4402 C   0  0  0  0  0  0  0  0  0  0  0  0
   14.9520   20.9629   -0.9023 C   0  0  0  0  0  0  0  0  0  0  0  0
   13.8058   21.0036   -1.6731 C   0  0  0  0  0  0  0  0  0  0  0  0
   12.5804   20.7502   -1.0905 C   0  0  0  0  0  0  0  0  0  0  0  0
   10.4105   24.8230    1.1410 C   0  0  0  0  0  0  0  0  0  0  0  0
   11.6835   25.0458    0.4737 C   0  0  0  0  0  0  0  0  0  0  0  0
   12.3928   26.0222    0.7987 O   0  0  0  0  0  0  0  0  0  0  0  0
   12.1999   24.2134   -0.5470 N   0  0  0  0  0  0  0  0  0  0  0  0
   11.6593   23.3920   -0.8476 H   0  0  0  0  0  0  0  0  0  0  0  0
   13.4851   24.4460   -1.2196 C   0  0  0  0  0  0  0  0  0  0  0  0
   14.5923   24.4650   -0.2863 C   0  0  0  0  0  0  0  0  0  0  0  0
   14.5249   23.9451    0.9833 O   0  0  0  0  0  0  0  0  0  0  0  0
   15.7167   24.9869   -0.6169 O   0  0  0  0  0  0  0  0  0  0  0  0
   15.3516   23.6990    1.5366 H   0  0  0  0  0  0  0  0  0  0  0  0
   13.3561   25.6508   -2.1297 C   0  0  0  0  0  0  0  0  0  0  0  0
   14.0684   25.5812   -3.3970 C   0  0  0  0  0  0  0  0  0  0  0  0
   14.0263   26.6187   -4.2936 C   0  0  0  0  0  0  0  0  0  0  0  0
   14.6661   26.6133   -5.5056 C   0  0  0  0  0  0  0  0  0  0  0  0
   15.4121   25.4835   -5.8612 C   0  0  0  0  0  0  0  0  0  0  0  0
   15.4493   24.4491   -4.9573 C   0  0  0  0  0  0  0  0  0  0  0  0
   14.8049   24.4642   -3.7458 C   0  0  0  0  0  0  0  0  0  0  0  0
   10.4061   25.4018    2.5627 C   0  0  0  0  0  0  0  0  0  0  0  0
    9.1238   25.2173    3.2292 C   0  0  0  0  0  0  0  0  0  0  0  0
    8.9863   24.2771    4.2189 C   0  0  0  0  0  0  0  0  0  0  0  0
    7.7730   24.0680    4.8727 C   0  0  0  0  0  0  0  0  0  0  0  0
    6.6791   24.8185    4.5239 C   0  0  0  0  0  0  0  0  0  0  0  0
    6.7886   25.7761    3.5276 C   0  0  0  0  0  0  0  0  0  0  0  0
    8.0160   25.9596    2.8947 C   0  0  0  0  0  0  0  0  0  0  0  0
 16 17  1  0  0  0
 17 10  1  0  0  0
 10 11  2  0  0  0
 11 12  1  0  0  0
 12 18  1  0  0  0
 18 19  1  0  0  0
 12 13  2  0  0  0
 13 14  1  0  0  0
 14 15  2  0  0  0
 14  6  1  0  0  0
  6  7  2  0  0  0
  6  8  1  0  0  0
  8  5  1  0  0  0
  5 20  1  0  0  0
 20 21  1  0  0  0
 21 22  2  0  0  0
 22 23  1  0  0  0
 23 24  2  0  0  0
 24 25  1  0  0  0
 25 26  2  0  0  0
  5  1  1  0  0  0
  1  2  2  0  0  0
  1  3  1  0  0  0
  3 27  1  0  0  0
 27 44  1  0  0  0
 44 45  1  0  0  0
 45 46  2  0  0  0
 46 47  1  0  0  0
 47 48  2  0  0  0
 48 49  1  0  0  0
 49 50  2  0  0  0
 27 28  1  0  0  0
 28 29  2  0  0  0
 28 30  1  0  0  0
 30 32  1  0  0  0
 32 37  1  0  0  0
 37 38  1  0  0  0
 38 39  2  0  0  0
 39 40  1  0  0  0
 40 41  2  0  0  0
 41 42  1  0  0  0
 42 43  2  0  0  0
 32 33  1  0  0  0
 33 34  1  0  0  0
 33 35  2  0  0  0
 15 10  1  0  0  0
 26 21  1  0  0  0
 50 45  1  0  0  0
 43 38  1  0  0  0
  8  9  1  0  0  0
  3  4  1  0  0  0
 30 31  1  0  0  0
 34 36  1  0  0  0
M  END
> <minimizedAffinity>
-8.02656

> <CNNscore>
0.0941947773

> <CNNaffinity>
6.9500412941

> <CNN_VS>
0.6546576023

> <CNNaffinity_variance>
0.1522347778

$$$$
[H]c1c([H])c(C(=O)N([H])[H])c([H])c(C(=O)N([H])c2sc(N([H])c3c([H])c([H])c4c([H])c([H])c([H])c([H])c4c3[H])nc2C(=O)N([H])[H])c1[H]


 37 40  0  0  0  0  0  0  0  0999 V2000
   14.5389   24.6403   -2.3435 C   0  0  0  0  0  0  0  0  0  0  0  0
   14.6375   23.5190   -1.6850 N   0  0  0  0  0  0  0  0  0  0  0  0
   13.5894   22.9744   -1.1135 C   0  0  0  0  0  0  0  0  0  0  0  0
   12.3675   24.0753   -1.4997 S   0  0  0  0  0  0  0  0  0  0  0  0
   13.3357   25.2459   -2.4247 C   0  0  0  0  0  0  0  0  0  0  0  0
   15.6429   25.0952   -4.5964 N   0  0  0  0  0  0  0  0  0  0  0  0
   15.7226   25.0659   -3.1696 C   0  0  0  0  0  0  0  0  0  0  0  0
   16.7835   25.3977   -2.6681 O   0  0  0  0  0  0  0  0  0  0  0  0
   16.1167   24.4212   -5.2224 H   0  0  0  0  0  0  0  0  0  0  0  0
   15.0672   25.8487   -5.0277 H   0  0  0  0  0  0  0  0  0  0  0  0
   12.8110   26.4969   -2.8253 N   0  0  0  0  0  0  0  0  0  0  0  0
   12.8566   27.2660   -3.9609 C   0  0  0  0  0  0  0  0  0  0  0  0
   13.4717   27.0323   -5.0228 O   0  0  0  0  0  0  0  0  0  0  0  0
   12.2113   26.9656   -2.0184 H   0  0  0  0  0  0  0  0  0  0  0  0
   12.0996   28.5631   -4.0082 C   0  0  0  0  0  0  0  0  0  0  0  0
   12.6604   29.7467   -3.6310 C   0  0  0  0  0  0  0  0  0  0  0  0
   11.8831   30.8862   -3.7271 C   0  0  0  0  0  0  0  0  0  0  0  0
   10.5873   30.9003   -4.1764 C   0  0  0  0  0  0  0  0  0  0  0  0
   10.0406   29.6940   -4.5519 C   0  0  0  0  0  0  0  0  0  0  0  0
   10.7989   28.5372   -4.4651 C   0  0  0  0  0  0  0  0  0  0  0  0
    8.6583   29.6646   -5.0380 C   0  0  0  0  0  0  0  0  0  0  0  0
    7.6072   30.2183   -4.2651 N   0  0  0  0  0  0  0  0  0  0  0  0
    8.3698   29.1514   -6.1451 O   0  0  0  0  0  0  0  0  0  0  0  0
    7.5699   31.2299   -4.0131 H   0  0  0  0  0  0  0  0  0  0  0  0
    6.8492   29.5898   -3.9406 H   0  0  0  0  0  0  0  0  0  0  0  0
   13.5589   21.7505   -0.3418 N   0  0  0  0  0  0  0  0  0  0  0  0
   14.1658   20.9767   -0.7690 H   0  0  0  0  0  0  0  0  0  0  0  0
   12.8428   21.5392    0.8250 C   0  0  0  0  0  0  0  0  0  0  0  0
   12.9190   20.4634    1.6437 C   0  0  0  0  0  0  0  0  0  0  0  0
   12.1052   20.3703    2.7804 C   0  0  0  0  0  0  0  0  0  0  0  0
   11.2005   21.3524    3.1191 C   0  0  0  0  0  0  0  0  0  0  0  0
   10.4036   21.2486    4.2415 C   0  0  0  0  0  0  0  0  0  0  0  0
    9.4995   22.2306    4.5783 C   0  0  0  0  0  0  0  0  0  0  0  0
    9.4207   23.3315    3.7429 C   0  0  0  0  0  0  0  0  0  0  0  0
   10.2143   23.4364    2.6238 C   0  0  0  0  0  0  0  0  0  0  0  0
   11.1212   22.4495    2.2876 C   0  0  0  0  0  0  0  0  0  0  0  0
   11.9233   22.5286    1.1776 C   0  0  0  0  0  0  0  0  0  0  0  0
  6  7  1  0  0  0
  7  8  2  0  0  0
  7  1  1  0  0  0
  1  2  1  0  0  0
  2  3  2  0  0  0
  3 26  1  0  0  0
 26 28  1  0  0  0
 28 29  2  0  0  0
 29 30  1  0  0  0
 30 31  2  0  0  0
 31 32  1  0  0  0
 32 33  2  0  0  0
 33 34  1  0  0  0
 34 35  2  0  0  0
 35 36  1  0  0  0
 36 37  2  0  0  0
  3  4  1  0  0  0
  4  5  1  0  0  0
  5 11  1  0  0  0
 11 12  1  0  0  0
 12 13  2  0  0  0
 12 15  1  0  0  0
 15 16  2  0  0  0
 16 17  1  0  0  0
 17 18  2  0  0  0
 18 19  1  0  0  0
 19 20  2  0  0  0
 19 21  1  0  0  0
 21 22  1  0  0  0
 21 23  2  0  0  0
  5  1  2  0  0  0
 20 15  1  0  0  0
 37 28  1  0  0  0
 36 31  1  0  0  0
  6  9  1  0  0  0
  6 10  1  0  0  0
 26 27  1  0  0  0
 11 14  1  0  0  0
 22 24  1  0  0  0
 22 25  1  0  0  0
M  END
> <minimizedAffinity>
3.96216

> <CNNscore>
0.4169090986

> <CNNaffinity>
6.6562471390

> <CNN_VS>
2.7750499249

> <CNNaffinity_variance>
0.4875221252

$$$$
[H]c1c([H])c(C(=O)N([H])[H])c([H])c(C(=O)N([H])c2sc(N([H])c3c([H])c([H])c4c([H])c([H])c([H])c([H])c4c3[H])nc2C(=O)N([H])[H])c1[H]


 37 40  0  0  0  0  0  0  0  0999 V2000
   12.8624   22.4122   -0.0540 C   0  0  0  0  0  0  0  0  0  0  0  0
   12.9402   23.0898   -1.1655 N   0  0  0  0  0  0  0  0  0  0  0  0
   12.0756   24.0368   -1.4438 C   0  0  0  0  0  0  0  0  0  0  0  0
   11.0715   24.0054   -0.0855 S   0  0  0  0  0  0  0  0  0  0  0  0
   11.8670   22.6925    0.8130 C   0  0  0  0  0  0  0  0  0  0  0  0
   13.9360   20.6096    1.3949 N   0  0  0  0  0  0  0  0  0  0  0  0
   14.0242   21.5235    0.2994 C   0  0  0  0  0  0  0  0  0  0  0  0
   15.0740   21.5436   -0.3208 O   0  0  0  0  0  0  0  0  0  0  0  0
   14.4324   20.7264    2.2951 H   0  0  0  0  0  0  0  0  0  0  0  0
   13.3292   19.7719    1.2709 H   0  0  0  0  0  0  0  0  0  0  0  0
   11.2885   22.1245    1.9721 N   0  0  0  0  0  0  0  0  0  0  0  0
   10.4754   22.5671    2.9851 C   0  0  0  0  0  0  0  0  0  0  0  0
   10.0278   23.7198    3.1629 O   0  0  0  0  0  0  0  0  0  0  0  0
   11.5598   21.0546    2.0817 H   0  0  0  0  0  0  0  0  0  0  0  0
   10.0269   21.6055    4.0490 C   0  0  0  0  0  0  0  0  0  0  0  0
   10.8545   21.1889    5.0484 C   0  0  0  0  0  0  0  0  0  0  0  0
   10.3394   20.3143    5.9875 C   0  0  0  0  0  0  0  0  0  0  0  0
    9.0522   19.8410    5.9761 C   0  0  0  0  0  0  0  0  0  0  0  0
    8.2336   20.2744    4.9578 C   0  0  0  0  0  0  0  0  0  0  0  0
    8.7258   21.1511    4.0040 C   0  0  0  0  0  0  0  0  0  0  0  0
    6.8503   19.7926    4.9086 C   0  0  0  0  0  0  0  0  0  0  0  0
    6.0165   20.0974    3.8039 N   0  0  0  0  0  0  0  0  0  0  0  0
    6.3698   19.1012    5.8378 O   0  0  0  0  0  0  0  0  0  0  0  0
    6.2338   19.7814    2.8337 H   0  0  0  0  0  0  0  0  0  0  0  0
    5.1591   20.6558    3.9717 H   0  0  0  0  0  0  0  0  0  0  0  0
   12.0334   24.8501   -2.6401 N   0  0  0  0  0  0  0  0  0  0  0  0
   11.1028   24.7650   -3.1657 H   0  0  0  0  0  0  0  0  0  0  0  0
   13.0502   25.6660   -3.1083 C   0  0  0  0  0  0  0  0  0  0  0  0
   12.9714   26.5700   -4.1132 C   0  0  0  0  0  0  0  0  0  0  0  0
   14.0976   27.3069   -4.5026 C   0  0  0  0  0  0  0  0  0  0  0  0
   15.3234   27.1531   -3.8932 C   0  0  0  0  0  0  0  0  0  0  0  0
   16.4260   27.8846   -4.2866 C   0  0  0  0  0  0  0  0  0  0  0  0
   17.6505   27.7293   -3.6770 C   0  0  0  0  0  0  0  0  0  0  0  0
   17.7329   26.8060   -2.6490 C   0  0  0  0  0  0  0  0  0  0  0  0
   16.6347   26.0761   -2.2557 C   0  0  0  0  0  0  0  0  0  0  0  0
   15.4065   26.2336   -2.8690 C   0  0  0  0  0  0  0  0  0  0  0  0
   14.2966   25.5183   -2.4973 C   0  0  0  0  0  0  0  0  0  0  0  0
  6  7  1  0  0  0
  7  8  2  0  0  0
  7  1  1  0  0  0
  1  2  1  0  0  0
  2  3  2  0  0  0
  3 26  1  0  0  0
 26 28  1  0  0  0
 28 29  2  0  0  0
 29 30  1  0  0  0
 30 31  2  0  0  0
 31 32  1  0  0  0
 32 33  2  0  0  0
 33 34  1  0  0  0
 34 35  2  0  0  0
 35 36  1  0  0  0
 36 37  2  0  0  0
  3  4  1  0  0  0
  4  5  1  0  0  0
  5 11  1  0  0  0
 11 12  1  0  0  0
 12 13  2  0  0  0
 12 15  1  0  0  0
 15 16  2  0  0  0
 16 17  1  0  0  0
 17 18  2  0  0  0
 18 19  1  0  0  0
 19 20  2  0  0  0
 19 21  1  0  0  0
 21 22  1  0  0  0
 21 23  2  0  0  0
  5  1  2  0  0  0
 20 15  1  0  0  0
 37 28  1  0  0  0
 36 31  1  0  0  0
  6  9  1  0  0  0
  6 10  1  0  0  0
 26 27  1  0  0  0
 11 14  1  0  0  0
 22 24  1  0  0  0
 22 25  1  0  0  0
M  END
> <minimizedAffinity>
-6.48079

> <CNNscore>
0.2955667973

> <CNNaffinity>
6.7022447586

> <CNN_VS>
1.9809609652

> <CNNaffinity_variance>
0.2528672218

$$$$
[H]c1c([H])c(C(=O)N([H])[H])c([H])c(C(=O)N([H])c2sc(N([H])c3c([H])c([H])c4c([H])c([H])c([H])c([H])c4c3[H])nc2C(=O)N([H])[H])c1[H]


 37 40  0  0  0  0  0  0  0  0999 V2000
   11.2146   22.6122    1.4107 C   0  0  0  0  0  0  0  0  0  0  0  0
   12.1339   22.3556    0.5222 N   0  0  0  0  0  0  0  0  0  0  0  0
   12.5465   23.2802   -0.3125 C   0  0  0  0  0  0  0  0  0  0  0  0
   11.6084   24.6089    0.1443 S   0  0  0  0  0  0  0  0  0  0  0  0
   10.6797   23.8502    1.4578 C   0  0  0  0  0  0  0  0  0  0  0  0
   12.0162   21.2282    3.3966 N   0  0  0  0  0  0  0  0  0  0  0  0
   10.9770   21.5809    2.4807 C   0  0  0  0  0  0  0  0  0  0  0  0
    9.9075   21.0097    2.6112 O   0  0  0  0  0  0  0  0  0  0  0  0
   12.5274   20.3288    3.3826 H   0  0  0  0  0  0  0  0  0  0  0  0
   12.2702   21.9290    4.1243 H   0  0  0  0  0  0  0  0  0  0  0  0
    9.5818   24.5009    2.0677 N   0  0  0  0  0  0  0  0  0  0  0  0
    9.0767   24.5973    3.3400 C   0  0  0  0  0  0  0  0  0  0  0  0
    9.4963   24.0416    4.3772 O   0  0  0  0  0  0  0  0  0  0  0  0
    8.9878   25.0782    1.3298 H   0  0  0  0  0  0  0  0  0  0  0  0
    7.8718   25.4579    3.5956 C   0  0  0  0  0  0  0  0  0  0  0  0
    6.8252   25.0353    4.3596 C   0  0  0  0  0  0  0  0  0  0  0  0
    5.7708   25.9101    4.5464 C   0  0  0  0  0  0  0  0  0  0  0  0
    5.7120   27.1722    4.0127 C   0  0  0  0  0  0  0  0  0  0  0  0
    6.7794   27.5785    3.2442 C   0  0  0  0  0  0  0  0  0  0  0  0
    7.8487   26.7204    3.0418 C   0  0  0  0  0  0  0  0  0  0  0  0
    6.7566   28.9201    2.6549 C   0  0  0  0  0  0  0  0  0  0  0  0
    6.4320   29.1049    1.2877 N   0  0  0  0  0  0  0  0  0  0  0  0
    7.0223   29.9356    3.3409 O   0  0  0  0  0  0  0  0  0  0  0  0
    5.5042   28.8400    0.8913 H   0  0  0  0  0  0  0  0  0  0  0  0
    7.1474   29.5195    0.6621 H   0  0  0  0  0  0  0  0  0  0  0  0
   13.5404   23.1295   -1.3535 N   0  0  0  0  0  0  0  0  0  0  0  0
   13.5145   22.1613   -1.8133 H   0  0  0  0  0  0  0  0  0  0  0  0
   14.4536   24.0906   -1.7551 C   0  0  0  0  0  0  0  0  0  0  0  0
   15.5654   24.4855   -1.0908 C   0  0  0  0  0  0  0  0  0  0  0  0
   16.3845   25.4988   -1.6059 C   0  0  0  0  0  0  0  0  0  0  0  0
   16.1064   26.1352   -2.7956 C   0  0  0  0  0  0  0  0  0  0  0  0
   16.9210   27.1329   -3.2923 C   0  0  0  0  0  0  0  0  0  0  0  0
   16.6414   27.7684   -4.4810 C   0  0  0  0  0  0  0  0  0  0  0  0
   15.5055   27.3655   -5.1619 C   0  0  0  0  0  0  0  0  0  0  0  0
   14.6925   26.3712   -4.6681 C   0  0  0  0  0  0  0  0  0  0  0  0
   14.9751   25.7346   -3.4746 C   0  0  0  0  0  0  0  0  0  0  0  0
   14.1813   24.7415   -2.9596 C   0  0  0  0  0  0  0  0  0  0  0  0
  6  7  1  0  0  0
  7  8  2  0  0  0
  7  1  1  0  0  0
  1  2  1  0  0  0
  2  3  2  0  0  0
  3 26  1  0  0  0
 26 28  1  0  0  0
 28 29  2  0  0  0
 29 30  1  0  0  0
 30 31  2  0  0  0
 31 32  1  0  0  0
 32 33  2  0  0  0
 33 34  1  0  0  0
 34 35  2  0  0  0
 35 36  1  0  0  0
 36 37  2  0  0  0
  3  4  1  0  0  0
  4  5  1  0  0  0
  5 11  1  0  0  0
 11 12  1  0  0  0
 12 13  2  0  0  0
 12 15  1  0  0  0
 15 16  2  0  0  0
 16 17  1  0  0  0
 17 18  2  0  0  0
 18 19  1  0  0  0
 19 20  2  0  0  0
 19 21  1  0  0  0
 21 22  1  0  0  0
 21 23  2  0  0  0
  5  1  2  0  0  0
 20 15  1  0  0  0
 37 28  1  0  0  0
 36 31  1  0  0  0
  6  9  1  0  0  0
  6 10  1  0  0  0
 26 27  1  0  0  0
 11 14  1  0  0  0
 22 24  1  0  0  0
 22 25  1  0  0  0
M  END
> <minimizedAffinity>
-10.81703

> <CNNscore>
0.2933135927

> <CNNaffinity>
6.4297256470

> <CNN_VS>
1.8859258890

> <CNNaffinity_variance>
0.3055356741

$$$$
[H]c1c([H])c(C(=O)N([H])[H])c([H])c(C(=O)N([H])c2sc(N([H])c3c([H])c([H])c4c([H])c([H])c([H])c([H])c4c3[H])nc2C(=O)N([H])[H])c1[H]


 37 40  0  0  0  0  0  0  0  0999 V2000
   13.2320   23.4177    0.0182 C   0  0  0  0  0  0  0  0  0  0  0  0
   12.3172   23.3139    0.9418 N   0  0  0  0  0  0  0  0  0  0  0  0
   11.2336   24.0531    0.9083 C   0  0  0  0  0  0  0  0  0  0  0  0
   11.4754   24.9670   -0.4918 S   0  0  0  0  0  0  0  0  0  0  0  0
   13.0547   24.3095   -0.9789 C   0  0  0  0  0  0  0  0  0  0  0  0
   14.3860   21.4233   -1.0737 N   0  0  0  0  0  0  0  0  0  0  0  0
   14.3140   22.3720   -0.0070 C   0  0  0  0  0  0  0  0  0  0  0  0
   15.1614   22.2880    0.8659 O   0  0  0  0  0  0  0  0  0  0  0  0
   14.1499   20.4203   -0.9809 H   0  0  0  0  0  0  0  0  0  0  0  0
   14.6981   21.7729   -2.0041 H   0  0  0  0  0  0  0  0  0  0  0  0
   13.8152   24.8899   -2.0208 N   0  0  0  0  0  0  0  0  0  0  0  0
   14.5098   24.4257   -3.1094 C   0  0  0  0  0  0  0  0  0  0  0  0
   14.6834   23.2396   -3.4613 O   0  0  0  0  0  0  0  0  0  0  0  0
   13.8522   25.9950   -1.9326 H   0  0  0  0  0  0  0  0  0  0  0  0
   15.1709   25.4041   -4.0387 C   0  0  0  0  0  0  0  0  0  0  0  0
   14.9506   25.3924   -5.3837 C   0  0  0  0  0  0  0  0  0  0  0  0
   15.5961   26.3458   -6.1494 C   0  0  0  0  0  0  0  0  0  0  0  0
   16.4416   27.2992   -5.6422 C   0  0  0  0  0  0  0  0  0  0  0  0
   16.6500   27.2927   -4.2816 C   0  0  0  0  0  0  0  0  0  0  0  0
   16.0148   26.3474   -3.4919 C   0  0  0  0  0  0  0  0  0  0  0  0
   17.5466   28.2948   -3.6986 C   0  0  0  0  0  0  0  0  0  0  0  0
   18.9124   28.3495   -4.0731 N   0  0  0  0  0  0  0  0  0  0  0  0
   17.1316   29.1266   -2.8570 O   0  0  0  0  0  0  0  0  0  0  0  0
   19.2178   28.5449   -5.0513 H   0  0  0  0  0  0  0  0  0  0  0  0
   19.6312   28.1886   -3.3434 H   0  0  0  0  0  0  0  0  0  0  0  0
   10.1529   24.0541    1.8708 N   0  0  0  0  0  0  0  0  0  0  0  0
    9.5787   24.9593    1.8474 H   0  0  0  0  0  0  0  0  0  0  0  0
    9.8453   23.0316    2.7534 C   0  0  0  0  0  0  0  0  0  0  0  0
    8.7680   22.9576    3.5702 C   0  0  0  0  0  0  0  0  0  0  0  0
    8.6023   21.8710    4.4391 C   0  0  0  0  0  0  0  0  0  0  0  0
    9.5114   20.8382    4.5061 C   0  0  0  0  0  0  0  0  0  0  0  0
    9.3372   19.7733    5.3672 C   0  0  0  0  0  0  0  0  0  0  0  0
   10.2470   18.7423    5.4335 C   0  0  0  0  0  0  0  0  0  0  0  0
   11.3487   18.8159    4.5986 C   0  0  0  0  0  0  0  0  0  0  0  0
   11.5237   19.8767    3.7398 C   0  0  0  0  0  0  0  0  0  0  0  0
   10.6092   20.9106    3.6749 C   0  0  0  0  0  0  0  0  0  0  0  0
   10.7600   21.9798    2.8289 C   0  0  0  0  0  0  0  0  0  0  0  0
  6  7  1  0  0  0
  7  8  2  0  0  0
  7  1  1  0  0  0
  1  2  1  0  0  0
  2  3  2  0  0  0
  3 26  1  0  0  0
 26 28  1  0  0  0
 28 29  2  0  0  0
 29 30  1  0  0  0
 30 31  2  0  0  0
 31 32  1  0  0  0
 32 33  2  0  0  0
 33 34  1  0  0  0
 34 35  2  0  0  0
 35 36  1  0  0  0
 36 37  2  0  0  0
  3  4  1  0  0  0
  4  5  1  0  0  0
  5 11  1  0  0  0
 11 12  1  0  0  0
 12 13  2  0  0  0
 12 15  1  0  0  0
 15 16  2  0  0  0
 16 17  1  0  0  0
 17 18  2  0  0  0
 18 19  1  0  0  0
 19 20  2  0  0  0
 19 21  1  0  0  0
 21 22  1  0  0  0
 21 23  2  0  0  0
  5  1  2  0  0  0
 20 15  1  0  0  0
 37 28  1  0  0  0
 36 31  1  0  0  0
  6  9  1  0  0  0
  6 10  1  0  0  0
 26 27  1  0  0  0
 11 14  1  0  0  0
 22 24  1  0  0  0
 22 25  1  0  0  0
M  END
> <minimizedAffinity>
-8.52600

> <CNNscore>
0.2412831485

> <CNNaffinity>
6.9106912613

> <CNN_VS>
1.6674333811

> <CNNaffinity_variance>
0.1436001807

$$$$
[H]c1c([H])c(C(=O)N([H])[H])c([H])c(C(=O)N([H])c2sc(N([H])c3c([H])c([H])c4c([H])c([H])c([H])c([H])c4c3[H])nc2C(=O)N([H])[H])c1[H]


 37 40  0  0  0  0  0  0  0  0999 V2000
   11.2639   22.5076    1.5962 C   0  0  0  0  0  0  0  0  0  0  0  0
   12.1989   22.4346    0.6902 N   0  0  0  0  0  0  0  0  0  0  0  0
   12.5840   23.4990    0.0265 C   0  0  0  0  0  0  0  0  0  0  0  0
   11.5945   24.6998    0.6845 S   0  0  0  0  0  0  0  0  0  0  0  0
   10.6838   23.7012    1.8408 C   0  0  0  0  0  0  0  0  0  0  0  0
   12.0644   20.8971    3.4037 N   0  0  0  0  0  0  0  0  0  0  0  0
   11.0557   21.3051    2.4767 C   0  0  0  0  0  0  0  0  0  0  0  0
   10.0366   20.6365    2.4388 O   0  0  0  0  0  0  0  0  0  0  0  0
   12.6551   20.0551    3.2918 H   0  0  0  0  0  0  0  0  0  0  0  0
   12.2085   21.4927    4.2462 H   0  0  0  0  0  0  0  0  0  0  0  0
    9.5580   24.2029    2.5350 N   0  0  0  0  0  0  0  0  0  0  0  0
    8.2016   24.0008    2.4881 C   0  0  0  0  0  0  0  0  0  0  0  0
    7.5610   23.2648    1.7079 O   0  0  0  0  0  0  0  0  0  0  0  0
    9.8515   24.9388    3.3113 H   0  0  0  0  0  0  0  0  0  0  0  0
    7.3114   24.7186    3.4628 C   0  0  0  0  0  0  0  0  0  0  0  0
    6.6548   24.0672    4.4639 C   0  0  0  0  0  0  0  0  0  0  0  0
    5.8720   24.8225    5.3175 C   0  0  0  0  0  0  0  0  0  0  0  0
    5.7150   26.1816    5.2203 C   0  0  0  0  0  0  0  0  0  0  0  0
    6.3869   26.8192    4.2020 C   0  0  0  0  0  0  0  0  0  0  0  0
    7.1780   26.0848    3.3329 C   0  0  0  0  0  0  0  0  0  0  0  0
    6.2464   28.2713    4.0624 C   0  0  0  0  0  0  0  0  0  0  0  0
    5.1610   28.9549    4.6652 N   0  0  0  0  0  0  0  0  0  0  0  0
    7.0785   28.9447    3.4092 O   0  0  0  0  0  0  0  0  0  0  0  0
    5.0126   28.9705    5.6976 H   0  0  0  0  0  0  0  0  0  0  0  0
    4.4922   29.4571    4.0523 H   0  0  0  0  0  0  0  0  0  0  0  0
   13.5909   23.5582   -1.0112 N   0  0  0  0  0  0  0  0  0  0  0  0
   14.3268   22.7839   -0.9185 H   0  0  0  0  0  0  0  0  0  0  0  0
   13.6533   24.4887   -2.0356 C   0  0  0  0  0  0  0  0  0  0  0  0
   12.9118   25.6149   -2.1589 C   0  0  0  0  0  0  0  0  0  0  0  0
   13.0614   26.4514   -3.2728 C   0  0  0  0  0  0  0  0  0  0  0  0
   13.9562   26.1767   -4.2836 C   0  0  0  0  0  0  0  0  0  0  0  0
   14.0937   27.0087   -5.3766 C   0  0  0  0  0  0  0  0  0  0  0  0
   14.9879   26.7324   -6.3862 C   0  0  0  0  0  0  0  0  0  0  0  0
   15.7474   25.5819   -6.2614 C   0  0  0  0  0  0  0  0  0  0  0  0
   15.6114   24.7517   -5.1725 C   0  0  0  0  0  0  0  0  0  0  0  0
   14.7132   25.0309   -4.1602 C   0  0  0  0  0  0  0  0  0  0  0  0
   14.5572   24.2200   -3.0649 C   0  0  0  0  0  0  0  0  0  0  0  0
  6  7  1  0  0  0
  7  8  2  0  0  0
  7  1  1  0  0  0
  1  2  1  0  0  0
  2  3  2  0  0  0
  3 26  1  0  0  0
 26 28  1  0  0  0
 28 29  2  0  0  0
 29 30  1  0  0  0
 30 31  2  0  0  0
 31 32  1  0  0  0
 32 33  2  0  0  0
 33 34  1  0  0  0
 34 35  2  0  0  0
 35 36  1  0  0  0
 36 37  2  0  0  0
  3  4  1  0  0  0
  4  5  1  0  0  0
  5 11  1  0  0  0
 11 12  1  0  0  0
 12 13  2  0  0  0
 12 15  1  0  0  0
 15 16  2  0  0  0
 16 17  1  0  0  0
 17 18  2  0  0  0
 18 19  1  0  0  0
 19 20  2  0  0  0
 19 21  1  0  0  0
 21 22  1  0  0  0
 21 23  2  0  0  0
  5  1  2  0  0  0
 20 15  1  0  0  0
 37 28  1  0  0  0
 36 31  1  0  0  0
  6  9  1  0  0  0
  6 10  1  0  0  0
 26 27  1  0  0  0
 11 14  1  0  0  0
 22 24  1  0  0  0
 22 25  1  0  0  0
M  END
> <minimizedAffinity>
-10.48777

> <CNNscore>
0.2394047081

> <CNNaffinity>
6.1910834312

> <CNN_VS>
1.4821745157

> <CNNaffinity_variance>
0.2132074088

$$$$
[H]c1c([H])c(C(=O)N([H])[H])c([H])c(C(=O)N([H])c2sc(N([H])c3c([H])c([H])c4c([H])c([H])c([H])c([H])c4c3[H])nc2C(=O)N([H])[H])c1[H]


 37 40  0  0  0  0  0  0  0  0999 V2000
   10.4047   22.1050    0.5783 C   0  0  0  0  0  0  0  0  0  0  0  0
    9.7750   22.1844    1.7175 N   0  0  0  0  0  0  0  0  0  0  0  0
    9.7999   23.2859    2.4302 C   0  0  0  0  0  0  0  0  0  0  0  0
   10.7588   24.2989    1.4771 S   0  0  0  0  0  0  0  0  0  0  0  0
   11.0972   23.1768    0.1392 C   0  0  0  0  0  0  0  0  0  0  0  0
    9.4095   21.0439   -1.5158 N   0  0  0  0  0  0  0  0  0  0  0  0
   10.1255   20.9055   -0.2865 C   0  0  0  0  0  0  0  0  0  0  0  0
   10.4899   19.7822    0.0177 O   0  0  0  0  0  0  0  0  0  0  0  0
    8.4388   20.7192   -1.6667 H   0  0  0  0  0  0  0  0  0  0  0  0
    9.9050   21.5037   -2.3085 H   0  0  0  0  0  0  0  0  0  0  0  0
   12.0458   23.4785   -0.8658 N   0  0  0  0  0  0  0  0  0  0  0  0
   12.5909   24.6216   -1.3943 C   0  0  0  0  0  0  0  0  0  0  0  0
   12.3233   25.8064   -1.1024 O   0  0  0  0  0  0  0  0  0  0  0  0
   12.4482   22.5585   -1.3371 H   0  0  0  0  0  0  0  0  0  0  0  0
   13.6449   24.5157   -2.4600 C   0  0  0  0  0  0  0  0  0  0  0  0
   14.4012   23.3941   -2.6259 C   0  0  0  0  0  0  0  0  0  0  0  0
   15.3339   23.3925   -3.6467 C   0  0  0  0  0  0  0  0  0  0  0  0
   15.5452   24.4454   -4.4999 C   0  0  0  0  0  0  0  0  0  0  0  0
   14.7706   25.5681   -4.3144 C   0  0  0  0  0  0  0  0  0  0  0  0
   13.8286   25.5949   -3.2983 C   0  0  0  0  0  0  0  0  0  0  0  0
   14.9645   26.7162   -5.2045 C   0  0  0  0  0  0  0  0  0  0  0  0
   16.0254   27.6303   -4.9865 N   0  0  0  0  0  0  0  0  0  0  0  0
   14.2008   26.9196   -6.1780 O   0  0  0  0  0  0  0  0  0  0  0  0
   17.0280   27.3443   -5.0239 H   0  0  0  0  0  0  0  0  0  0  0  0
   15.7908   28.6194   -4.7826 H   0  0  0  0  0  0  0  0  0  0  0  0
    9.1650   23.5054    3.7119 N   0  0  0  0  0  0  0  0  0  0  0  0
    9.5960   22.9122    4.4942 H   0  0  0  0  0  0  0  0  0  0  0  0
    8.1120   24.3696    3.9636 C   0  0  0  0  0  0  0  0  0  0  0  0
    6.9410   24.0703    4.5739 C   0  0  0  0  0  0  0  0  0  0  0  0
    5.9472   25.0452    4.7324 C   0  0  0  0  0  0  0  0  0  0  0  0
    6.1072   26.3377    4.2835 C   0  0  0  0  0  0  0  0  0  0  0  0
    5.1200   27.2891    4.4449 C   0  0  0  0  0  0  0  0  0  0  0  0
    5.2811   28.5801    3.9952 C   0  0  0  0  0  0  0  0  0  0  0  0
    6.4780   28.8882    3.3717 C   0  0  0  0  0  0  0  0  0  0  0  0
    7.4629   27.9410    3.2100 C   0  0  0  0  0  0  0  0  0  0  0  0
    7.2990   26.6455    3.6622 C   0  0  0  0  0  0  0  0  0  0  0  0
    8.2640   25.6821    3.5131 C   0  0  0  0  0  0  0  0  0  0  0  0
  6  7  1  0  0  0
  7  8  2  0  0  0
  7  1  1  0  0  0
  1  2  1  0  0  0
  2  3  2  0  0  0
  3 26  1  0  0  0
 26 28  1  0  0  0
 28 29  2  0  0  0
 29 30  1  0  0  0
 30 31  2  0  0  0
 31 32  1  0  0  0
 32 33  2  0  0  0
 33 34  1  0  0  0
 34 35  2  0  0  0
 35 36  1  0  0  0
 36 37  2  0  0  0
  3  4  1  0  0  0
  4  5  1  0  0  0
  5 11  1  0  0  0
 11 12  1  0  0  0
 12 13  2  0  0  0
 12 15  1  0  0  0
 15 16  2  0  0  0
 16 17  1  0  0  0
 17 18  2  0  0  0
 18 19  1  0  0  0
 19 20  2  0  0  0
 19 21  1  0  0  0
 21 22  1  0  0  0
 21 23  2  0  0  0
  5  1  2  0  0  0
 20 15  1  0  0  0
 37 28  1  0  0  0
 36 31  1  0  0  0
  6  9  1  0  0  0
  6 10  1  0  0  0
 26 27  1  0  0  0
 11 14  1  0  0  0
 22 24  1  0  0  0
 22 25  1  0  0  0
M  END
> <minimizedAffinity>
-10.20951

> <CNNscore>
0.2240337133

> <CNNaffinity>
6.3305301666

> <CNN_VS>
1.4182522297

> <CNNaffinity_variance>
0.1371775866

$$$$
[H]c1c([H])c(C(=O)N([H])[H])c([H])c(C(=O)N([H])c2sc(N([H])c3c([H])c([H])c4c([H])c([H])c([H])c([H])c4c3[H])nc2C(=O)N([H])[H])c1[H]


 37 40  0  0  0  0  0  0  0  0999 V2000
   14.2302   22.7809    0.2892 C   0  0  0  0  0  0  0  0  0  0  0  0
   13.3581   22.0634    0.9413 N   0  0  0  0  0  0  0  0  0  0  0  0
   12.2084   21.7369    0.3995 C   0  0  0  0  0  0  0  0  0  0  0  0
   12.3179   22.4648   -1.1211 S   0  0  0  0  0  0  0  0  0  0  0  0
   13.9312   23.1959   -0.9595 C   0  0  0  0  0  0  0  0  0  0  0  0
   16.3546   24.1141    0.7486 N   0  0  0  0  0  0  0  0  0  0  0  0
   15.6093   22.9015    0.8793 C   0  0  0  0  0  0  0  0  0  0  0  0
   16.1434   21.9866    1.4833 O   0  0  0  0  0  0  0  0  0  0  0  0
   17.1802   24.2298    0.1360 H   0  0  0  0  0  0  0  0  0  0  0  0
   16.0390   24.9321    1.3114 H   0  0  0  0  0  0  0  0  0  0  0  0
   14.4365   24.1074   -1.9160 N   0  0  0  0  0  0  0  0  0  0  0  0
   14.8818   24.0294   -3.2116 C   0  0  0  0  0  0  0  0  0  0  0  0
   14.9906   23.0107   -3.9265 O   0  0  0  0  0  0  0  0  0  0  0  0
   14.4764   25.1406   -1.5143 H   0  0  0  0  0  0  0  0  0  0  0  0
   15.3091   25.2810   -3.9248 C   0  0  0  0  0  0  0  0  0  0  0  0
   15.6099   26.4311   -3.2583 C   0  0  0  0  0  0  0  0  0  0  0  0
   16.0082   27.5231   -4.0073 C   0  0  0  0  0  0  0  0  0  0  0  0
   16.1189   27.5217   -5.3743 C   0  0  0  0  0  0  0  0  0  0  0  0
   15.8101   26.3498   -6.0273 C   0  0  0  0  0  0  0  0  0  0  0  0
   15.4084   25.2410   -5.2995 C   0  0  0  0  0  0  0  0  0  0  0  0
   15.9151   26.3054   -7.4884 C   0  0  0  0  0  0  0  0  0  0  0  0
   15.2970   25.2660   -8.2274 N   0  0  0  0  0  0  0  0  0  0  0  0
   16.5515   27.1814   -8.1209 O   0  0  0  0  0  0  0  0  0  0  0  0
   14.2646   25.1165   -8.2282 H   0  0  0  0  0  0  0  0  0  0  0  0
   15.8982   24.6330   -8.7868 H   0  0  0  0  0  0  0  0  0  0  0  0
   11.1478   20.9658    1.0115 N   0  0  0  0  0  0  0  0  0  0  0  0
   11.2963   19.9083    0.9150 H   0  0  0  0  0  0  0  0  0  0  0  0
   10.0370   21.4782    1.6616 C   0  0  0  0  0  0  0  0  0  0  0  0
    8.9389   22.0257    1.0890 C   0  0  0  0  0  0  0  0  0  0  0  0
    7.8996   22.5357    1.8781 C   0  0  0  0  0  0  0  0  0  0  0  0
    7.9397   22.5068    3.2548 C   0  0  0  0  0  0  0  0  0  0  0  0
    6.9094   23.0134    4.0213 C   0  0  0  0  0  0  0  0  0  0  0  0
    6.9513   22.9844    5.3969 C   0  0  0  0  0  0  0  0  0  0  0  0
    8.0728   22.4244    5.9841 C   0  0  0  0  0  0  0  0  0  0  0  0
    9.1005   21.9190    5.2214 C   0  0  0  0  0  0  0  0  0  0  0  0
    9.0564   21.9492    3.8406 C   0  0  0  0  0  0  0  0  0  0  0  0
   10.0673   21.4534    3.0570 C   0  0  0  0  0  0  0  0  0  0  0  0
  6  7  1  0  0  0
  7  8  2  0  0  0
  7  1  1  0  0  0
  1  2  1  0  0  0
  2  3  2  0  0  0
  3 26  1  0  0  0
 26 28  1  0  0  0
 28 29  2  0  0  0
 29 30  1  0  0  0
 30 31  2  0  0  0
 31 32  1  0  0  0
 32 33  2  0  0  0
 33 34  1  0  0  0
 34 35  2  0  0  0
 35 36  1  0  0  0
 36 37  2  0  0  0
  3  4  1  0  0  0
  4  5  1  0  0  0
  5 11  1  0  0  0
 11 12  1  0  0  0
 12 13  2  0  0  0
 12 15  1  0  0  0
 15 16  2  0  0  0
 16 17  1  0  0  0
 17 18  2  0  0  0
 18 19  1  0  0  0
 19 20  2  0  0  0
 19 21  1  0  0  0
 21 22  1  0  0  0
 21 23  2  0  0  0
  5  1  2  0  0  0
 20 15  1  0  0  0
 37 28  1  0  0  0
 36 31  1  0  0  0
  6  9  1  0  0  0
  6 10  1  0  0  0
 26 27  1  0  0  0
 11 14  1  0  0  0
 22 24  1  0  0  0
 22 25  1  0  0  0
M  END
> <minimizedAffinity>
-7.65238

> <CNNscore>
0.2196091712

> <CNNaffinity>
6.8683557510

> <CNN_VS>
1.5083539486

> <CNNaffinity_variance>
0.3483971953

$$$$
[H]c1c([H])c(C(=O)N([H])[H])c([H])c(C(=O)N([H])c2sc(N([H])c3c([H])c([H])c4c([H])c([H])c([H])c([H])c4c3[H])nc2C(=O)N([H])[H])c1[H]


 37 40  0  0  0  0  0  0  0  0999 V2000
   12.8690   21.9792   -0.0988 C   0  0  0  0  0  0  0  0  0  0  0  0
   11.9184   21.7303    0.7585 N   0  0  0  0  0  0  0  0  0  0  0  0
   10.7417   22.3010    0.6502 C   0  0  0  0  0  0  0  0  0  0  0  0
   10.9409   23.2567   -0.7286 S   0  0  0  0  0  0  0  0  0  0  0  0
   12.6301   22.8463   -1.1049 C   0  0  0  0  0  0  0  0  0  0  0  0
   14.6485   20.6986    1.2032 N   0  0  0  0  0  0  0  0  0  0  0  0
   14.0936   21.1059   -0.0495 C   0  0  0  0  0  0  0  0  0  0  0  0
   14.6576   20.7147   -1.0575 O   0  0  0  0  0  0  0  0  0  0  0  0
   15.5358   21.0592    1.5944 H   0  0  0  0  0  0  0  0  0  0  0  0
   14.1179   19.9908    1.7535 H   0  0  0  0  0  0  0  0  0  0  0  0
   13.3659   23.5449   -2.0904 N   0  0  0  0  0  0  0  0  0  0  0  0
   14.5792   24.1838   -2.1453 C   0  0  0  0  0  0  0  0  0  0  0  0
   15.4035   24.3480   -1.2211 O   0  0  0  0  0  0  0  0  0  0  0  0
   12.8243   23.5776   -3.0579 H   0  0  0  0  0  0  0  0  0  0  0  0
   15.0415   24.7859   -3.4421 C   0  0  0  0  0  0  0  0  0  0  0  0
   15.0564   24.0794   -4.6075 C   0  0  0  0  0  0  0  0  0  0  0  0
   15.4854   24.7311   -5.7491 C   0  0  0  0  0  0  0  0  0  0  0  0
   15.8958   26.0394   -5.7822 C   0  0  0  0  0  0  0  0  0  0  0  0
   15.8729   26.7341   -4.5941 C   0  0  0  0  0  0  0  0  0  0  0  0
   15.4470   26.1037   -3.4356 C   0  0  0  0  0  0  0  0  0  0  0  0
   16.3035   28.1349   -4.5854 C   0  0  0  0  0  0  0  0  0  0  0  0
   17.3699   28.5594   -3.7539 N   0  0  0  0  0  0  0  0  0  0  0  0
   15.7430   28.9914   -5.3097 O   0  0  0  0  0  0  0  0  0  0  0  0
   18.3402   28.1898   -3.8546 H   0  0  0  0  0  0  0  0  0  0  0  0
   17.1728   29.2640   -3.0193 H   0  0  0  0  0  0  0  0  0  0  0  0
    9.6092   22.1307    1.5348 N   0  0  0  0  0  0  0  0  0  0  0  0
    9.8075   22.4727    2.5315 H   0  0  0  0  0  0  0  0  0  0  0  0
    8.3806   21.5900    1.1927 C   0  0  0  0  0  0  0  0  0  0  0  0
    7.2704   21.5371    1.9660 C   0  0  0  0  0  0  0  0  0  0  0  0
    6.0999   20.9268    1.4965 C   0  0  0  0  0  0  0  0  0  0  0  0
    6.0186   20.3587    0.2442 C   0  0  0  0  0  0  0  0  0  0  0  0
    4.8596   19.7595   -0.2067 C   0  0  0  0  0  0  0  0  0  0  0  0
    4.7801   19.1915   -1.4582 C   0  0  0  0  0  0  0  0  0  0  0  0
    5.9139   19.2452   -2.2505 C   0  0  0  0  0  0  0  0  0  0  0  0
    7.0700   19.8421   -1.8024 C   0  0  0  0  0  0  0  0  0  0  0  0
    7.1475   20.4116   -0.5458 C   0  0  0  0  0  0  0  0  0  0  0  0
    8.2873   21.0118   -0.0744 C   0  0  0  0  0  0  0  0  0  0  0  0
  6  7  1  0  0  0
  7  8  2  0  0  0
  7  1  1  0  0  0
  1  2  1  0  0  0
  2  3  2  0  0  0
  3 26  1  0  0  0
 26 28  1  0  0  0
 28 29  2  0  0  0
 29 30  1  0  0  0
 30 31  2  0  0  0
 31 32  1  0  0  0
 32 33  2  0  0  0
 33 34  1  0  0  0
 34 35  2  0  0  0
 35 36  1  0  0  0
 36 37  2  0  0  0
  3  4  1  0  0  0
  4  5  1  0  0  0
  5 11  1  0  0  0
 11 12  1  0  0  0
 12 13  2  0  0  0
 12 15  1  0  0  0
 15 16  2  0  0  0
 16 17  1  0  0  0
 17 18  2  0  0  0
 18 19  1  0  0  0
 19 20  2  0  0  0
 19 21  1  0  0  0
 21 22  1  0  0  0
 21 23  2  0  0  0
  5  1  2  0  0  0
 20 15  1  0  0  0
 37 28  1  0  0  0
 36 31  1  0  0  0
  6  9  1  0  0  0
  6 10  1  0  0  0
 26 27  1  0  0  0
 11 14  1  0  0  0
 22 24  1  0  0  0
 22 25  1  0  0  0
M  END
> <minimizedAffinity>
-8.97062

> <CNNscore>
0.2020266652

> <CNNaffinity>
6.8191957474

> <CNN_VS>
1.3776593208

> <CNNaffinity_variance>
0.1037402153

$$$$
[H]c1c([H])c(C(=O)N([H])[H])c([H])c(C(=O)N([H])c2sc(N([H])c3c([H])c([H])c4c([H])c([H])c([H])c([H])c4c3[H])nc2C(=O)N([H])[H])c1[H]


 37 40  0  0  0  0  0  0  0  0999 V2000
   11.4520   21.7755   -0.5168 C   0  0  0  0  0  0  0  0  0  0  0  0
   12.3576   21.8226   -1.4539 N   0  0  0  0  0  0  0  0  0  0  0  0
   13.4324   22.5637   -1.3209 C   0  0  0  0  0  0  0  0  0  0  0  0
   13.1949   23.2561    0.2016 S   0  0  0  0  0  0  0  0  0  0  0  0
   11.6294   22.5117    0.6001 C   0  0  0  0  0  0  0  0  0  0  0  0
    9.2314   20.9436   -1.4540 N   0  0  0  0  0  0  0  0  0  0  0  0
   10.3834   20.7227   -0.6373 C   0  0  0  0  0  0  0  0  0  0  0  0
   10.4506   19.6542   -0.0534 O   0  0  0  0  0  0  0  0  0  0  0  0
    8.2794   21.1166   -1.0876 H   0  0  0  0  0  0  0  0  0  0  0  0
    9.3674   20.9279   -2.4868 H   0  0  0  0  0  0  0  0  0  0  0  0
   10.8734   22.9204    1.7236 N   0  0  0  0  0  0  0  0  0  0  0  0
   10.1912   22.2902    2.7338 C   0  0  0  0  0  0  0  0  0  0  0  0
   10.0290   21.0630    2.9023 O   0  0  0  0  0  0  0  0  0  0  0  0
   10.8277   24.0257    1.8050 H   0  0  0  0  0  0  0  0  0  0  0  0
    9.5308   23.1102    3.8059 C   0  0  0  0  0  0  0  0  0  0  0  0
    9.3285   22.6322    5.0661 C   0  0  0  0  0  0  0  0  0  0  0  0
    8.7258   23.4728    5.9837 C   0  0  0  0  0  0  0  0  0  0  0  0
    8.3198   24.7531    5.7062 C   0  0  0  0  0  0  0  0  0  0  0  0
    8.5335   25.2156    4.4274 C   0  0  0  0  0  0  0  0  0  0  0  0
    9.1358   24.3926    3.4890 C   0  0  0  0  0  0  0  0  0  0  0  0
    8.1144   26.5785    4.0888 C   0  0  0  0  0  0  0  0  0  0  0  0
    6.8382   26.8241    3.5234 N   0  0  0  0  0  0  0  0  0  0  0  0
    8.8698   27.5591    4.2893 O   0  0  0  0  0  0  0  0  0  0  0  0
    5.9509   26.6021    4.0251 H   0  0  0  0  0  0  0  0  0  0  0  0
    6.7902   27.2404    2.5751 H   0  0  0  0  0  0  0  0  0  0  0  0
   14.5021   22.7225   -2.2824 N   0  0  0  0  0  0  0  0  0  0  0  0
   14.8077   21.7921   -2.7190 H   0  0  0  0  0  0  0  0  0  0  0  0
   15.1076   23.9161   -2.6398 C   0  0  0  0  0  0  0  0  0  0  0  0
   15.9251   24.6759   -1.8732 C   0  0  0  0  0  0  0  0  0  0  0  0
   16.4424   25.8841   -2.3587 C   0  0  0  0  0  0  0  0  0  0  0  0
   16.1515   26.3539   -3.6206 C   0  0  0  0  0  0  0  0  0  0  0  0
   16.6668   27.5465   -4.0873 C   0  0  0  0  0  0  0  0  0  0  0  0
   16.3746   28.0150   -5.3483 C   0  0  0  0  0  0  0  0  0  0  0  0
   15.5396   27.2392   -6.1338 C   0  0  0  0  0  0  0  0  0  0  0  0
   15.0251   26.0502   -5.6700 C   0  0  0  0  0  0  0  0  0  0  0  0
   15.3197   25.5818   -4.4038 C   0  0  0  0  0  0  0  0  0  0  0  0
   14.8197   24.4010   -3.9167 C   0  0  0  0  0  0  0  0  0  0  0  0
  6  7  1  0  0  0
  7  8  2  0  0  0
  7  1  1  0  0  0
  1  2  1  0  0  0
  2  3  2  0  0  0
  3 26  1  0  0  0
 26 28  1  0  0  0
 28 29  2  0  0  0
 29 30  1  0  0  0
 30 31  2  0  0  0
 31 32  1  0  0  0
 32 33  2  0  0  0
 33 34  1  0  0  0
 34 35  2  0  0  0
 35 36  1  0  0  0
 36 37  2  0  0  0
  3  4  1  0  0  0
  4  5  1  0  0  0
  5 11  1  0  0  0
 11 12  1  0  0  0
 12 13  2  0  0  0
 12 15  1  0  0  0
 15 16  2  0  0  0
 16 17  1  0  0  0
 17 18  2  0  0  0
 18 19  1  0  0  0
 19 20  2  0  0  0
 19 21  1  0  0  0
 21 22  1  0  0  0
 21 23  2  0  0  0
  5  1  2  0  0  0
 20 15  1  0  0  0
 37 28  1  0  0  0
 36 31  1  0  0  0
  6  9  1  0  0  0
  6 10  1  0  0  0
 26 27  1  0  0  0
 11 14  1  0  0  0
 22 24  1  0  0  0
 22 25  1  0  0  0
M  END
> <minimizedAffinity>
-10.80900

> <CNNscore>
0.1961096227

> <CNNaffinity>
6.6650176048

> <CNN_VS>
1.3070740700

> <CNNaffinity_variance>
0.0579663739

$$$$
[H]c1c([H])c([H])c(-c2c([H])c([H])c(C(=O)N([H])[C@]3([H])C([H])([H])[C@@]4([H])O[C@@]([H])(N([H])S(=O)(=O)c5c([H])c([H])c(OC([H])([H])[H])c([H])c5[H])C([H])([H])[C@@]43[H])c([H])c2[H])c([H])c1[H]


 36 40  0  0  0  0  0  0  0  0999 V2000
   14.6236   25.7811   -4.3829 C   0  0  0  0  0  0  0  0  0  0  0  0
   14.5466   24.5877   -3.3658 C   0  0  0  0  0  0  0  0  0  0  0  0
   13.9468   25.3619   -2.2861 C   0  0  0  0  0  0  0  0  0  0  0  0
   12.8784   25.0726   -1.3819 C   0  0  0  0  0  0  0  0  0  0  0  0
   12.3199   26.4345   -1.8836 C   0  0  0  0  0  0  0  0  0  0  0  0
   12.8578   25.9741   -3.1705 C   0  0  0  0  0  0  0  0  0  0  0  0
   13.5771   26.6264   -4.0377 O   0  0  0  0  0  0  0  0  0  0  0  0
   11.9561   24.0101   -1.5046 N   0  0  0  0  0  0  0  0  0  0  0  0
   11.3052   23.5034   -0.3592 C   0  0  0  0  0  0  0  0  0  0  0  0
   11.5692   23.9928    0.7623 O   0  0  0  0  0  0  0  0  0  0  0  0
   11.7345   23.5813   -2.4438 H   0  0  0  0  0  0  0  0  0  0  0  0
   10.3193   22.4230   -0.3803 C   0  0  0  0  0  0  0  0  0  0  0  0
    9.0990   22.5921    0.2864 C   0  0  0  0  0  0  0  0  0  0  0  0
    8.1183   21.6326    0.3173 C   0  0  0  0  0  0  0  0  0  0  0  0
    8.2940   20.4207   -0.3286 C   0  0  0  0  0  0  0  0  0  0  0  0
    9.4930   20.2490   -0.9873 C   0  0  0  0  0  0  0  0  0  0  0  0
   10.4906   21.2186   -1.0202 C   0  0  0  0  0  0  0  0  0  0  0  0
    7.2794   19.3748   -0.3031 C   0  0  0  0  0  0  0  0  0  0  0  0
    7.2979   18.3010   -1.1520 C   0  0  0  0  0  0  0  0  0  0  0  0
    6.2994   17.3784   -1.0314 C   0  0  0  0  0  0  0  0  0  0  0  0
    5.2776   17.4538   -0.1159 C   0  0  0  0  0  0  0  0  0  0  0  0
    5.2499   18.5484    0.7579 C   0  0  0  0  0  0  0  0  0  0  0  0
    6.2602   19.4700    0.6255 C   0  0  0  0  0  0  0  0  0  0  0  0
   15.8762   26.4040   -4.3343 N   0  0  0  0  0  0  0  0  0  0  0  0
   15.9492   27.1252   -5.0518 H   0  0  0  0  0  0  0  0  0  0  0  0
   16.6362   26.7990   -2.9153 S   0  0  0  0  0  0  0  0  0  0  0  0
   15.9079   28.0036   -2.2908 O   0  0  0  0  0  0  0  0  0  0  0  0
   18.0958   27.1395   -3.0414 O   0  0  0  0  0  0  0  0  0  0  0  0
   16.3005   23.6001    0.3194 C   0  0  0  0  0  0  0  0  0  0  0  0
   16.8936   23.2877   -0.9194 C   0  0  0  0  0  0  0  0  0  0  0  0
   16.9912   24.2435   -1.9100 C   0  0  0  0  0  0  0  0  0  0  0  0
   16.5336   25.5173   -1.7565 C   0  0  0  0  0  0  0  0  0  0  0  0
   15.9392   25.8317   -0.5225 C   0  0  0  0  0  0  0  0  0  0  0  0
   15.8397   24.8781    0.4692 C   0  0  0  0  0  0  0  0  0  0  0  0
   15.2445   21.6140    1.1969 C   0  0  0  0  0  0  0  0  0  0  0  0
   16.2212   22.6267    1.2941 O   0  0  0  0  0  0  0  0  0  0  0  0
 35 36  1  0  0  0
 36 29  1  0  0  0
 29 30  2  0  0  0
 30 31  1  0  0  0
 31 32  2  0  0  0
 32 33  1  0  0  0
 33 34  2  0  0  0
 32 26  1  0  0  0
 26 27  2  0  0  0
 26 28  2  0  0  0
 26 24  1  0  0  0
 24  1  1  0  0  0
  1  2  1  0  0  0
  2  3  1  0  0  0
  3  4  1  0  0  0
  4  5  1  0  0  0
  5  6  1  0  0  0
  6  7  1  0  0  0
  4  8  1  0  0  0
  8  9  1  0  0  0
  9 10  2  0  0  0
  9 12  1  0  0  0
 12 13  2  0  0  0
 13 14  1  0  0  0
 14 15  2  0  0  0
 15 16  1  0  0  0
 16 17  2  0  0  0
 15 18  1  0  0  0
 18 19  2  0  0  0
 19 20  1  0  0  0
 20 21  2  0  0  0
 21 22  1  0  0  0
 22 23  2  0  0  0
 34 29  1  0  0  0
  7  1  1  0  0  0
 17 12  1  0  0  0
 23 18  1  0  0  0
  6  3  1  0  0  0
 24 25  1  0  0  0
  8 11  1  0  0  0
M  END
> <minimizedAffinity>
0.24536

> <CNNscore>
0.6653582454

> <CNNaffinity>
7.3050932884

> <CNN_VS>
4.8605041504

> <CNNaffinity_variance>
0.4333564639

$$$$
[H]c1c([H])c([H])c(-c2c([H])c([H])c(C(=O)N([H])[C@]3([H])C([H])([H])[C@@]4([H])O[C@@]([H])(N([H])S(=O)(=O)c5c([H])c([H])c(OC([H])([H])[H])c([H])c5[H])C([H])([H])[C@@]43[H])c([H])c2[H])c([H])c1[H]


 36 40  0  0  0  0  0  0  0  0999 V2000
   13.2291   26.9777   -4.6977 C   0  0  0  0  0  0  0  0  0  0  0  0
   13.3225   25.4507   -4.3451 C   0  0  0  0  0  0  0  0  0  0  0  0
   13.5696   25.6500   -2.9224 C   0  0  0  0  0  0  0  0  0  0  0  0
   13.0434   25.0035   -1.7613 C   0  0  0  0  0  0  0  0  0  0  0  0
   12.7223   26.4578   -1.3134 C   0  0  0  0  0  0  0  0  0  0  0  0
   12.4120   26.6344   -2.7381 C   0  0  0  0  0  0  0  0  0  0  0  0
   12.7699   27.5946   -3.5412 O   0  0  0  0  0  0  0  0  0  0  0  0
   11.9208   24.1472   -1.7289 N   0  0  0  0  0  0  0  0  0  0  0  0
   11.6902   23.3266   -0.6038 C   0  0  0  0  0  0  0  0  0  0  0  0
   12.4996   23.3540    0.3507 O   0  0  0  0  0  0  0  0  0  0  0  0
   11.2379   24.1068   -2.5332 H   0  0  0  0  0  0  0  0  0  0  0  0
   10.5486   22.4232   -0.4613 C   0  0  0  0  0  0  0  0  0  0  0  0
   10.5978   21.1539   -1.0520 C   0  0  0  0  0  0  0  0  0  0  0  0
    9.5741   20.2438   -0.9679 C   0  0  0  0  0  0  0  0  0  0  0  0
    8.4145   20.5459   -0.2745 C   0  0  0  0  0  0  0  0  0  0  0  0
    8.3607   21.7935    0.3097 C   0  0  0  0  0  0  0  0  0  0  0  0
    9.3958   22.7199    0.2260 C   0  0  0  0  0  0  0  0  0  0  0  0
    7.3027   19.6085   -0.1783 C   0  0  0  0  0  0  0  0  0  0  0  0
    6.2467   19.7933    0.6731 C   0  0  0  0  0  0  0  0  0  0  0  0
    5.2575   18.8529    0.6719 C   0  0  0  0  0  0  0  0  0  0  0  0
    5.2492   17.7342   -0.1258 C   0  0  0  0  0  0  0  0  0  0  0  0
    6.3249   17.5362   -1.0012 C   0  0  0  0  0  0  0  0  0  0  0  0
    7.3141   18.4896   -0.9895 C   0  0  0  0  0  0  0  0  0  0  0  0
   14.4647   27.4702   -5.1334 N   0  0  0  0  0  0  0  0  0  0  0  0
   14.6128   28.4221   -4.7985 H   0  0  0  0  0  0  0  0  0  0  0  0
   15.8454   26.5536   -5.1621 S   0  0  0  0  0  0  0  0  0  0  0  0
   17.0215   27.4562   -5.5788 O   0  0  0  0  0  0  0  0  0  0  0  0
   15.8087   25.3654   -6.0835 O   0  0  0  0  0  0  0  0  0  0  0  0
   16.7930   24.7024   -1.1021 C   0  0  0  0  0  0  0  0  0  0  0  0
   16.8203   26.1018   -1.2602 C   0  0  0  0  0  0  0  0  0  0  0  0
   16.5463   26.6736   -2.4859 C   0  0  0  0  0  0  0  0  0  0  0  0
   16.2385   25.9403   -3.5920 C   0  0  0  0  0  0  0  0  0  0  0  0
   16.2126   24.5437   -3.4381 C   0  0  0  0  0  0  0  0  0  0  0  0
   16.4867   23.9695   -2.2142 C   0  0  0  0  0  0  0  0  0  0  0  0
   16.0317   23.5502    0.8785 C   0  0  0  0  0  0  0  0  0  0  0  0
   17.0655   24.1578    0.1361 O   0  0  0  0  0  0  0  0  0  0  0  0
 35 36  1  0  0  0
 36 29  1  0  0  0
 29 30  2  0  0  0
 30 31  1  0  0  0
 31 32  2  0  0  0
 32 33  1  0  0  0
 33 34  2  0  0  0
 32 26  1  0  0  0
 26 27  2  0  0  0
 26 28  2  0  0  0
 26 24  1  0  0  0
 24  1  1  0  0  0
  1  2  1  0  0  0
  2  3  1  0  0  0
  3  4  1  0  0  0
  4  5  1  0  0  0
  5  6  1  0  0  0
  6  7  1  0  0  0
  4  8  1  0  0  0
  8  9  1  0  0  0
  9 10  2  0  0  0
  9 12  1  0  0  0
 12 13  2  0  0  0
 13 14  1  0  0  0
 14 15  2  0  0  0
 15 16  1  0  0  0
 16 17  2  0  0  0
 15 18  1  0  0  0
 18 19  2  0  0  0
 19 20  1  0  0  0
 20 21  2  0  0  0
 21 22  1  0  0  0
 22 23  2  0  0  0
 34 29  1  0  0  0
  7  1  1  0  0  0
 17 12  1  0  0  0
 23 18  1  0  0  0
  6  3  1  0  0  0
 24 25  1  0  0  0
  8 11  1  0  0  0
M  END
> <minimizedAffinity>
-1.68331

> <CNNscore>
0.6469556093

> <CNNaffinity>
7.0765104294

> <CNN_VS>
4.5781879425

> <CNNaffinity_variance>
0.3033361137

$$$$
[H]c1c([H])c([H])c(-c2c([H])c([H])c(C(=O)N([H])[C@]3([H])C([H])([H])[C@@]4([H])O[C@@]([H])(N([H])S(=O)(=O)c5c([H])c([H])c(OC([H])([H])[H])c([H])c5[H])C([H])([H])[C@@]43[H])c([H])c2[H])c([H])c1[H]


 36 40  0  0  0  0  0  0  0  0999 V2000
   13.2305   26.6625   -4.7857 C   0  0  0  0  0  0  0  0  0  0  0  0
   13.2852   25.3493   -3.9271 C   0  0  0  0  0  0  0  0  0  0  0  0
   13.5601   26.0199   -2.6623 C   0  0  0  0  0  0  0  0  0  0  0  0
   13.0337   25.8321   -1.3468 C   0  0  0  0  0  0  0  0  0  0  0  0
   12.7618   27.3611   -1.4282 C   0  0  0  0  0  0  0  0  0  0  0  0
   12.4345   27.0444   -2.8246 C   0  0  0  0  0  0  0  0  0  0  0  0
   12.8074   27.6556   -3.9119 O   0  0  0  0  0  0  0  0  0  0  0  0
   11.8875   25.0766   -1.0150 N   0  0  0  0  0  0  0  0  0  0  0  0
   11.8242   24.3933    0.2185 C   0  0  0  0  0  0  0  0  0  0  0  0
   12.7996   24.4500    1.0010 O   0  0  0  0  0  0  0  0  0  0  0  0
   11.0636   25.0117   -1.6723 H   0  0  0  0  0  0  0  0  0  0  0  0
   10.6774   23.6037    0.6666 C   0  0  0  0  0  0  0  0  0  0  0  0
   10.8288   22.7199    1.7429 C   0  0  0  0  0  0  0  0  0  0  0  0
    9.8076   21.9425    2.2286 C   0  0  0  0  0  0  0  0  0  0  0  0
    8.5452   21.9990    1.6630 C   0  0  0  0  0  0  0  0  0  0  0  0
    8.3899   22.8678    0.6038 C   0  0  0  0  0  0  0  0  0  0  0  0
    9.4229   23.6571    0.1072 C   0  0  0  0  0  0  0  0  0  0  0  0
    7.4428   21.1764    2.1446 C   0  0  0  0  0  0  0  0  0  0  0  0
    7.3632   20.7216    3.4333 C   0  0  0  0  0  0  0  0  0  0  0  0
    6.2797   19.9648    3.7742 C   0  0  0  0  0  0  0  0  0  0  0  0
    5.2636   19.6291    2.9124 C   0  0  0  0  0  0  0  0  0  0  0  0
    5.3352   20.0902    1.5915 C   0  0  0  0  0  0  0  0  0  0  0  0
    6.4312   20.8501    1.2613 C   0  0  0  0  0  0  0  0  0  0  0  0
   14.4728   26.9336   -5.3707 N   0  0  0  0  0  0  0  0  0  0  0  0
   14.5710   27.9301   -5.5650 H   0  0  0  0  0  0  0  0  0  0  0  0
   15.8814   26.2103   -4.8806 S   0  0  0  0  0  0  0  0  0  0  0  0
   16.5530   27.1128   -3.8291 O   0  0  0  0  0  0  0  0  0  0  0  0
   16.8760   25.9339   -5.9745 O   0  0  0  0  0  0  0  0  0  0  0  0
   15.2109   22.3140   -2.6050 C   0  0  0  0  0  0  0  0  0  0  0  0
   15.0176   22.3558   -3.9996 C   0  0  0  0  0  0  0  0  0  0  0  0
   15.2065   23.5310   -4.6979 C   0  0  0  0  0  0  0  0  0  0  0  0
   15.5836   24.6949   -4.0990 C   0  0  0  0  0  0  0  0  0  0  0  0
   15.7751   24.6572   -2.7072 C   0  0  0  0  0  0  0  0  0  0  0  0
   15.5863   23.4841   -2.0066 C   0  0  0  0  0  0  0  0  0  0  0  0
   13.8304   20.9110   -1.2065 C   0  0  0  0  0  0  0  0  0  0  0  0
   15.0204   21.1242   -1.9327 O   0  0  0  0  0  0  0  0  0  0  0  0
 35 36  1  0  0  0
 36 29  1  0  0  0
 29 30  2  0  0  0
 30 31  1  0  0  0
 31 32  2  0  0  0
 32 33  1  0  0  0
 33 34  2  0  0  0
 32 26  1  0  0  0
 26 27  2  0  0  0
 26 28  2  0  0  0
 26 24  1  0  0  0
 24  1  1  0  0  0
  1  2  1  0  0  0
  2  3  1  0  0  0
  3  4  1  0  0  0
  4  5  1  0  0  0
  5  6  1  0  0  0
  6  7  1  0  0  0
  4  8  1  0  0  0
  8  9  1  0  0  0
  9 10  2  0  0  0
  9 12  1  0  0  0
 12 13  2  0  0  0
 13 14  1  0  0  0
 14 15  2  0  0  0
 15 16  1  0  0  0
 16 17  2  0  0  0
 15 18  1  0  0  0
 18 19  2  0  0  0
 19 20  1  0  0  0
 20 21  2  0  0  0
 21 22  1  0  0  0
 22 23  2  0  0  0
 34 29  1  0  0  0
  7  1  1  0  0  0
 17 12  1  0  0  0
 23 18  1  0  0  0
  6  3  1  0  0  0
 24 25  1  0  0  0
  8 11  1  0  0  0
M  END
> <minimizedAffinity>
1.38640

> <CNNscore>
0.6227132082

> <CNNaffinity>
7.0866942406

> <CNN_VS>
4.4129781723

> <CNNaffinity_variance>
0.4926399291

$$$$
[H]c1c([H])c([H])c(-c2c([H])c([H])c(C(=O)N([H])[C@]3([H])C([H])([H])[C@@]4([H])O[C@@]([H])(N([H])S(=O)(=O)c5c([H])c([H])c(OC([H])([H])[H])c([H])c5[H])C([H])([H])[C@@]43[H])c([H])c2[H])c([H])c1[H]


 36 40  0  0  0  0  0  0  0  0999 V2000
   13.7110   26.4736   -4.4008 C   0  0  0  0  0  0  0  0  0  0  0  0
   13.9531   25.0971   -3.6860 C   0  0  0  0  0  0  0  0  0  0  0  0
   13.9044   25.6322   -2.3309 C   0  0  0  0  0  0  0  0  0  0  0  0
   13.2711   25.1607   -1.1394 C   0  0  0  0  0  0  0  0  0  0  0  0
   12.6709   26.5950   -1.1017 C   0  0  0  0  0  0  0  0  0  0  0  0
   12.6053   26.4094   -2.5573 C   0  0  0  0  0  0  0  0  0  0  0  0
   12.9649   27.2274   -3.5040 O   0  0  0  0  0  0  0  0  0  0  0  0
   12.2941   24.1432   -1.0694 N   0  0  0  0  0  0  0  0  0  0  0  0
   11.4253   24.0730    0.0408 C   0  0  0  0  0  0  0  0  0  0  0  0
   11.5443   24.9080    0.9658 O   0  0  0  0  0  0  0  0  0  0  0  0
   12.1923   23.4262   -1.8378 H   0  0  0  0  0  0  0  0  0  0  0  0
   10.3678   23.0749    0.1994 C   0  0  0  0  0  0  0  0  0  0  0  0
   10.2004   22.0882   -0.7808 C   0  0  0  0  0  0  0  0  0  0  0  0
    9.2362   21.1142   -0.7121 C   0  0  0  0  0  0  0  0  0  0  0  0
    8.3616   21.0591    0.3598 C   0  0  0  0  0  0  0  0  0  0  0  0
    8.5221   22.0273    1.3281 C   0  0  0  0  0  0  0  0  0  0  0  0
    9.4977   23.0175    1.2619 C   0  0  0  0  0  0  0  0  0  0  0  0
    7.3170   20.0474    0.4563 C   0  0  0  0  0  0  0  0  0  0  0  0
    7.2015   19.1984    1.5240 C   0  0  0  0  0  0  0  0  0  0  0  0
    6.1781   18.2955    1.5100 C   0  0  0  0  0  0  0  0  0  0  0  0
    5.2559   18.1813    0.4979 C   0  0  0  0  0  0  0  0  0  0  0  0
    5.3648   19.0459   -0.5989 C   0  0  0  0  0  0  0  0  0  0  0  0
    6.3997   19.9493   -0.5727 C   0  0  0  0  0  0  0  0  0  0  0  0
   14.9233   27.0770   -4.7553 N   0  0  0  0  0  0  0  0  0  0  0  0
   14.9551   27.2626   -5.7577 H   0  0  0  0  0  0  0  0  0  0  0  0
   15.6526   28.2498   -3.8389 S   0  0  0  0  0  0  0  0  0  0  0  0
   15.2376   28.0493   -2.3696 O   0  0  0  0  0  0  0  0  0  0  0  0
   15.3327   29.6654   -4.2341 O   0  0  0  0  0  0  0  0  0  0  0  0
   20.1715   27.6284   -3.8931 C   0  0  0  0  0  0  0  0  0  0  0  0
   19.6417   28.9330   -3.8553 C   0  0  0  0  0  0  0  0  0  0  0  0
   18.2765   29.1346   -3.8497 C   0  0  0  0  0  0  0  0  0  0  0  0
   17.3775   28.1114   -3.8780 C   0  0  0  0  0  0  0  0  0  0  0  0
   17.9028   26.8086   -3.9180 C   0  0  0  0  0  0  0  0  0  0  0  0
   19.2670   26.6042   -3.9244 C   0  0  0  0  0  0  0  0  0  0  0  0
   22.1099   26.3584   -4.5708 C   0  0  0  0  0  0  0  0  0  0  0  0
   21.5404   27.4558   -3.8922 O   0  0  0  0  0  0  0  0  0  0  0  0
 35 36  1  0  0  0
 36 29  1  0  0  0
 29 30  2  0  0  0
 30 31  1  0  0  0
 31 32  2  0  0  0
 32 33  1  0  0  0
 33 34  2  0  0  0
 32 26  1  0  0  0
 26 27  2  0  0  0
 26 28  2  0  0  0
 26 24  1  0  0  0
 24  1  1  0  0  0
  1  2  1  0  0  0
  2  3  1  0  0  0
  3  4  1  0  0  0
  4  5  1  0  0  0
  5  6  1  0  0  0
  6  7  1  0  0  0
  4  8  1  0  0  0
  8  9  1  0  0  0
  9 10  2  0  0  0
  9 12  1  0  0  0
 12 13  2  0  0  0
 13 14  1  0  0  0
 14 15  2  0  0  0
 15 16  1  0  0  0
 16 17  2  0  0  0
 15 18  1  0  0  0
 18 19  2  0  0  0
 19 20  1  0  0  0
 20 21  2  0  0  0
 21 22  1  0  0  0
 22 23  2  0  0  0
 34 29  1  0  0  0
  7  1  1  0  0  0
 17 12  1  0  0  0
 23 18  1  0  0  0
  6  3  1  0  0  0
 24 25  1  0  0  0
  8 11  1  0  0  0
M  END
> <minimizedAffinity>
19.15845

> <CNNscore>
0.5765711665

> <CNNaffinity>
6.6131029129

> <CNN_VS>
3.8129243851

> <CNNaffinity_variance>
0.6643345952

$$$$
[H]c1c([H])c([H])c(-c2c([H])c([H])c(C(=O)N([H])[C@]3([H])C([H])([H])[C@@]4([H])O[C@@]([H])(N([H])S(=O)(=O)c5c([H])c([H])c(OC([H])([H])[H])c([H])c5[H])C([H])([H])[C@@]43[H])c([H])c2[H])c([H])c1[H]


 36 40  0  0  0  0  0  0  0  0999 V2000
   13.3562   26.8848   -3.8483 C   0  0  0  0  0  0  0  0  0  0  0  0
   13.4584   25.3227   -3.7299 C   0  0  0  0  0  0  0  0  0  0  0  0
   13.5972   25.3007   -2.2790 C   0  0  0  0  0  0  0  0  0  0  0  0
   13.0031   24.4755   -1.2745 C   0  0  0  0  0  0  0  0  0  0  0  0
   12.6175   25.8386   -0.6327 C   0  0  0  0  0  0  0  0  0  0  0  0
   12.4073   26.2314   -2.0323 C   0  0  0  0  0  0  0  0  0  0  0  0
   12.8005   27.3089   -2.6482 O   0  0  0  0  0  0  0  0  0  0  0  0
   11.9009   23.6121   -1.4591 N   0  0  0  0  0  0  0  0  0  0  0  0
   11.6554   22.5723   -0.5367 C   0  0  0  0  0  0  0  0  0  0  0  0
   12.4341   22.4149    0.4307 O   0  0  0  0  0  0  0  0  0  0  0  0
   11.2442   23.7277   -2.2779 H   0  0  0  0  0  0  0  0  0  0  0  0
   10.5319   21.6397   -0.6241 C   0  0  0  0  0  0  0  0  0  0  0  0
   10.7099   20.3086   -0.2255 C   0  0  0  0  0  0  0  0  0  0  0  0
    9.7118   19.3681   -0.2731 C   0  0  0  0  0  0  0  0  0  0  0  0
    8.4473   19.7013   -0.7280 C   0  0  0  0  0  0  0  0  0  0  0  0
    8.2659   21.0102   -1.1211 C   0  0  0  0  0  0  0  0  0  0  0  0
    9.2755   21.9669   -1.0756 C   0  0  0  0  0  0  0  0  0  0  0  0
    7.3692   18.7236   -0.8056 C   0  0  0  0  0  0  0  0  0  0  0  0
    7.2108   17.7183    0.1100 C   0  0  0  0  0  0  0  0  0  0  0  0
    6.1591   16.8650   -0.0589 C   0  0  0  0  0  0  0  0  0  0  0  0
    5.2485   16.9468   -1.0847 C   0  0  0  0  0  0  0  0  0  0  0  0
    5.4013   17.9725   -2.0265 C   0  0  0  0  0  0  0  0  0  0  0  0
    6.4643   18.8238   -1.8454 C   0  0  0  0  0  0  0  0  0  0  0  0
   14.6086   27.4530   -4.1088 N   0  0  0  0  0  0  0  0  0  0  0  0
   14.6418   28.4192   -3.7838 H   0  0  0  0  0  0  0  0  0  0  0  0
   16.0347   26.6336   -3.9034 S   0  0  0  0  0  0  0  0  0  0  0  0
   16.5072   26.8332   -2.4515 O   0  0  0  0  0  0  0  0  0  0  0  0
   17.1496   27.0430   -4.8264 O   0  0  0  0  0  0  0  0  0  0  0  0
   15.4189   22.1863   -4.7102 C   0  0  0  0  0  0  0  0  0  0  0  0
   15.5944   22.6434   -3.3896 C   0  0  0  0  0  0  0  0  0  0  0  0
   15.7925   23.9849   -3.1333 C   0  0  0  0  0  0  0  0  0  0  0  0
   15.8286   24.9282   -4.1155 C   0  0  0  0  0  0  0  0  0  0  0  0
   15.6561   24.4750   -5.4345 C   0  0  0  0  0  0  0  0  0  0  0  0
   15.4586   23.1346   -5.6936 C   0  0  0  0  0  0  0  0  0  0  0  0
   13.9924   20.3955   -5.4771 C   0  0  0  0  0  0  0  0  0  0  0  0
   15.2170   20.8403   -4.9371 O   0  0  0  0  0  0  0  0  0  0  0  0
 35 36  1  0  0  0
 36 29  1  0  0  0
 29 30  2  0  0  0
 30 31  1  0  0  0
 31 32  2  0  0  0
 32 33  1  0  0  0
 33 34  2  0  0  0
 32 26  1  0  0  0
 26 27  2  0  0  0
 26 28  2  0  0  0
 26 24  1  0  0  0
 24  1  1  0  0  0
  1  2  1  0  0  0
  2  3  1  0  0  0
  3  4  1  0  0  0
  4  5  1  0  0  0
  5  6  1  0  0  0
  6  7  1  0  0  0
  4  8  1  0  0  0
  8  9  1  0  0  0
  9 10  2  0  0  0
  9 12  1  0  0  0
 12 13  2  0  0  0
 13 14  1  0  0  0
 14 15  2  0  0  0
 15 16  1  0  0  0
 16 17  2  0  0  0
 15 18  1  0  0  0
 18 19  2  0  0  0
 19 20  1  0  0  0
 20 21  2  0  0  0
 21 22  1  0  0  0
 22 23  2  0  0  0
 34 29  1  0  0  0
  7  1  1  0  0  0
 17 12  1  0  0  0
 23 18  1  0  0  0
  6  3  1  0  0  0
 24 25  1  0  0  0
  8 11  1  0  0  0
M  END
> <minimizedAffinity>
1.17909

> <CNNscore>
0.5750766993

> <CNNaffinity>
6.9417328835

> <CNN_VS>
3.9920289516

> <CNNaffinity_variance>
0.4942423701

$$$$
[H]c1c([H])c([H])c(-c2c([H])c([H])c(C(=O)N([H])[C@]3([H])C([H])([H])[C@@]4([H])O[C@@]([H])(N([H])S(=O)(=O)c5c([H])c([H])c(OC([H])([H])[H])c([H])c5[H])C([H])([H])[C@@]43[H])c([H])c2[H])c([H])c1[H]


 36 40  0  0  0  0  0  0  0  0999 V2000
   14.8800   24.5013   -0.8041 C   0  0  0  0  0  0  0  0  0  0  0  0
   13.9235   24.6002    0.4367 C   0  0  0  0  0  0  0  0  0  0  0  0
   12.9226   25.4294   -0.2234 C   0  0  0  0  0  0  0  0  0  0  0  0
   11.4943   25.3767   -0.2345 C   0  0  0  0  0  0  0  0  0  0  0  0
   11.6814   25.3959   -1.7783 C   0  0  0  0  0  0  0  0  0  0  0  0
   12.8344   24.5409   -1.4667 C   0  0  0  0  0  0  0  0  0  0  0  0
   14.0543   24.6160   -1.9150 O   0  0  0  0  0  0  0  0  0  0  0  0
   10.7031   24.2987    0.2200 N   0  0  0  0  0  0  0  0  0  0  0  0
   10.1614   23.3805   -0.7050 C   0  0  0  0  0  0  0  0  0  0  0  0
   10.3747   23.5444   -1.9275 O   0  0  0  0  0  0  0  0  0  0  0  0
   10.5065   24.1572    1.2478 H   0  0  0  0  0  0  0  0  0  0  0  0
    9.3495   22.2206   -0.3374 C   0  0  0  0  0  0  0  0  0  0  0  0
    8.2777   22.3843    0.5496 C   0  0  0  0  0  0  0  0  0  0  0  0
    7.4648   21.3526    0.9472 C   0  0  0  0  0  0  0  0  0  0  0  0
    7.6709   20.0675    0.4753 C   0  0  0  0  0  0  0  0  0  0  0  0
    8.7239   19.9005   -0.3988 C   0  0  0  0  0  0  0  0  0  0  0  0
    9.5515   20.9434   -0.8038 C   0  0  0  0  0  0  0  0  0  0  0  0
    6.8358   18.9469    0.8888 C   0  0  0  0  0  0  0  0  0  0  0  0
    6.4312   17.9640    0.0262 C   0  0  0  0  0  0  0  0  0  0  0  0
    5.6568   16.9581    0.5273 C   0  0  0  0  0  0  0  0  0  0  0  0
    5.2565   16.8646    1.8384 C   0  0  0  0  0  0  0  0  0  0  0  0
    5.6659   17.8650    2.7295 C   0  0  0  0  0  0  0  0  0  0  0  0
    6.4442   18.8720    2.2121 C   0  0  0  0  0  0  0  0  0  0  0  0
   15.8758   25.4836   -0.7518 N   0  0  0  0  0  0  0  0  0  0  0  0
   16.1844   25.6347    0.2085 H   0  0  0  0  0  0  0  0  0  0  0  0
   17.0966   25.5953   -1.8674 S   0  0  0  0  0  0  0  0  0  0  0  0
   17.9069   24.2861   -1.8364 O   0  0  0  0  0  0  0  0  0  0  0  0
   18.0450   26.7458   -1.6689 O   0  0  0  0  0  0  0  0  0  0  0  0
   15.4839   26.2507   -6.0838 C   0  0  0  0  0  0  0  0  0  0  0  0
   15.4221   24.9710   -5.4985 C   0  0  0  0  0  0  0  0  0  0  0  0
   15.9165   24.7573   -4.2280 C   0  0  0  0  0  0  0  0  0  0  0  0
   16.4798   25.7450   -3.4777 C   0  0  0  0  0  0  0  0  0  0  0  0
   16.5450   27.0225   -4.0595 C   0  0  0  0  0  0  0  0  0  0  0  0
   16.0522   27.2387   -5.3297 C   0  0  0  0  0  0  0  0  0  0  0  0
   13.6073   26.7259   -7.5269 C   0  0  0  0  0  0  0  0  0  0  0  0
   14.9768   26.4372   -7.3535 O   0  0  0  0  0  0  0  0  0  0  0  0
 35 36  1  0  0  0
 36 29  1  0  0  0
 29 30  2  0  0  0
 30 31  1  0  0  0
 31 32  2  0  0  0
 32 33  1  0  0  0
 33 34  2  0  0  0
 32 26  1  0  0  0
 26 27  2  0  0  0
 26 28  2  0  0  0
 26 24  1  0  0  0
 24  1  1  0  0  0
  1  2  1  0  0  0
  2  3  1  0  0  0
  3  4  1  0  0  0
  4  5  1  0  0  0
  5  6  1  0  0  0
  6  7  1  0  0  0
  4  8  1  0  0  0
  8  9  1  0  0  0
  9 10  2  0  0  0
  9 12  1  0  0  0
 12 13  2  0  0  0
 13 14  1  0  0  0
 14 15  2  0  0  0
 15 16  1  0  0  0
 16 17  2  0  0  0
 15 18  1  0  0  0
 18 19  2  0  0  0
 19 20  1  0  0  0
 20 21  2  0  0  0
 21 22  1  0  0  0
 22 23  2  0  0  0
 34 29  1  0  0  0
  7  1  1  0  0  0
 17 12  1  0  0  0
 23 18  1  0  0  0
  6  3  1  0  0  0
 24 25  1  0  0  0
  8 11  1  0  0  0
M  END
> <minimizedAffinity>
1.95795

> <CNNscore>
0.4952103496

> <CNNaffinity>
6.6792540550

> <CNN_VS>
3.3076357841

> <CNNaffinity_variance>
0.5998777151

$$$$
[H]c1c([H])c([H])c(-c2c([H])c([H])c(C(=O)N([H])[C@]3([H])C([H])([H])[C@@]4([H])O[C@@]([H])(N([H])S(=O)(=O)c5c([H])c([H])c(OC([H])([H])[H])c([H])c5[H])C([H])([H])[C@@]43[H])c([H])c2[H])c([H])c1[H]


 36 40  0  0  0  0  0  0  0  0999 V2000
   15.8350   24.8350   -4.0961 C   0  0  0  0  0  0  0  0  0  0  0  0
   14.3434   24.3858   -3.9012 C   0  0  0  0  0  0  0  0  0  0  0  0
   14.6578   23.1788   -3.1468 C   0  0  0  0  0  0  0  0  0  0  0  0
   14.0797   22.6095   -1.9700 C   0  0  0  0  0  0  0  0  0  0  0  0
   15.5497   22.6074   -1.4623 C   0  0  0  0  0  0  0  0  0  0  0  0
   15.6072   23.8885   -2.1784 C   0  0  0  0  0  0  0  0  0  0  0  0
   16.5180   24.3281   -2.9982 O   0  0  0  0  0  0  0  0  0  0  0  0
   13.1850   23.2589   -1.0911 N   0  0  0  0  0  0  0  0  0  0  0  0
   12.2968   22.4999   -0.2991 C   0  0  0  0  0  0  0  0  0  0  0  0
   12.2996   21.2522   -0.3997 O   0  0  0  0  0  0  0  0  0  0  0  0
   13.1653   24.3112   -1.0066 H   0  0  0  0  0  0  0  0  0  0  0  0
   11.3484   23.0721    0.6564 C   0  0  0  0  0  0  0  0  0  0  0  0
   11.1338   22.4286    1.8821 C   0  0  0  0  0  0  0  0  0  0  0  0
   10.2643   22.8953    2.8357 C   0  0  0  0  0  0  0  0  0  0  0  0
    9.5408   24.0568    2.6253 C   0  0  0  0  0  0  0  0  0  0  0  0
    9.7485   24.6949    1.4210 C   0  0  0  0  0  0  0  0  0  0  0  0
   10.6283   24.2247    0.4507 C   0  0  0  0  0  0  0  0  0  0  0  0
    8.5983   24.5718    3.6105 C   0  0  0  0  0  0  0  0  0  0  0  0
    8.9019   25.5992    4.4627 C   0  0  0  0  0  0  0  0  0  0  0  0
    7.9369   26.0039    5.3391 C   0  0  0  0  0  0  0  0  0  0  0  0
    6.6819   25.4510    5.4235 C   0  0  0  0  0  0  0  0  0  0  0  0
    6.3610   24.3995    4.5552 C   0  0  0  0  0  0  0  0  0  0  0  0
    7.3414   24.0013    3.6788 C   0  0  0  0  0  0  0  0  0  0  0  0
   16.3415   24.3816   -5.3197 N   0  0  0  0  0  0  0  0  0  0  0  0
   16.3832   23.3627   -5.3383 H   0  0  0  0  0  0  0  0  0  0  0  0
   15.9285   25.0563   -6.7763 S   0  0  0  0  0  0  0  0  0  0  0  0
   14.4661   24.6876   -7.0874 O   0  0  0  0  0  0  0  0  0  0  0  0
   16.7820   24.6395   -7.9425 O   0  0  0  0  0  0  0  0  0  0  0  0
   16.2293   29.6074   -6.8538 C   0  0  0  0  0  0  0  0  0  0  0  0
   15.7803   28.9522   -5.6905 C   0  0  0  0  0  0  0  0  0  0  0  0
   15.6744   27.5767   -5.6580 C   0  0  0  0  0  0  0  0  0  0  0  0
   15.9906   26.7852   -6.7207 C   0  0  0  0  0  0  0  0  0  0  0  0
   16.4368   27.4358   -7.8836 C   0  0  0  0  0  0  0  0  0  0  0  0
   16.5430   28.8107   -7.9191 C   0  0  0  0  0  0  0  0  0  0  0  0
   15.2426   31.7668   -7.2933 C   0  0  0  0  0  0  0  0  0  0  0  0
   16.3310   30.9835   -6.8566 O   0  0  0  0  0  0  0  0  0  0  0  0
 35 36  1  0  0  0
 36 29  1  0  0  0
 29 30  2  0  0  0
 30 31  1  0  0  0
 31 32  2  0  0  0
 32 33  1  0  0  0
 33 34  2  0  0  0
 32 26  1  0  0  0
 26 27  2  0  0  0
 26 28  2  0  0  0
 26 24  1  0  0  0
 24  1  1  0  0  0
  1  2  1  0  0  0
  2  3  1  0  0  0
  3  4  1  0  0  0
  4  5  1  0  0  0
  5  6  1  0  0  0
  6  7  1  0  0  0
  4  8  1  0  0  0
  8  9  1  0  0  0
  9 10  2  0  0  0
  9 12  1  0  0  0
 12 13  2  0  0  0
 13 14  1  0  0  0
 14 15  2  0  0  0
 15 16  1  0  0  0
 16 17  2  0  0  0
 15 18  1  0  0  0
 18 19  2  0  0  0
 19 20  1  0  0  0
 20 21  2  0  0  0
 21 22  1  0  0  0
 22 23  2  0  0  0
 34 29  1  0  0  0
  7  1  1  0  0  0
 17 12  1  0  0  0
 23 18  1  0  0  0
  6  3  1  0  0  0
 24 25  1  0  0  0
  8 11  1  0  0  0
M  END
> <minimizedAffinity>
11.55970

> <CNNscore>
0.4950719476

> <CNNaffinity>
6.6659898758

> <CNN_VS>
3.3001446724

> <CNNaffinity_variance>
0.9377256632

$$$$
[H]c1c([H])c([H])c(-c2c([H])c([H])c(C(=O)N([H])[C@]3([H])C([H])([H])[C@@]4([H])O[C@@]([H])(N([H])S(=O)(=O)c5c([H])c([H])c(OC([H])([H])[H])c([H])c5[H])C([H])([H])[C@@]43[H])c([H])c2[H])c([H])c1[H]


 36 40  0  0  0  0  0  0  0  0999 V2000
   15.5294   23.8993   -1.5445 C   0  0  0  0  0  0  0  0  0  0  0  0
   13.9824   23.6329   -1.5256 C   0  0  0  0  0  0  0  0  0  0  0  0
   14.0596   22.4136   -0.7304 C   0  0  0  0  0  0  0  0  0  0  0  0
   13.2834   21.9415    0.3731 C   0  0  0  0  0  0  0  0  0  0  0  0
   14.6727   21.7773    1.0525 C   0  0  0  0  0  0  0  0  0  0  0  0
   14.9665   23.0272    0.3392 C   0  0  0  0  0  0  0  0  0  0  0  0
   16.0133   23.3391   -0.3693 O   0  0  0  0  0  0  0  0  0  0  0  0
   12.3756   22.7102    1.1344 N   0  0  0  0  0  0  0  0  0  0  0  0
   11.0214   22.7945    0.7452 C   0  0  0  0  0  0  0  0  0  0  0  0
   10.6425   22.1980   -0.2880 O   0  0  0  0  0  0  0  0  0  0  0  0
   12.6862   23.2274    2.0010 H   0  0  0  0  0  0  0  0  0  0  0  0
    9.9982   23.5435    1.4745 C   0  0  0  0  0  0  0  0  0  0  0  0
   10.3582   24.7098    2.1618 C   0  0  0  0  0  0  0  0  0  0  0  0
    9.4642   25.4731    2.8699 C   0  0  0  0  0  0  0  0  0  0  0  0
    8.1281   25.1169    2.9377 C   0  0  0  0  0  0  0  0  0  0  0  0
    7.7677   23.9702    2.2625 C   0  0  0  0  0  0  0  0  0  0  0  0
    8.6710   23.1925    1.5442 C   0  0  0  0  0  0  0  0  0  0  0  0
    7.1556   25.8966    3.6929 C   0  0  0  0  0  0  0  0  0  0  0  0
    6.9553   27.2350    3.4866 C   0  0  0  0  0  0  0  0  0  0  0  0
    6.0112   27.8610    4.2480 C   0  0  0  0  0  0  0  0  0  0  0  0
    5.2481   27.2391    5.2066 C   0  0  0  0  0  0  0  0  0  0  0  0
    5.4448   25.8694    5.4250 C   0  0  0  0  0  0  0  0  0  0  0  0
    6.3985   25.2517    4.6526 C   0  0  0  0  0  0  0  0  0  0  0  0
   16.1185   23.3634   -2.6956 N   0  0  0  0  0  0  0  0  0  0  0  0
   16.3168   22.3707   -2.5715 H   0  0  0  0  0  0  0  0  0  0  0  0
   15.6292   23.7565   -4.2297 S   0  0  0  0  0  0  0  0  0  0  0  0
   14.7661   22.6044   -4.7765 O   0  0  0  0  0  0  0  0  0  0  0  0
   16.7388   24.0252   -5.2090 O   0  0  0  0  0  0  0  0  0  0  0  0
   12.8162   27.3444   -4.0783 C   0  0  0  0  0  0  0  0  0  0  0  0
   13.7977   27.2627   -5.0852 C   0  0  0  0  0  0  0  0  0  0  0  0
   14.6619   26.1879   -5.1353 C   0  0  0  0  0  0  0  0  0  0  0  0
   14.6208   25.1633   -4.2385 C   0  0  0  0  0  0  0  0  0  0  0  0
   13.6441   25.2429   -3.2312 C   0  0  0  0  0  0  0  0  0  0  0  0
   12.7795   26.3165   -3.1784 C   0  0  0  0  0  0  0  0  0  0  0  0
   12.4363   29.6873   -3.6350 C   0  0  0  0  0  0  0  0  0  0  0  0
   11.9616   28.4275   -4.0554 O   0  0  0  0  0  0  0  0  0  0  0  0
 35 36  1  0  0  0
 36 29  1  0  0  0
 29 30  2  0  0  0
 30 31  1  0  0  0
 31 32  2  0  0  0
 32 33  1  0  0  0
 33 34  2  0  0  0
 32 26  1  0  0  0
 26 27  2  0  0  0
 26 28  2  0  0  0
 26 24  1  0  0  0
 24  1  1  0  0  0
  1  2  1  0  0  0
  2  3  1  0  0  0
  3  4  1  0  0  0
  4  5  1  0  0  0
  5  6  1  0  0  0
  6  7  1  0  0  0
  4  8  1  0  0  0
  8  9  1  0  0  0
  9 10  2  0  0  0
  9 12  1  0  0  0
 12 13  2  0  0  0
 13 14  1  0  0  0
 14 15  2  0  0  0
 15 16  1  0  0  0
 16 17  2  0  0  0
 15 18  1  0  0  0
 18 19  2  0  0  0
 19 20  1  0  0  0
 20 21  2  0  0  0
 21 22  1  0  0  0
 22 23  2  0  0  0
 34 29  1  0  0  0
  7  1  1  0  0  0
 17 12  1  0  0  0
 23 18  1  0  0  0
  6  3  1  0  0  0
 24 25  1  0  0  0
  8 11  1  0  0  0
M  END
> <minimizedAffinity>
-0.90346

> <CNNscore>
0.4840840697

> <CNNaffinity>
6.8179998398

> <CNN_VS>
3.3004851341

> <CNNaffinity_variance>
0.4680439830

$$$$
[H]c1c([H])c([H])c(-c2c([H])c([H])c(C(=O)N([H])[C@]3([H])C([H])([H])[C@@]4([H])O[C@@]([H])(N([H])S(=O)(=O)c5c([H])c([H])c(OC([H])([H])[H])c([H])c5[H])C([H])([H])[C@@]43[H])c([H])c2[H])c([H])c1[H]


 36 40  0  0  0  0  0  0  0  0999 V2000
   14.8136   25.0434   -3.7590 C   0  0  0  0  0  0  0  0  0  0  0  0
   14.9013   23.5090   -3.4385 C   0  0  0  0  0  0  0  0  0  0  0  0
   15.1201   23.6769   -2.0072 C   0  0  0  0  0  0  0  0  0  0  0  0
   14.5718   23.0048   -0.8712 C   0  0  0  0  0  0  0  0  0  0  0  0
   14.2408   24.4487   -0.3976 C   0  0  0  0  0  0  0  0  0  0  0  0
   13.9584   24.6566   -1.8240 C   0  0  0  0  0  0  0  0  0  0  0  0
   14.3312   25.6344   -2.5984 O   0  0  0  0  0  0  0  0  0  0  0  0
   13.4494   22.1475   -0.8798 N   0  0  0  0  0  0  0  0  0  0  0  0
   12.2389   22.5623   -0.2842 C   0  0  0  0  0  0  0  0  0  0  0  0
   12.1796   23.6855    0.2652 O   0  0  0  0  0  0  0  0  0  0  0  0
   13.4912   21.1931   -1.3296 H   0  0  0  0  0  0  0  0  0  0  0  0
   11.0149   21.7616   -0.2585 C   0  0  0  0  0  0  0  0  0  0  0  0
   11.0292   20.4657   -0.7903 C   0  0  0  0  0  0  0  0  0  0  0  0
    9.9286   19.6462   -0.8068 C   0  0  0  0  0  0  0  0  0  0  0  0
    8.7207   20.0735   -0.2822 C   0  0  0  0  0  0  0  0  0  0  0  0
    8.7009   21.3479    0.2434 C   0  0  0  0  0  0  0  0  0  0  0  0
    9.8141   22.1828    0.2612 C   0  0  0  0  0  0  0  0  0  0  0  0
    7.5292   19.2344   -0.2972 C   0  0  0  0  0  0  0  0  0  0  0  0
    6.2977   19.6859    0.0946 C   0  0  0  0  0  0  0  0  0  0  0  0
    5.2508   18.8125    0.0306 C   0  0  0  0  0  0  0  0  0  0  0  0
    5.3488   17.5117   -0.4010 C   0  0  0  0  0  0  0  0  0  0  0  0
    6.6046   17.0401   -0.8049 C   0  0  0  0  0  0  0  0  0  0  0  0
    7.6498   17.9290   -0.7347 C   0  0  0  0  0  0  0  0  0  0  0  0
   16.0571   25.5459   -4.1594 N   0  0  0  0  0  0  0  0  0  0  0  0
   16.6330   24.8067   -4.5622 H   0  0  0  0  0  0  0  0  0  0  0  0
   16.2422   27.0139   -4.9065 S   0  0  0  0  0  0  0  0  0  0  0  0
   16.1845   26.7966   -6.4299 O   0  0  0  0  0  0  0  0  0  0  0  0
   17.5149   27.7456   -4.5788 O   0  0  0  0  0  0  0  0  0  0  0  0
   12.6584   29.6711   -3.9555 C   0  0  0  0  0  0  0  0  0  0  0  0
   13.9450   30.2355   -4.0562 C   0  0  0  0  0  0  0  0  0  0  0  0
   15.0388   29.4408   -4.3325 C   0  0  0  0  0  0  0  0  0  0  0  0
   14.9462   28.0949   -4.5222 C   0  0  0  0  0  0  0  0  0  0  0  0
   13.6643   27.5282   -4.4201 C   0  0  0  0  0  0  0  0  0  0  0  0
   12.5693   28.3202   -4.1433 C   0  0  0  0  0  0  0  0  0  0  0  0
   10.3660   30.3032   -4.3740 C   0  0  0  0  0  0  0  0  0  0  0  0
   11.5816   30.4900   -3.6838 O   0  0  0  0  0  0  0  0  0  0  0  0
 35 36  1  0  0  0
 36 29  1  0  0  0
 29 30  2  0  0  0
 30 31  1  0  0  0
 31 32  2  0  0  0
 32 33  1  0  0  0
 33 34  2  0  0  0
 32 26  1  0  0  0
 26 27  2  0  0  0
 26 28  2  0  0  0
 26 24  1  0  0  0
 24  1  1  0  0  0
  1  2  1  0  0  0
  2  3  1  0  0  0
  3  4  1  0  0  0
  4  5  1  0  0  0
  5  6  1  0  0  0
  6  7  1  0  0  0
  4  8  1  0  0  0
  8  9  1  0  0  0
  9 10  2  0  0  0
  9 12  1  0  0  0
 12 13  2  0  0  0
 13 14  1  0  0  0
 14 15  2  0  0  0
 15 16  1  0  0  0
 16 17  2  0  0  0
 15 18  1  0  0  0
 18 19  2  0  0  0
 19 20  1  0  0  0
 20 21  2  0  0  0
 21 22  1  0  0  0
 22 23  2  0  0  0
 34 29  1  0  0  0
  7  1  1  0  0  0
 17 12  1  0  0  0
 23 18  1  0  0  0
  6  3  1  0  0  0
 24 25  1  0  0  0
  8 11  1  0  0  0
M  END
> <minimizedAffinity>
6.07554

> <CNNscore>
0.4834491909

> <CNNaffinity>
6.8229398727

> <CNN_VS>
3.2985446453

> <CNNaffinity_variance>
0.3984116316

$$$$
[H]C([H])([H])N(C([H])([H])[H])C([H])([H])C([H])([H])C([H])([H])[H]


  6  5  0  0  0  0  0  0  0  0999 V2000
   13.1164   26.4885   -3.3656 C   0  0  0  0  0  0  0  0  0  0  0  0
   13.0514   25.2956   -2.5959 N   0  0  0  0  0  0  0  0  0  0  0  0
   12.2869   25.3761   -1.4032 C   0  0  0  0  0  0  0  0  0  0  0  0
   14.2022   24.4831   -2.5965 C   0  0  0  0  0  0  0  0  0  0  0  0
   15.3846   25.0286   -3.3425 C   0  0  0  0  0  0  0  0  0  0  0  0
   15.6407   24.1002   -4.5360 C   0  0  0  0  0  0  0  0  0  0  0  0
  1  2  1  0  0  0
  2  3  1  0  0  0
  2  4  1  0  0  0
  4  5  1  0  0  0
  5  6  1  0  0  0
M  END
> <minimizedAffinity>
-2.89259

> <CNNscore>
0.6325216293

> <CNNaffinity>
3.5464096069

> <CNN_VS>
2.2431807518

> <CNNaffinity_variance>
0.2763837278

$$$$
[H]C([H])([H])N(C([H])([H])[H])C([H])([H])C([H])([H])C([H])([H])[H]


  6  5  0  0  0  0  0  0  0  0999 V2000
   14.2291   24.6816   -2.8984 C   0  0  0  0  0  0  0  0  0  0  0  0
   14.3785   25.7671   -3.8035 N   0  0  0  0  0  0  0  0  0  0  0  0
   13.2609   26.6347   -3.9106 C   0  0  0  0  0  0  0  0  0  0  0  0
   15.1447   25.5211   -4.9597 C   0  0  0  0  0  0  0  0  0  0  0  0
   15.0784   26.5785   -6.0226 C   0  0  0  0  0  0  0  0  0  0  0  0
   15.6316   25.9642   -7.3143 C   0  0  0  0  0  0  0  0  0  0  0  0
  1  2  1  0  0  0
  2  3  1  0  0  0
  2  4  1  0  0  0
  4  5  1  0  0  0
  5  6  1  0  0  0
M  END
> <minimizedAffinity>
-3.51121

> <CNNscore>
0.5743049979

> <CNNaffinity>
3.4768860340

> <CNN_VS>
1.9967930317

> <CNNaffinity_variance>
0.3942691684

$$$$
[H]C([H])([H])N(C([H])([H])[H])C([H])([H])C([H])([H])C([H])([H])[H]


  6  5  0  0  0  0  0  0  0  0999 V2000
   15.2076   24.0647   -4.0259 C   0  0  0  0  0  0  0  0  0  0  0  0
   14.9819   25.3983   -3.5898 N   0  0  0  0  0  0  0  0  0  0  0  0
   13.8838   26.0636   -4.1939 C   0  0  0  0  0  0  0  0  0  0  0  0
   16.1244   26.1562   -3.2662 C   0  0  0  0  0  0  0  0  0  0  0  0
   16.3558   27.3776   -4.1070 C   0  0  0  0  0  0  0  0  0  0  0  0
   17.6829   27.9995   -3.6552 C   0  0  0  0  0  0  0  0  0  0  0  0
  1  2  1  0  0  0
  2  3  1  0  0  0
  2  4  1  0  0  0
  4  5  1  0  0  0
  5  6  1  0  0  0
M  END
> <minimizedAffinity>
-3.16716

> <CNNscore>
0.5604916215

> <CNNaffinity>
3.5061478615

> <CNN_VS>
1.9651664495

> <CNNaffinity_variance>
0.4042274356

$$$$
[H]C([H])([H])N(C([H])([H])[H])C([H])([H])C([H])([H])C([H])([H])[H]


  6  5  0  0  0  0  0  0  0  0999 V2000
   13.3463   26.6154   -3.9221 C   0  0  0  0  0  0  0  0  0  0  0  0
   14.1564   25.4759   -3.6669 N   0  0  0  0  0  0  0  0  0  0  0  0
   13.7929   24.7068   -2.5312 C   0  0  0  0  0  0  0  0  0  0  0  0
   15.5243   25.5931   -3.9826 C   0  0  0  0  0  0  0  0  0  0  0  0
   16.4064   26.1009   -2.8798 C   0  0  0  0  0  0  0  0  0  0  0  0
   17.0164   27.4254   -3.3549 C   0  0  0  0  0  0  0  0  0  0  0  0
  1  2  1  0  0  0
  2  3  1  0  0  0
  2  4  1  0  0  0
  4  5  1  0  0  0
  5  6  1  0  0  0
M  END
> <minimizedAffinity>
-3.23579

> <CNNscore>
0.5437746644

> <CNNaffinity>
3.3570601940

> <CNN_VS>
1.8254842758

> <CNNaffinity_variance>
0.4239745140

$$$$
[H]C([H])([H])N(C([H])([H])[H])C([H])([H])C([H])([H])C([H])([H])[H]


  6  5  0  0  0  0  0  0  0  0999 V2000
   12.3660   25.3446   -1.6527 C   0  0  0  0  0  0  0  0  0  0  0  0
   13.3294   24.5195   -2.2937 N   0  0  0  0  0  0  0  0  0  0  0  0
   13.8229   23.4377   -1.5193 C   0  0  0  0  0  0  0  0  0  0  0  0
   14.2135   25.1600   -3.1840 C   0  0  0  0  0  0  0  0  0  0  0  0
   13.6273   26.2821   -3.9898 C   0  0  0  0  0  0  0  0  0  0  0  0
   14.5557   26.5191   -5.1873 C   0  0  0  0  0  0  0  0  0  0  0  0
  1  2  1  0  0  0
  2  3  1  0  0  0
  2  4  1  0  0  0
  4  5  1  0  0  0
  5  6  1  0  0  0
M  END
> <minimizedAffinity>
-3.12977

> <CNNscore>
0.5293585658

> <CNNaffinity>
3.3912796974

> <CNN_VS>
1.7952029705

> <CNNaffinity_variance>
0.2517287135

$$$$
[H]C([H])([H])N(C([H])([H])[H])C([H])([H])C([H])([H])C([H])([H])[H]


  6  5  0  0  0  0  0  0  0  0999 V2000
   14.5105   23.1173    0.0034 C   0  0  0  0  0  0  0  0  0  0  0  0
   14.0137   21.9574    0.6574 N   0  0  0  0  0  0  0  0  0  0  0  0
   14.8478   20.8114    0.5915 C   0  0  0  0  0  0  0  0  0  0  0  0
   12.6180   21.7686    0.6291 C   0  0  0  0  0  0  0  0  0  0  0  0
   12.0799   21.0660   -0.5830 C   0  0  0  0  0  0  0  0  0  0  0  0
   10.9750   20.1146   -0.1076 C   0  0  0  0  0  0  0  0  0  0  0  0
  1  2  1  0  0  0
  2  3  1  0  0  0
  2  4  1  0  0  0
  4  5  1  0  0  0
  5  6  1  0  0  0
M  END
> <minimizedAffinity>
-2.48196

> <CNNscore>
0.5161337852

> <CNNaffinity>
3.3604636192

> <CNN_VS>
1.7344487906

> <CNNaffinity_variance>
0.5119544864

$$$$
[H]C([H])([H])N(C([H])([H])[H])C([H])([H])C([H])([H])C([H])([H])[H]


  6  5  0  0  0  0  0  0  0  0999 V2000
   15.0306   20.8017    0.5859 C   0  0  0  0  0  0  0  0  0  0  0  0
   14.3019   21.4305   -0.4598 N   0  0  0  0  0  0  0  0  0  0  0  0
   14.0726   22.8214   -0.2973 C   0  0  0  0  0  0  0  0  0  0  0  0
   13.3015   20.6582   -1.0820 C   0  0  0  0  0  0  0  0  0  0  0  0
   11.9101   21.2164   -1.0129 C   0  0  0  0  0  0  0  0  0  0  0  0
   11.0629   20.2336   -0.1954 C   0  0  0  0  0  0  0  0  0  0  0  0
  1  2  1  0  0  0
  2  3  1  0  0  0
  2  4  1  0  0  0
  4  5  1  0  0  0
  5  6  1  0  0  0
M  END
> <minimizedAffinity>
-2.45740

> <CNNscore>
0.5013129711

> <CNNaffinity>
3.3904354572

> <CNN_VS>
1.6996692419

> <CNNaffinity_variance>
0.4343362451

$$$$
[H]C([H])([H])N(C([H])([H])[H])C([H])([H])C([H])([H])C([H])([H])[H]


  6  5  0  0  0  0  0  0  0  0999 V2000
   13.4915   24.3289    0.4115 C   0  0  0  0  0  0  0  0  0  0  0  0
   13.2996   24.4004   -0.9948 N   0  0  0  0  0  0  0  0  0  0  0  0
   12.1176   25.0605   -1.4198 C   0  0  0  0  0  0  0  0  0  0  0  0
   13.7576   23.3021   -1.7488 C   0  0  0  0  0  0  0  0  0  0  0  0
   14.2849   22.1420   -0.9561 C   0  0  0  0  0  0  0  0  0  0  0  0
   13.4869   20.9012   -1.3750 C   0  0  0  0  0  0  0  0  0  0  0  0
  1  2  1  0  0  0
  2  3  1  0  0  0
  2  4  1  0  0  0
  4  5  1  0  0  0
  5  6  1  0  0  0
M  END
> <minimizedAffinity>
-2.46541

> <CNNscore>
0.5009527802

> <CNNaffinity>
3.4087893963

> <CNN_VS>
1.7076425552

> <CNNaffinity_variance>
0.3271907568

$$$$
[H]C([H])([H])N(C([H])([H])[H])C([H])([H])C([H])([H])C([H])([H])[H]


  6  5  0  0  0  0  0  0  0  0999 V2000
   14.8595   26.6143   -5.9189 C   0  0  0  0  0  0  0  0  0  0  0  0
   14.6587   26.2430   -4.5618 N   0  0  0  0  0  0  0  0  0  0  0  0
   13.3991   26.5928   -4.0101 C   0  0  0  0  0  0  0  0  0  0  0  0
   15.7897   26.2889   -3.7233 C   0  0  0  0  0  0  0  0  0  0  0  0
   16.1317   25.0081   -3.0198 C   0  0  0  0  0  0  0  0  0  0  0  0
   16.6481   25.3768   -1.6235 C   0  0  0  0  0  0  0  0  0  0  0  0
  1  2  1  0  0  0
  2  3  1  0  0  0
  2  4  1  0  0  0
  4  5  1  0  0  0
  5  6  1  0  0  0
M  END
> <minimizedAffinity>
-3.23523

> <CNNscore>
0.4887205064

> <CNNaffinity>
3.3996422291

> <CNN_VS>
1.6614748240

> <CNNaffinity_variance>
0.4439961314

$$$$
[H]c1c([C@@]([H])(N([H])C(=O)C([H])([H])C([H])([H])[H])C([H])([H])[H])c([H])c2c(nc(C([H])([H])[H])c3c([H])c(OC([H])([H])[H])c([H])c([H])c32)c1[H]


 25 27  0  0  0  0  0  0  0  0999 V2000
   13.9418   24.6333   -1.7198 C   0  0  0  0  0  0  0  0  0  0  0  0
   14.8876   24.5386   -0.7069 C   0  0  0  0  0  0  0  0  0  0  0  0
   14.6983   23.5841    0.2673 C   0  0  0  0  0  0  0  0  0  0  0  0
   13.6154   22.7253    0.2769 C   0  0  0  0  0  0  0  0  0  0  0  0
   13.5170   21.8147    1.2806 N   0  0  0  0  0  0  0  0  0  0  0  0
   12.4934   20.9594    1.3382 C   0  0  0  0  0  0  0  0  0  0  0  0
   12.3661   19.9442    2.4400 C   0  0  0  0  0  0  0  0  0  0  0  0
   11.5546   21.0488    0.3380 C   0  0  0  0  0  0  0  0  0  0  0  0
   10.4949   20.1676    0.3870 C   0  0  0  0  0  0  0  0  0  0  0  0
    9.5139   20.1890   -0.5761 C   0  0  0  0  0  0  0  0  0  0  0  0
    9.5981   21.1016   -1.5951 C   0  0  0  0  0  0  0  0  0  0  0  0
   10.6622   22.0165   -1.6807 C   0  0  0  0  0  0  0  0  0  0  0  0
   11.6147   21.9655   -0.7094 C   0  0  0  0  0  0  0  0  0  0  0  0
   12.6895   22.8411   -0.7426 C   0  0  0  0  0  0  0  0  0  0  0  0
   12.8471   23.7983   -1.7503 C   0  0  0  0  0  0  0  0  0  0  0  0
   14.1167   25.6441   -2.7765 C   0  0  0  0  0  0  0  0  0  0  0  0
   12.7939   26.3266   -3.0515 C   0  0  0  0  0  0  0  0  0  0  0  0
   15.0339   25.9684   -5.0277 C   0  0  0  0  0  0  0  0  0  0  0  0
   15.0607   27.2186   -4.8696 O   0  0  0  0  0  0  0  0  0  0  0  0
   14.5705   25.0901   -4.0192 N   0  0  0  0  0  0  0  0  0  0  0  0
   14.5789   24.0742   -4.2259 H   0  0  0  0  0  0  0  0  0  0  0  0
   15.8452   26.5552   -7.2966 C   0  0  0  0  0  0  0  0  0  0  0  0
   15.5157   25.4475   -6.3354 C   0  0  0  0  0  0  0  0  0  0  0  0
    8.4439   19.2826   -0.5073 O   0  0  0  0  0  0  0  0  0  0  0  0
    7.3481   19.4500   -1.3634 C   0  0  0  0  0  0  0  0  0  0  0  0
 22 23  1  0  0  0
 23 18  1  0  0  0
 18 19  2  0  0  0
 18 20  1  0  0  0
 20 16  1  0  0  0
 16 17  1  0  0  0
 16  1  1  0  0  0
  1  2  2  0  0  0
  2  3  1  0  0  0
  3  4  2  0  0  0
  4  5  1  0  0  0
  5  6  2  0  0  0
  6  7  1  0  0  0
  6  8  1  0  0  0
  8  9  2  0  0  0
  9 10  1  0  0  0
 10 24  1  0  0  0
 24 25  1  0  0  0
 10 11  2  0  0  0
 11 12  1  0  0  0
 12 13  2  0  0  0
 13 14  1  0  0  0
 14 15  2  0  0  0
 15  1  1  0  0  0
 14  4  1  0  0  0
 13  8  1  0  0  0
 20 21  1  0  0  0
M  END
> <minimizedAffinity>
-8.17543

> <CNNscore>
0.6610555053

> <CNNaffinity>
7.1228837967

> <CNN_VS>
4.7086215019

> <CNNaffinity_variance>
0.1771337092

$$$$
[H]c1c([C@@]([H])(N([H])C(=O)C([H])([H])C([H])([H])[H])C([H])([H])[H])c([H])c2c(nc(C([H])([H])[H])c3c([H])c(OC([H])([H])[H])c([H])c([H])c32)c1[H]


 25 27  0  0  0  0  0  0  0  0999 V2000
   14.4322   26.1776   -3.9181 C   0  0  0  0  0  0  0  0  0  0  0  0
   13.1816   25.5840   -3.8029 C   0  0  0  0  0  0  0  0  0  0  0  0
   12.9746   24.7096   -2.7595 C   0  0  0  0  0  0  0  0  0  0  0  0
   13.9519   24.4026   -1.8317 C   0  0  0  0  0  0  0  0  0  0  0  0
   13.6509   23.5288   -0.8356 N   0  0  0  0  0  0  0  0  0  0  0  0
   14.5558   23.1982    0.0887 C   0  0  0  0  0  0  0  0  0  0  0  0
   14.2428   22.2336    1.1990 C   0  0  0  0  0  0  0  0  0  0  0  0
   15.7950   23.7830   -0.0205 C   0  0  0  0  0  0  0  0  0  0  0  0
   16.7358   23.4500    0.9313 C   0  0  0  0  0  0  0  0  0  0  0  0
   17.9987   23.9925    0.8956 C   0  0  0  0  0  0  0  0  0  0  0  0
   18.3185   24.8752   -0.1028 C   0  0  0  0  0  0  0  0  0  0  0  0
   17.3880   25.2402   -1.0915 C   0  0  0  0  0  0  0  0  0  0  0  0
   16.1477   24.6831   -1.0238 C   0  0  0  0  0  0  0  0  0  0  0  0
   15.1870   25.0073   -1.9697 C   0  0  0  0  0  0  0  0  0  0  0  0
   15.4358   25.9012   -3.0165 C   0  0  0  0  0  0  0  0  0  0  0  0
   14.6844   27.1176   -5.0234 C   0  0  0  0  0  0  0  0  0  0  0  0
   14.2425   26.4957   -6.3307 C   0  0  0  0  0  0  0  0  0  0  0  0
   16.7091   28.1662   -4.1206 C   0  0  0  0  0  0  0  0  0  0  0  0
   16.1029   28.5004   -3.0672 O   0  0  0  0  0  0  0  0  0  0  0  0
   16.0693   27.4615   -5.1681 N   0  0  0  0  0  0  0  0  0  0  0  0
   16.6359   27.2232   -6.0029 H   0  0  0  0  0  0  0  0  0  0  0  0
   18.9869   27.4348   -4.7743 C   0  0  0  0  0  0  0  0  0  0  0  0
   18.1437   28.5481   -4.2184 C   0  0  0  0  0  0  0  0  0  0  0  0
   18.9411   23.6400    1.8748 O   0  0  0  0  0  0  0  0  0  0  0  0
   19.5486   24.6472    2.6351 C   0  0  0  0  0  0  0  0  0  0  0  0
 22 23  1  0  0  0
 23 18  1  0  0  0
 18 19  2  0  0  0
 18 20  1  0  0  0
 20 16  1  0  0  0
 16 17  1  0  0  0
 16  1  1  0  0  0
  1  2  2  0  0  0
  2  3  1  0  0  0
  3  4  2  0  0  0
  4  5  1  0  0  0
  5  6  2  0  0  0
  6  7  1  0  0  0
  6  8  1  0  0  0
  8  9  2  0  0  0
  9 10  1  0  0  0
 10 24  1  0  0  0
 24 25  1  0  0  0
 10 11  2  0  0  0
 11 12  1  0  0  0
 12 13  2  0  0  0
 13 14  1  0  0  0
 14 15  2  0  0  0
 15  1  1  0  0  0
 14  4  1  0  0  0
 13  8  1  0  0  0
 20 21  1  0  0  0
M  END
> <minimizedAffinity>
8.11724

> <CNNscore>
0.5888811350

> <CNNaffinity>
6.9130411148

> <CNN_VS>
4.0709595680

> <CNNaffinity_variance>
0.7924103737

$$$$
[H]c1c([C@@]([H])(N([H])C(=O)C([H])([H])C([H])([H])[H])C([H])([H])[H])c([H])c2c(nc(C([H])([H])[H])c3c([H])c(OC([H])([H])[H])c([H])c([H])c32)c1[H]


 25 27  0  0  0  0  0  0  0  0999 V2000
   13.9744   22.2811   -2.2749 C   0  0  0  0  0  0  0  0  0  0  0  0
   14.9471   21.7703   -3.1249 C   0  0  0  0  0  0  0  0  0  0  0  0
   15.4664   22.6052   -4.0889 C   0  0  0  0  0  0  0  0  0  0  0  0
   15.0623   23.9180   -4.2424 C   0  0  0  0  0  0  0  0  0  0  0  0
   15.6356   24.6642   -5.2226 N   0  0  0  0  0  0  0  0  0  0  0  0
   15.2849   25.9380   -5.4143 C   0  0  0  0  0  0  0  0  0  0  0  0
   15.9073   26.7808   -6.4929 C   0  0  0  0  0  0  0  0  0  0  0  0
   14.3229   26.4485   -4.5756 C   0  0  0  0  0  0  0  0  0  0  0  0
   13.9558   27.7646   -4.7637 C   0  0  0  0  0  0  0  0  0  0  0  0
   13.0027   28.3524   -3.9661 C   0  0  0  0  0  0  0  0  0  0  0  0
   12.4143   27.6134   -2.9731 C   0  0  0  0  0  0  0  0  0  0  0  0
   12.7608   26.2694   -2.7491 C   0  0  0  0  0  0  0  0  0  0  0  0
   13.7085   25.7213   -3.5583 C   0  0  0  0  0  0  0  0  0  0  0  0
   14.0932   24.4007   -3.3833 C   0  0  0  0  0  0  0  0  0  0  0  0
   13.5416   23.5832   -2.3913 C   0  0  0  0  0  0  0  0  0  0  0  0
   13.3999   21.4127   -1.2334 C   0  0  0  0  0  0  0  0  0  0  0  0
   11.9499   21.7823   -1.0058 C   0  0  0  0  0  0  0  0  0  0  0  0
   15.2059   20.7255    0.2768 C   0  0  0  0  0  0  0  0  0  0  0  0
   15.6518   19.9128   -0.5772 O   0  0  0  0  0  0  0  0  0  0  0  0
   14.0670   21.5292    0.0310 N   0  0  0  0  0  0  0  0  0  0  0  0
   13.7617   22.1728    0.7841 H   0  0  0  0  0  0  0  0  0  0  0  0
   16.6578   22.1145    1.7304 C   0  0  0  0  0  0  0  0  0  0  0  0
   15.9357   20.8059    1.5708 C   0  0  0  0  0  0  0  0  0  0  0  0
   12.6441   29.6938   -4.1746 O   0  0  0  0  0  0  0  0  0  0  0  0
   11.5364   30.2201   -3.4981 C   0  0  0  0  0  0  0  0  0  0  0  0
 22 23  1  0  0  0
 23 18  1  0  0  0
 18 19  2  0  0  0
 18 20  1  0  0  0
 20 16  1  0  0  0
 16 17  1  0  0  0
 16  1  1  0  0  0
  1  2  2  0  0  0
  2  3  1  0  0  0
  3  4  2  0  0  0
  4  5  1  0  0  0
  5  6  2  0  0  0
  6  7  1  0  0  0
  6  8  1  0  0  0
  8  9  2  0  0  0
  9 10  1  0  0  0
 10 24  1  0  0  0
 24 25  1  0  0  0
 10 11  2  0  0  0
 11 12  1  0  0  0
 12 13  2  0  0  0
 13 14  1  0  0  0
 14 15  2  0  0  0
 15  1  1  0  0  0
 14  4  1  0  0  0
 13  8  1  0  0  0
 20 21  1  0  0  0
M  END
> <minimizedAffinity>
4.68654

> <CNNscore>
0.5638152957

> <CNNaffinity>
6.6206130981

> <CNN_VS>
3.7328028679

> <CNNaffinity_variance>
0.7928417921

$$$$
[H]c1c([C@@]([H])(N([H])C(=O)C([H])([H])C([H])([H])[H])C([H])([H])[H])c([H])c2c(nc(C([H])([H])[H])c3c([H])c(OC([H])([H])[H])c([H])c([H])c32)c1[H]


 25 27  0  0  0  0  0  0  0  0999 V2000
   14.4794   22.9686   -0.5030 C   0  0  0  0  0  0  0  0  0  0  0  0
   15.1748   23.6282    0.5024 C   0  0  0  0  0  0  0  0  0  0  0  0
   15.9218   24.7316    0.1552 C   0  0  0  0  0  0  0  0  0  0  0  0
   16.0059   25.2040   -1.1409 C   0  0  0  0  0  0  0  0  0  0  0  0
   16.7678   26.3024   -1.3842 N   0  0  0  0  0  0  0  0  0  0  0  0
   16.8830   26.8029   -2.6165 C   0  0  0  0  0  0  0  0  0  0  0  0
   17.7208   28.0174   -2.9067 C   0  0  0  0  0  0  0  0  0  0  0  0
   16.1966   26.1541   -3.6152 C   0  0  0  0  0  0  0  0  0  0  0  0
   16.3068   26.6653   -4.8914 C   0  0  0  0  0  0  0  0  0  0  0  0
   15.6503   26.0772   -5.9465 C   0  0  0  0  0  0  0  0  0  0  0  0
   14.8779   24.9682   -5.7182 C   0  0  0  0  0  0  0  0  0  0  0  0
   14.7398   24.4168   -4.4324 C   0  0  0  0  0  0  0  0  0  0  0  0
   15.4044   25.0261   -3.4124 C   0  0  0  0  0  0  0  0  0  0  0  0
   15.3040   24.5291   -2.1218 C   0  0  0  0  0  0  0  0  0  0  0  0
   14.5340   23.4041   -1.8083 C   0  0  0  0  0  0  0  0  0  0  0  0
   13.6713   21.7853   -0.1631 C   0  0  0  0  0  0  0  0  0  0  0  0
   13.7567   20.7718   -1.2841 C   0  0  0  0  0  0  0  0  0  0  0  0
   11.7486   22.0399    1.3379 C   0  0  0  0  0  0  0  0  0  0  0  0
   12.4535   21.7449    2.3403 O   0  0  0  0  0  0  0  0  0  0  0  0
   12.2817   22.0855    0.0276 N   0  0  0  0  0  0  0  0  0  0  0  0
   11.6372   22.3357   -0.7449 H   0  0  0  0  0  0  0  0  0  0  0  0
    9.7853   23.3944    0.6585 C   0  0  0  0  0  0  0  0  0  0  0  0
   10.3143   22.3421    1.5925 C   0  0  0  0  0  0  0  0  0  0  0  0
   15.7760   26.6142   -7.2377 O   0  0  0  0  0  0  0  0  0  0  0  0
   15.7021   25.7600   -8.3452 C   0  0  0  0  0  0  0  0  0  0  0  0
 22 23  1  0  0  0
 23 18  1  0  0  0
 18 19  2  0  0  0
 18 20  1  0  0  0
 20 16  1  0  0  0
 16 17  1  0  0  0
 16  1  1  0  0  0
  1  2  2  0  0  0
  2  3  1  0  0  0
  3  4  2  0  0  0
  4  5  1  0  0  0
  5  6  2  0  0  0
  6  7  1  0  0  0
  6  8  1  0  0  0
  8  9  2  0  0  0
  9 10  1  0  0  0
 10 24  1  0  0  0
 24 25  1  0  0  0
 10 11  2  0  0  0
 11 12  1  0  0  0
 12 13  2  0  0  0
 13 14  1  0  0  0
 14 15  2  0  0  0
 15  1  1  0  0  0
 14  4  1  0  0  0
 13  8  1  0  0  0
 20 21  1  0  0  0
M  END
> <minimizedAffinity>
-6.43239

> <CNNscore>
0.5589918494

> <CNNaffinity>
7.1933488846

> <CNN_VS>
4.0210232735

> <CNNaffinity_variance>
0.3853809237

$$$$
[H]c1c([C@@]([H])(N([H])C(=O)C([H])([H])C([H])([H])[H])C([H])([H])[H])c([H])c2c(nc(C([H])([H])[H])c3c([H])c(OC([H])([H])[H])c([H])c([H])c32)c1[H]


 25 27  0  0  0  0  0  0  0  0999 V2000
   14.0902   22.1225   -1.2409 C   0  0  0  0  0  0  0  0  0  0  0  0
   15.0050   21.4713   -2.0584 C   0  0  0  0  0  0  0  0  0  0  0  0
   15.4243   22.1154   -3.2009 C   0  0  0  0  0  0  0  0  0  0  0  0
   14.9756   23.3715   -3.5625 C   0  0  0  0  0  0  0  0  0  0  0  0
   15.4497   23.9260   -4.7089 N   0  0  0  0  0  0  0  0  0  0  0  0
   15.0522   25.1374   -5.1050 C   0  0  0  0  0  0  0  0  0  0  0  0
   15.5649   25.7687   -6.3698 C   0  0  0  0  0  0  0  0  0  0  0  0
   14.1470   25.7864   -4.2994 C   0  0  0  0  0  0  0  0  0  0  0  0
   13.7324   27.0397   -4.6987 C   0  0  0  0  0  0  0  0  0  0  0  0
   12.8307   27.7571   -3.9485 C   0  0  0  0  0  0  0  0  0  0  0  0
   12.3424   27.2120   -2.7897 C   0  0  0  0  0  0  0  0  0  0  0  0
   12.7402   25.9377   -2.3485 C   0  0  0  0  0  0  0  0  0  0  0  0
   13.6344   25.2571   -3.1170 C   0  0  0  0  0  0  0  0  0  0  0  0
   14.0657   23.9970   -2.7312 C   0  0  0  0  0  0  0  0  0  0  0  0
   13.6160   23.3750   -1.5618 C   0  0  0  0  0  0  0  0  0  0  0  0
   13.6229   21.4596   -0.0116 C   0  0  0  0  0  0  0  0  0  0  0  0
   14.3340   20.1336    0.1530 C   0  0  0  0  0  0  0  0  0  0  0  0
   11.4396   21.5746    1.0995 C   0  0  0  0  0  0  0  0  0  0  0  0
   11.9444   22.1554    2.0979 O   0  0  0  0  0  0  0  0  0  0  0  0
   12.2153   21.1840   -0.0181 N   0  0  0  0  0  0  0  0  0  0  0  0
   11.7266   20.7103   -0.8000 H   0  0  0  0  0  0  0  0  0  0  0  0
    9.1861   22.4119    0.4902 C   0  0  0  0  0  0  0  0  0  0  0  0
    9.9757   21.3133    1.1452 C   0  0  0  0  0  0  0  0  0  0  0  0
   12.4223   29.0315   -4.3732 O   0  0  0  0  0  0  0  0  0  0  0  0
   11.9803   29.9612   -3.4234 C   0  0  0  0  0  0  0  0  0  0  0  0
 22 23  1  0  0  0
 23 18  1  0  0  0
 18 19  2  0  0  0
 18 20  1  0  0  0
 20 16  1  0  0  0
 16 17  1  0  0  0
 16  1  1  0  0  0
  1  2  2  0  0  0
  2  3  1  0  0  0
  3  4  2  0  0  0
  4  5  1  0  0  0
  5  6  2  0  0  0
  6  7  1  0  0  0
  6  8  1  0  0  0
  8  9  2  0  0  0
  9 10  1  0  0  0
 10 24  1  0  0  0
 24 25  1  0  0  0
 10 11  2  0  0  0
 11 12  1  0  0  0
 12 13  2  0  0  0
 13 14  1  0  0  0
 14 15  2  0  0  0
 15  1  1  0  0  0
 14  4  1  0  0  0
 13  8  1  0  0  0
 20 21  1  0  0  0
M  END
> <minimizedAffinity>
0.27538

> <CNNscore>
0.5314091444

> <CNNaffinity>
6.8292570114

> <CNN_VS>
3.6291296482

> <CNNaffinity_variance>
0.8263267279

$$$$
[H]c1c([C@@]([H])(N([H])C(=O)C([H])([H])C([H])([H])[H])C([H])([H])[H])c([H])c2c(nc(C([H])([H])[H])c3c([H])c(OC([H])([H])[H])c([H])c([H])c32)c1[H]


 25 27  0  0  0  0  0  0  0  0999 V2000
   14.6734   24.6393   -3.4409 C   0  0  0  0  0  0  0  0  0  0  0  0
   15.2541   23.4024   -3.6905 C   0  0  0  0  0  0  0  0  0  0  0  0
   14.9238   22.3539   -2.8613 C   0  0  0  0  0  0  0  0  0  0  0  0
   14.0461   22.4823   -1.8014 C   0  0  0  0  0  0  0  0  0  0  0  0
   13.7813   21.3881   -1.0406 N   0  0  0  0  0  0  0  0  0  0  0  0
   12.9399   21.4543   -0.0062 C   0  0  0  0  0  0  0  0  0  0  0  0
   12.6333   20.2553    0.8479 C   0  0  0  0  0  0  0  0  0  0  0  0
   12.3622   22.6761    0.2451 C   0  0  0  0  0  0  0  0  0  0  0  0
   11.4892   22.7541    1.3099 C   0  0  0  0  0  0  0  0  0  0  0  0
   10.8671   23.9384    1.6273 C   0  0  0  0  0  0  0  0  0  0  0  0
   11.1236   25.0516    0.8701 C   0  0  0  0  0  0  0  0  0  0  0  0
   12.0067   25.0133   -0.2231 C   0  0  0  0  0  0  0  0  0  0  0  0
   12.6040   23.8234   -0.5074 C   0  0  0  0  0  0  0  0  0  0  0  0
   13.4825   23.7239   -1.5756 C   0  0  0  0  0  0  0  0  0  0  0  0
   13.7932   24.8134   -2.3961 C   0  0  0  0  0  0  0  0  0  0  0  0
   15.0065   25.7802   -4.3105 C   0  0  0  0  0  0  0  0  0  0  0  0
   15.4225   25.2751   -5.6754 C   0  0  0  0  0  0  0  0  0  0  0  0
   16.2744   27.8794   -4.3291 C   0  0  0  0  0  0  0  0  0  0  0  0
   15.5211   28.3619   -5.2170 O   0  0  0  0  0  0  0  0  0  0  0  0
   16.0890   26.5763   -3.8087 N   0  0  0  0  0  0  0  0  0  0  0  0
   16.7514   26.2511   -3.0806 H   0  0  0  0  0  0  0  0  0  0  0  0
   18.7190   28.0722   -3.9587 C   0  0  0  0  0  0  0  0  0  0  0  0
   17.3811   28.7477   -3.8446 C   0  0  0  0  0  0  0  0  0  0  0  0
    9.9816   23.9955    2.7154 O   0  0  0  0  0  0  0  0  0  0  0  0
    9.3283   25.2002    3.0045 C   0  0  0  0  0  0  0  0  0  0  0  0
 22 23  1  0  0  0
 23 18  1  0  0  0
 18 19  2  0  0  0
 18 20  1  0  0  0
 20 16  1  0  0  0
 16 17  1  0  0  0
 16  1  1  0  0  0
  1  2  2  0  0  0
  2  3  1  0  0  0
  3  4  2  0  0  0
  4  5  1  0  0  0
  5  6  2  0  0  0
  6  7  1  0  0  0
  6  8  1  0  0  0
  8  9  2  0  0  0
  9 10  1  0  0  0
 10 24  1  0  0  0
 24 25  1  0  0  0
 10 11  2  0  0  0
 11 12  1  0  0  0
 12 13  2  0  0  0
 13 14  1  0  0  0
 14 15  2  0  0  0
 15  1  1  0  0  0
 14  4  1  0  0  0
 13  8  1  0  0  0
 20 21  1  0  0  0
M  END
> <minimizedAffinity>
-7.78563

> <CNNscore>
0.4771467149

> <CNNaffinity>
6.8443579674

> <CNN_VS>
3.2657628059

> <CNNaffinity_variance>
0.2584271431

$$$$
[H]c1c([C@@]([H])(N([H])C(=O)C([H])([H])C([H])([H])[H])C([H])([H])[H])c([H])c2c(nc(C([H])([H])[H])c3c([H])c(OC([H])([H])[H])c([H])c([H])c32)c1[H]


 25 27  0  0  0  0  0  0  0  0999 V2000
   13.5678   22.6611    0.1318 C   0  0  0  0  0  0  0  0  0  0  0  0
   12.5723   23.4875    0.6370 C   0  0  0  0  0  0  0  0  0  0  0  0
   12.2076   24.5886   -0.1051 C   0  0  0  0  0  0  0  0  0  0  0  0
   12.7871   24.9005   -1.3204 C   0  0  0  0  0  0  0  0  0  0  0  0
   12.3579   26.0084   -1.9798 N   0  0  0  0  0  0  0  0  0  0  0  0
   12.8809   26.3558   -3.1581 C   0  0  0  0  0  0  0  0  0  0  0  0
   12.4199   27.5774   -3.9038 C   0  0  0  0  0  0  0  0  0  0  0  0
   13.8663   25.5411   -3.6627 C   0  0  0  0  0  0  0  0  0  0  0  0
   14.4109   25.8899   -4.8808 C   0  0  0  0  0  0  0  0  0  0  0  0
   15.3995   25.1273   -5.4564 C   0  0  0  0  0  0  0  0  0  0  0  0
   15.8440   24.0069   -4.8041 C   0  0  0  0  0  0  0  0  0  0  0  0
   15.3146   23.6175   -3.5613 C   0  0  0  0  0  0  0  0  0  0  0  0
   14.3372   24.3968   -3.0223 C   0  0  0  0  0  0  0  0  0  0  0  0
   13.7751   24.0614   -1.7999 C   0  0  0  0  0  0  0  0  0  0  0  0
   14.1728   22.9331   -1.0750 C   0  0  0  0  0  0  0  0  0  0  0  0
   13.9796   21.4753    0.9022 C   0  0  0  0  0  0  0  0  0  0  0  0
   14.9872   20.6754    0.1049 C   0  0  0  0  0  0  0  0  0  0  0  0
   12.2320   20.7318    2.4538 C   0  0  0  0  0  0  0  0  0  0  0  0
   12.5710   21.6018    3.3004 O   0  0  0  0  0  0  0  0  0  0  0  0
   12.8903   20.5939    1.2085 N   0  0  0  0  0  0  0  0  0  0  0  0
   12.5529   19.8535    0.5661 H   0  0  0  0  0  0  0  0  0  0  0  0
   11.1327   19.4561    4.2745 C   0  0  0  0  0  0  0  0  0  0  0  0
   11.0965   19.8442    2.8227 C   0  0  0  0  0  0  0  0  0  0  0  0
   15.9398   25.5004   -6.6974 O   0  0  0  0  0  0  0  0  0  0  0  0
   15.9604   26.8540   -7.0567 C   0  0  0  0  0  0  0  0  0  0  0  0
 22 23  1  0  0  0
 23 18  1  0  0  0
 18 19  2  0  0  0
 18 20  1  0  0  0
 20 16  1  0  0  0
 16 17  1  0  0  0
 16  1  1  0  0  0
  1  2  2  0  0  0
  2  3  1  0  0  0
  3  4  2  0  0  0
  4  5  1  0  0  0
  5  6  2  0  0  0
  6  7  1  0  0  0
  6  8  1  0  0  0
  8  9  2  0  0  0
  9 10  1  0  0  0
 10 24  1  0  0  0
 24 25  1  0  0  0
 10 11  2  0  0  0
 11 12  1  0  0  0
 12 13  2  0  0  0
 13 14  1  0  0  0
 14 15  2  0  0  0
 15  1  1  0  0  0
 14  4  1  0  0  0
 13  8  1  0  0  0
 20 21  1  0  0  0
M  END
> <minimizedAffinity>
-6.93788

> <CNNscore>
0.4618536830

> <CNNaffinity>
6.6857666969

> <CNN_VS>
3.0878460407

> <CNNaffinity_variance>
0.1426237077

$$$$
[H]c1c([C@@]([H])(N([H])C(=O)C([H])([H])C([H])([H])[H])C([H])([H])[H])c([H])c2c(nc(C([H])([H])[H])c3c([H])c(OC([H])([H])[H])c([H])c([H])c32)c1[H]


 25 27  0  0  0  0  0  0  0  0999 V2000
   13.8504   24.6882   -2.8030 C   0  0  0  0  0  0  0  0  0  0  0  0
   12.9805   25.7613   -2.6572 C   0  0  0  0  0  0  0  0  0  0  0  0
   12.1007   25.7411   -1.5982 C   0  0  0  0  0  0  0  0  0  0  0  0
   12.0496   24.7059   -0.6839 C   0  0  0  0  0  0  0  0  0  0  0  0
   11.1472   24.7778    0.3295 N   0  0  0  0  0  0  0  0  0  0  0  0
   11.0559   23.8074    1.2419 C   0  0  0  0  0  0  0  0  0  0  0  0
   10.0646   23.8679    2.3710 C   0  0  0  0  0  0  0  0  0  0  0  0
   11.9147   22.7432    1.1024 C   0  0  0  0  0  0  0  0  0  0  0  0
   11.8301   21.7369    2.0417 C   0  0  0  0  0  0  0  0  0  0  0  0
   12.6545   20.6386    1.9758 C   0  0  0  0  0  0  0  0  0  0  0  0
   13.5699   20.5506    0.9596 C   0  0  0  0  0  0  0  0  0  0  0  0
   13.6875   21.5549   -0.0171 C   0  0  0  0  0  0  0  0  0  0  0  0
   12.8547   22.6274    0.0806 C   0  0  0  0  0  0  0  0  0  0  0  0
   12.9261   23.6507   -0.8524 C   0  0  0  0  0  0  0  0  0  0  0  0
   13.8348   23.6350   -1.9158 C   0  0  0  0  0  0  0  0  0  0  0  0
   14.8036   24.6808   -3.9256 C   0  0  0  0  0  0  0  0  0  0  0  0
   15.6223   23.4083   -3.8894 C   0  0  0  0  0  0  0  0  0  0  0  0
   15.5383   26.8577   -4.7835 C   0  0  0  0  0  0  0  0  0  0  0  0
   14.5858   26.8881   -5.6085 O   0  0  0  0  0  0  0  0  0  0  0  0
   15.7279   25.7770   -3.8895 N   0  0  0  0  0  0  0  0  0  0  0  0
   16.5358   25.8256   -3.2416 H   0  0  0  0  0  0  0  0  0  0  0  0
   17.4669   27.9477   -3.6687 C   0  0  0  0  0  0  0  0  0  0  0  0
   16.4671   28.0199   -4.7888 C   0  0  0  0  0  0  0  0  0  0  0  0
   12.5519   19.6258    2.9428 O   0  0  0  0  0  0  0  0  0  0  0  0
   11.6049   19.7500    3.9672 C   0  0  0  0  0  0  0  0  0  0  0  0
 22 23  1  0  0  0
 23 18  1  0  0  0
 18 19  2  0  0  0
 18 20  1  0  0  0
 20 16  1  0  0  0
 16 17  1  0  0  0
 16  1  1  0  0  0
  1  2  2  0  0  0
  2  3  1  0  0  0
  3  4  2  0  0  0
  4  5  1  0  0  0
  5  6  2  0  0  0
  6  7  1  0  0  0
  6  8  1  0  0  0
  8  9  2  0  0  0
  9 10  1  0  0  0
 10 24  1  0  0  0
 24 25  1  0  0  0
 10 11  2  0  0  0
 11 12  1  0  0  0
 12 13  2  0  0  0
 13 14  1  0  0  0
 14 15  2  0  0  0
 15  1  1  0  0  0
 14  4  1  0  0  0
 13  8  1  0  0  0
 20 21  1  0  0  0
M  END
> <minimizedAffinity>
-8.89229

> <CNNscore>
0.3651689589

> <CNNaffinity>
6.7796583176

> <CNN_VS>
2.4757208824

> <CNNaffinity_variance>
0.1329616606

$$$$
[H]c1c([C@@]([H])(N([H])C(=O)C([H])([H])C([H])([H])[H])C([H])([H])[H])c([H])c2c(nc(C([H])([H])[H])c3c([H])c(OC([H])([H])[H])c([H])c([H])c32)c1[H]


 25 27  0  0  0  0  0  0  0  0999 V2000
   11.2247   23.7580   -0.0087 C   0  0  0  0  0  0  0  0  0  0  0  0
   12.1292   23.1749    0.8694 C   0  0  0  0  0  0  0  0  0  0  0  0
   13.4725   23.3709    0.6386 C   0  0  0  0  0  0  0  0  0  0  0  0
   13.9513   24.1174   -0.4214 C   0  0  0  0  0  0  0  0  0  0  0  0
   15.2955   24.2553   -0.5646 N   0  0  0  0  0  0  0  0  0  0  0  0
   15.8128   24.9670   -1.5687 C   0  0  0  0  0  0  0  0  0  0  0  0
   17.2970   25.1320   -1.7447 C   0  0  0  0  0  0  0  0  0  0  0  0
   14.9219   25.5464   -2.4406 C   0  0  0  0  0  0  0  0  0  0  0  0
   15.4465   26.2861   -3.4797 C   0  0  0  0  0  0  0  0  0  0  0  0
   14.6242   26.9005   -4.3944 C   0  0  0  0  0  0  0  0  0  0  0  0
   13.2660   26.7709   -4.2644 C   0  0  0  0  0  0  0  0  0  0  0  0
   12.6922   26.0258   -3.2194 C   0  0  0  0  0  0  0  0  0  0  0  0
   13.5376   25.4319   -2.3329 C   0  0  0  0  0  0  0  0  0  0  0  0
   13.0296   24.6865   -1.2798 C   0  0  0  0  0  0  0  0  0  0  0  0
   11.6566   24.5101   -1.0784 C   0  0  0  0  0  0  0  0  0  0  0  0
    9.7811   23.5668    0.2118 C   0  0  0  0  0  0  0  0  0  0  0  0
    9.3672   24.2541    1.4953 C   0  0  0  0  0  0  0  0  0  0  0  0
    9.6499   21.3171   -0.7557 C   0  0  0  0  0  0  0  0  0  0  0  0
   10.1856   21.7131   -1.8258 O   0  0  0  0  0  0  0  0  0  0  0  0
    9.4056   22.1879    0.3330 N   0  0  0  0  0  0  0  0  0  0  0  0
    8.9604   21.7863    1.1788 H   0  0  0  0  0  0  0  0  0  0  0  0
    7.8223   19.6550   -0.9734 C   0  0  0  0  0  0  0  0  0  0  0  0
    9.2803   19.8778   -0.6837 C   0  0  0  0  0  0  0  0  0  0  0  0
   15.1793   27.6492   -5.4444 O   0  0  0  0  0  0  0  0  0  0  0  0
   15.7377   26.9813   -6.5416 C   0  0  0  0  0  0  0  0  0  0  0  0
 22 23  1  0  0  0
 23 18  1  0  0  0
 18 19  2  0  0  0
 18 20  1  0  0  0
 20 16  1  0  0  0
 16 17  1  0  0  0
 16  1  1  0  0  0
  1  2  2  0  0  0
  2  3  1  0  0  0
  3  4  2  0  0  0
  4  5  1  0  0  0
  5  6  2  0  0  0
  6  7  1  0  0  0
  6  8  1  0  0  0
  8  9  2  0  0  0
  9 10  1  0  0  0
 10 24  1  0  0  0
 24 25  1  0  0  0
 10 11  2  0  0  0
 11 12  1  0  0  0
 12 13  2  0  0  0
 13 14  1  0  0  0
 14 15  2  0  0  0
 15  1  1  0  0  0
 14  4  1  0  0  0
 13  8  1  0  0  0
 20 21  1  0  0  0
M  END
> <minimizedAffinity>
-7.99915

> <CNNscore>
0.3550111949

> <CNNaffinity>
6.6249542236

> <CNN_VS>
2.3519330025

> <CNNaffinity_variance>
0.0757874027

$$$$
[H]C(C(=O)N(C([H])([H])c1c([H])c([H])c([H])c([H])c1[H])C([H])([H])C([H])([H])C([H])([H])C([H])([H])S(=O)(=O)N([H])[H])=C([H])c1c([H])c([H])c(OC(C([H])([H])[H])(C([H])([H])[H])C([H])([H])[H])c([H])c1[H]


 33 34  0  0  0  0  0  0  0  0999 V2000
   14.2283   22.8470   -1.5648 C   0  0  0  0  0  0  0  0  0  0  0  0
   14.6131   21.9508   -2.4819 O   0  0  0  0  0  0  0  0  0  0  0  0
   14.1399   22.3858   -0.2569 N   0  0  0  0  0  0  0  0  0  0  0  0
   14.3677   24.7235   -3.2082 C   0  0  0  0  0  0  0  0  0  0  0  0
   13.9853   24.1229   -2.1378 C   0  0  0  0  0  0  0  0  0  0  0  0
   13.0755   28.6460   -4.2319 C   0  0  0  0  0  0  0  0  0  0  0  0
   12.1689   27.6961   -3.8430 C   0  0  0  0  0  0  0  0  0  0  0  0
   12.6100   26.4448   -3.5198 C   0  0  0  0  0  0  0  0  0  0  0  0
   13.9564   26.0670   -3.5624 C   0  0  0  0  0  0  0  0  0  0  0  0
   14.8269   27.0368   -3.9530 C   0  0  0  0  0  0  0  0  0  0  0  0
   14.4034   28.3128   -4.2858 C   0  0  0  0  0  0  0  0  0  0  0  0
   12.6930   29.9280   -4.5711 O   0  0  0  0  0  0  0  0  0  0  0  0
   11.6175   32.0432   -4.2348 C   0  0  0  0  0  0  0  0  0  0  0  0
   11.6278   30.5550   -3.8889 C   0  0  0  0  0  0  0  0  0  0  0  0
   11.8242   30.4065   -2.3988 C   0  0  0  0  0  0  0  0  0  0  0  0
   10.2824   29.9930   -4.2838 C   0  0  0  0  0  0  0  0  0  0  0  0
   13.7240   23.1323    0.8676 C   0  0  0  0  0  0  0  0  0  0  0  0
   12.3121   23.4432    1.0221 C   0  0  0  0  0  0  0  0  0  0  0  0
   11.6652   24.0388   -0.0677 C   0  0  0  0  0  0  0  0  0  0  0  0
   10.3284   24.3588   -0.0176 C   0  0  0  0  0  0  0  0  0  0  0  0
    9.5724   24.1074    1.1038 C   0  0  0  0  0  0  0  0  0  0  0  0
   10.1837   23.5243    2.1847 C   0  0  0  0  0  0  0  0  0  0  0  0
   11.5213   23.2115    2.1161 C   0  0  0  0  0  0  0  0  0  0  0  0
   14.6078   20.9788   -0.0743 C   0  0  0  0  0  0  0  0  0  0  0  0
   13.3790   20.1156    0.0725 C   0  0  0  0  0  0  0  0  0  0  0  0
   12.9612   19.9890    1.5000 C   0  0  0  0  0  0  0  0  0  0  0  0
   11.4904   20.1167    1.6742 C   0  0  0  0  0  0  0  0  0  0  0  0
   10.5009   20.1231    0.2411 S   0  0  0  0  0  0  0  0  0  0  0  0
   11.1445   20.9323   -1.1097 N   0  0  0  0  0  0  0  0  0  0  0  0
    9.1159   20.6964    0.5423 O   0  0  0  0  0  0  0  0  0  0  0  0
   10.2137   18.6922   -0.2120 O   0  0  0  0  0  0  0  0  0  0  0  0
   10.4445   21.3670   -1.7198 H   0  0  0  0  0  0  0  0  0  0  0  0
   11.8409   20.3325   -1.5936 H   0  0  0  0  0  0  0  0  0  0  0  0
 13 14  1  0  0  0
 14 15  1  0  0  0
 14 16  1  0  0  0
 14 12  1  0  0  0
 12  6  1  0  0  0
  6  7  2  0  0  0
  7  8  1  0  0  0
  8  9  2  0  0  0
  9 10  1  0  0  0
 10 11  2  0  0  0
  9  4  1  0  0  0
  4  5  2  0  0  0
  5  1  1  0  0  0
  1  2  2  0  0  0
  1  3  1  0  0  0
  3 17  1  0  0  0
 17 18  1  0  0  0
 18 19  2  0  0  0
 19 20  1  0  0  0
 20 21  2  0  0  0
 21 22  1  0  0  0
 22 23  2  0  0  0
  3 24  1  0  0  0
 24 25  1  0  0  0
 25 26  1  0  0  0
 26 27  1  0  0  0
 27 28  1  0  0  0
 28 29  1  0  0  0
 28 30  2  0  0  0
 28 31  2  0  0  0
 11  6  1  0  0  0
 23 18  1  0  0  0
 29 32  1  0  0  0
 29 33  1  0  0  0
M  END
> <minimizedAffinity>
7.28737

> <CNNscore>
0.5498959422

> <CNNaffinity>
7.0274643898

> <CNN_VS>
3.8643741608

> <CNNaffinity_variance>
0.6695769429

$$$$
[H]C(C(=O)N(C([H])([H])c1c([H])c([H])c([H])c([H])c1[H])C([H])([H])C([H])([H])C([H])([H])C([H])([H])S(=O)(=O)N([H])[H])=C([H])c1c([H])c([H])c(OC(C([H])([H])[H])(C([H])([H])[H])C([H])([H])[H])c([H])c1[H]


 33 34  0  0  0  0  0  0  0  0999 V2000
   10.4711   24.0263    1.3702 C   0  0  0  0  0  0  0  0  0  0  0  0
   10.1627   25.0060    2.2289 O   0  0  0  0  0  0  0  0  0  0  0  0
   10.0501   22.7492    1.7209 N   0  0  0  0  0  0  0  0  0  0  0  0
   12.4244   24.5565   -0.0943 C   0  0  0  0  0  0  0  0  0  0  0  0
   11.1847   24.5124    0.2434 C   0  0  0  0  0  0  0  0  0  0  0  0
   13.8849   26.1937   -3.7399 C   0  0  0  0  0  0  0  0  0  0  0  0
   14.7139   25.4743   -2.9209 C   0  0  0  0  0  0  0  0  0  0  0  0
   14.2200   24.9597   -1.7565 C   0  0  0  0  0  0  0  0  0  0  0  0
   12.8943   25.1256   -1.3413 C   0  0  0  0  0  0  0  0  0  0  0  0
   12.1014   25.8453   -2.1803 C   0  0  0  0  0  0  0  0  0  0  0  0
   12.5795   26.3772   -3.3664 C   0  0  0  0  0  0  0  0  0  0  0  0
   14.3236   26.7394   -4.9293 O   0  0  0  0  0  0  0  0  0  0  0  0
   15.8060   24.8799   -5.2270 C   0  0  0  0  0  0  0  0  0  0  0  0
   15.5808   26.3734   -5.4573 C   0  0  0  0  0  0  0  0  0  0  0  0
   16.6705   27.1415   -4.7480 C   0  0  0  0  0  0  0  0  0  0  0  0
   15.6719   26.6169   -6.9454 C   0  0  0  0  0  0  0  0  0  0  0  0
   10.2884   21.5608    0.9959 C   0  0  0  0  0  0  0  0  0  0  0  0
   11.6090   21.3343    0.4314 C   0  0  0  0  0  0  0  0  0  0  0  0
   12.6837   21.2639    1.3262 C   0  0  0  0  0  0  0  0  0  0  0  0
   13.9676   21.0419    0.8852 C   0  0  0  0  0  0  0  0  0  0  0  0
   14.2487   20.8801   -0.4516 C   0  0  0  0  0  0  0  0  0  0  0  0
   13.2123   20.9449   -1.3480 C   0  0  0  0  0  0  0  0  0  0  0  0
   11.9352   21.1677   -0.8883 C   0  0  0  0  0  0  0  0  0  0  0  0
    9.2118   22.7021    2.9565 C   0  0  0  0  0  0  0  0  0  0  0  0
   10.1533   22.7236    4.1354 C   0  0  0  0  0  0  0  0  0  0  0  0
   10.1738   21.4125    4.8488 C   0  0  0  0  0  0  0  0  0  0  0  0
   11.4754   20.7088    4.7051 C   0  0  0  0  0  0  0  0  0  0  0  0
   11.4453   19.0395    4.2096 S   0  0  0  0  0  0  0  0  0  0  0  0
   10.4226   18.0124    5.1000 N   0  0  0  0  0  0  0  0  0  0  0  0
   12.8555   18.4490    4.2112 O   0  0  0  0  0  0  0  0  0  0  0  0
   11.0033   18.9266    2.7511 O   0  0  0  0  0  0  0  0  0  0  0  0
   10.7509   17.0440    5.1745 H   0  0  0  0  0  0  0  0  0  0  0  0
    9.4380   18.1224    4.7882 H   0  0  0  0  0  0  0  0  0  0  0  0
 13 14  1  0  0  0
 14 15  1  0  0  0
 14 16  1  0  0  0
 14 12  1  0  0  0
 12  6  1  0  0  0
  6  7  2  0  0  0
  7  8  1  0  0  0
  8  9  2  0  0  0
  9 10  1  0  0  0
 10 11  2  0  0  0
  9  4  1  0  0  0
  4  5  2  0  0  0
  5  1  1  0  0  0
  1  2  2  0  0  0
  1  3  1  0  0  0
  3 17  1  0  0  0
 17 18  1  0  0  0
 18 19  2  0  0  0
 19 20  1  0  0  0
 20 21  2  0  0  0
 21 22  1  0  0  0
 22 23  2  0  0  0
  3 24  1  0  0  0
 24 25  1  0  0  0
 25 26  1  0  0  0
 26 27  1  0  0  0
 27 28  1  0  0  0
 28 29  1  0  0  0
 28 30  2  0  0  0
 28 31  2  0  0  0
 11  6  1  0  0  0
 23 18  1  0  0  0
 29 32  1  0  0  0
 29 33  1  0  0  0
M  END
> <minimizedAffinity>
-7.44993

> <CNNscore>
0.4931759834

> <CNNaffinity>
6.9757943153

> <CNN_VS>
3.4402942657

> <CNNaffinity_variance>
0.2413174212

$$$$
[H]C(C(=O)N(C([H])([H])c1c([H])c([H])c([H])c([H])c1[H])C([H])([H])C([H])([H])C([H])([H])C([H])([H])S(=O)(=O)N([H])[H])=C([H])c1c([H])c([H])c(OC(C([H])([H])[H])(C([H])([H])[H])C([H])([H])[H])c([H])c1[H]


 33 34  0  0  0  0  0  0  0  0999 V2000
   13.9039   22.6508   -1.0907 C   0  0  0  0  0  0  0  0  0  0  0  0
   14.4965   21.7433   -1.8766 O   0  0  0  0  0  0  0  0  0  0  0  0
   13.6008   22.2378    0.2011 N   0  0  0  0  0  0  0  0  0  0  0  0
   14.3178   24.5176   -2.6985 C   0  0  0  0  0  0  0  0  0  0  0  0
   13.7045   23.8857   -1.7618 C   0  0  0  0  0  0  0  0  0  0  0  0
   12.9705   28.2723   -4.1786 C   0  0  0  0  0  0  0  0  0  0  0  0
   12.0997   27.4197   -3.5539 C   0  0  0  0  0  0  0  0  0  0  0  0
   12.5579   26.2206   -3.0880 C   0  0  0  0  0  0  0  0  0  0  0  0
   13.8871   25.8022   -3.2123 C   0  0  0  0  0  0  0  0  0  0  0  0
   14.7220   26.6752   -3.8380 C   0  0  0  0  0  0  0  0  0  0  0  0
   14.2807   27.8968   -4.3189 C   0  0  0  0  0  0  0  0  0  0  0  0
   12.5693   29.4976   -4.6711 O   0  0  0  0  0  0  0  0  0  0  0  0
   12.0043   30.0821   -2.4166 C   0  0  0  0  0  0  0  0  0  0  0  0
   11.7341   30.3341   -3.8991 C   0  0  0  0  0  0  0  0  0  0  0  0
   10.2875   30.0107   -4.1885 C   0  0  0  0  0  0  0  0  0  0  0  0
   11.9903   31.7999   -4.1593 C   0  0  0  0  0  0  0  0  0  0  0  0
   12.9472   23.0025    1.1926 C   0  0  0  0  0  0  0  0  0  0  0  0
   11.5186   23.2421    1.0677 C   0  0  0  0  0  0  0  0  0  0  0  0
   10.7594   23.2100    2.2438 C   0  0  0  0  0  0  0  0  0  0  0  0
    9.4026   23.4357    2.2251 C   0  0  0  0  0  0  0  0  0  0  0  0
    8.7362   23.7019    1.0516 C   0  0  0  0  0  0  0  0  0  0  0  0
    9.4584   23.7387   -0.1142 C   0  0  0  0  0  0  0  0  0  0  0  0
   10.8141   23.5105   -0.0757 C   0  0  0  0  0  0  0  0  0  0  0  0
   14.0994   20.8700    0.5361 C   0  0  0  0  0  0  0  0  0  0  0  0
   12.8918   20.0155    0.8332 C   0  0  0  0  0  0  0  0  0  0  0  0
   12.6234   19.9308    2.2992 C   0  0  0  0  0  0  0  0  0  0  0  0
   11.1876   20.1355    2.6258 C   0  0  0  0  0  0  0  0  0  0  0  0
   10.6923   19.9155    4.2809 S   0  0  0  0  0  0  0  0  0  0  0  0
   11.1151   18.4321    4.9982 N   0  0  0  0  0  0  0  0  0  0  0  0
    9.1838   20.1180    4.4257 O   0  0  0  0  0  0  0  0  0  0  0  0
   11.2943   21.0071    5.1647 O   0  0  0  0  0  0  0  0  0  0  0  0
   10.4515   18.0950    5.7032 H   0  0  0  0  0  0  0  0  0  0  0  0
   12.1095   18.4450    5.2978 H   0  0  0  0  0  0  0  0  0  0  0  0
 13 14  1  0  0  0
 14 15  1  0  0  0
 14 16  1  0  0  0
 14 12  1  0  0  0
 12  6  1  0  0  0
  6  7  2  0  0  0
  7  8  1  0  0  0
  8  9  2  0  0  0
  9 10  1  0  0  0
 10 11  2  0  0  0
  9  4  1  0  0  0
  4  5  2  0  0  0
  5  1  1  0  0  0
  1  2  2  0  0  0
  1  3  1  0  0  0
  3 17  1  0  0  0
 17 18  1  0  0  0
 18 19  2  0  0  0
 19 20  1  0  0  0
 20 21  2  0  0  0
 21 22  1  0  0  0
 22 23  2  0  0  0
  3 24  1  0  0  0
 24 25  1  0  0  0
 25 26  1  0  0  0
 26 27  1  0  0  0
 27 28  1  0  0  0
 28 29  1  0  0  0
 28 30  2  0  0  0
 28 31  2  0  0  0
 11  6  1  0  0  0
 23 18  1  0  0  0
 29 32  1  0  0  0
 29 33  1  0  0  0
M  END
> <minimizedAffinity>
6.31448

> <CNNscore>
0.4857812524

> <CNNaffinity>
6.8121604919

> <CNN_VS>
3.3092198372

> <CNNaffinity_variance>
0.4362082481

$$$$
[H]C(C(=O)N(C([H])([H])c1c([H])c([H])c([H])c([H])c1[H])C([H])([H])C([H])([H])C([H])([H])C([H])([H])S(=O)(=O)N([H])[H])=C([H])c1c([H])c([H])c(OC(C([H])([H])[H])(C([H])([H])[H])C([H])([H])[H])c([H])c1[H]


 33 34  0  0  0  0  0  0  0  0999 V2000
   14.9877   23.6515   -0.9420 C   0  0  0  0  0  0  0  0  0  0  0  0
   16.0880   23.1199   -1.4887 O   0  0  0  0  0  0  0  0  0  0  0  0
   14.4808   22.9971    0.1743 N   0  0  0  0  0  0  0  0  0  0  0  0
   14.3596   25.1063   -2.8735 C   0  0  0  0  0  0  0  0  0  0  0  0
   14.5558   24.8111   -1.6377 C   0  0  0  0  0  0  0  0  0  0  0  0
   12.9317   28.8946   -4.1824 C   0  0  0  0  0  0  0  0  0  0  0  0
   12.0526   27.9099   -3.8176 C   0  0  0  0  0  0  0  0  0  0  0  0
   12.5371   26.7030   -3.4012 C   0  0  0  0  0  0  0  0  0  0  0  0
   13.9019   26.4055   -3.3230 C   0  0  0  0  0  0  0  0  0  0  0  0
   14.7440   27.4078   -3.6931 C   0  0  0  0  0  0  0  0  0  0  0  0
   14.2764   28.6401   -4.1190 C   0  0  0  0  0  0  0  0  0  0  0  0
   12.5050   30.1350   -4.6117 O   0  0  0  0  0  0  0  0  0  0  0  0
   11.2924   32.1984   -4.4869 C   0  0  0  0  0  0  0  0  0  0  0  0
   11.3912   30.7527   -4.0026 C   0  0  0  0  0  0  0  0  0  0  0  0
   11.5721   30.7566   -2.5032 C   0  0  0  0  0  0  0  0  0  0  0  0
   10.0907   30.0706   -4.3569 C   0  0  0  0  0  0  0  0  0  0  0  0
   13.3176   23.3487    0.8942 C   0  0  0  0  0  0  0  0  0  0  0  0
   12.1335   22.5146    0.7677 C   0  0  0  0  0  0  0  0  0  0  0  0
   11.3118   22.7345   -0.3446 C   0  0  0  0  0  0  0  0  0  0  0  0
   10.1764   21.9867   -0.5534 C   0  0  0  0  0  0  0  0  0  0  0  0
    9.8013   20.9931    0.3209 C   0  0  0  0  0  0  0  0  0  0  0  0
   10.5902   20.7586    1.4184 C   0  0  0  0  0  0  0  0  0  0  0  0
   11.7218   21.5165    1.6105 C   0  0  0  0  0  0  0  0  0  0  0  0
   15.3275   21.8628    0.6520 C   0  0  0  0  0  0  0  0  0  0  0  0
   15.2168   20.7611   -0.3729 C   0  0  0  0  0  0  0  0  0  0  0  0
   13.8452   20.1727   -0.4042 C   0  0  0  0  0  0  0  0  0  0  0  0
   13.1596   20.4007   -1.7034 C   0  0  0  0  0  0  0  0  0  0  0  0
   14.1141   21.0015   -3.0304 S   0  0  0  0  0  0  0  0  0  0  0  0
   13.8921   20.2218   -4.5259 N   0  0  0  0  0  0  0  0  0  0  0  0
   15.6023   20.9774   -2.6810 O   0  0  0  0  0  0  0  0  0  0  0  0
   13.8185   22.4816   -3.2696 O   0  0  0  0  0  0  0  0  0  0  0  0
   14.7267   20.1947   -5.1207 H   0  0  0  0  0  0  0  0  0  0  0  0
   13.0297   20.5674   -4.9902 H   0  0  0  0  0  0  0  0  0  0  0  0
 13 14  1  0  0  0
 14 15  1  0  0  0
 14 16  1  0  0  0
 14 12  1  0  0  0
 12  6  1  0  0  0
  6  7  2  0  0  0
  7  8  1  0  0  0
  8  9  2  0  0  0
  9 10  1  0  0  0
 10 11  2  0  0  0
  9  4  1  0  0  0
  4  5  2  0  0  0
  5  1  1  0  0  0
  1  2  2  0  0  0
  1  3  1  0  0  0
  3 17  1  0  0  0
 17 18  1  0  0  0
 18 19  2  0  0  0
 19 20  1  0  0  0
 20 21  2  0  0  0
 21 22  1  0  0  0
 22 23  2  0  0  0
  3 24  1  0  0  0
 24 25  1  0  0  0
 25 26  1  0  0  0
 26 27  1  0  0  0
 27 28  1  0  0  0
 28 29  1  0  0  0
 28 30  2  0  0  0
 28 31  2  0  0  0
 11  6  1  0  0  0
 23 18  1  0  0  0
 29 32  1  0  0  0
 29 33  1  0  0  0
M  END
> <minimizedAffinity>
13.57872

> <CNNscore>
0.4836413860

> <CNNaffinity>
6.7853403091

> <CNN_VS>
3.2816712856

> <CNNaffinity_variance>
0.4665181041

$$$$
[H]C(C(=O)N(C([H])([H])c1c([H])c([H])c([H])c([H])c1[H])C([H])([H])C([H])([H])C([H])([H])C([H])([H])S(=O)(=O)N([H])[H])=C([H])c1c([H])c([H])c(OC(C([H])([H])[H])(C([H])([H])[H])C([H])([H])[H])c([H])c1[H]


 33 34  0  0  0  0  0  0  0  0999 V2000
   12.6869   23.0368    1.1252 C   0  0  0  0  0  0  0  0  0  0  0  0
   13.5444   22.2194    1.7488 O   0  0  0  0  0  0  0  0  0  0  0  0
   11.3910   23.0629    1.6264 N   0  0  0  0  0  0  0  0  0  0  0  0
   12.9987   24.7641   -0.6526 C   0  0  0  0  0  0  0  0  0  0  0  0
   13.3006   23.7301    0.0492 C   0  0  0  0  0  0  0  0  0  0  0  0
   15.3669   26.3018   -3.8354 C   0  0  0  0  0  0  0  0  0  0  0  0
   14.0277   26.5804   -3.7696 C   0  0  0  0  0  0  0  0  0  0  0  0
   13.2904   26.0745   -2.7376 C   0  0  0  0  0  0  0  0  0  0  0  0
   13.8295   25.2741   -1.7246 C   0  0  0  0  0  0  0  0  0  0  0  0
   15.1621   25.0191   -1.8236 C   0  0  0  0  0  0  0  0  0  0  0  0
   15.9306   25.5209   -2.8609 C   0  0  0  0  0  0  0  0  0  0  0  0
   16.1660   26.7831   -4.8526 O   0  0  0  0  0  0  0  0  0  0  0  0
   16.2828   26.4992   -7.2295 C   0  0  0  0  0  0  0  0  0  0  0  0
   15.5881   27.2088   -6.0683 C   0  0  0  0  0  0  0  0  0  0  0  0
   15.7822   28.6982   -6.2266 C   0  0  0  0  0  0  0  0  0  0  0  0
   14.1173   26.8749   -6.1535 C   0  0  0  0  0  0  0  0  0  0  0  0
   10.3107   23.8151    1.1146 C   0  0  0  0  0  0  0  0  0  0  0  0
    9.4266   24.4985    2.0449 C   0  0  0  0  0  0  0  0  0  0  0  0
    8.1497   23.9546    2.2306 C   0  0  0  0  0  0  0  0  0  0  0  0
    7.2488   24.5263    3.0988 C   0  0  0  0  0  0  0  0  0  0  0  0
    7.5645   25.6546    3.8195 C   0  0  0  0  0  0  0  0  0  0  0  0
    8.8097   26.2062    3.6546 C   0  0  0  0  0  0  0  0  0  0  0  0
    9.6971   25.6206    2.7821 C   0  0  0  0  0  0  0  0  0  0  0  0
   11.2009   22.2510    2.8659 C   0  0  0  0  0  0  0  0  0  0  0  0
   10.5357   20.9602    2.4559 C   0  0  0  0  0  0  0  0  0  0  0  0
   11.4519   20.0991    1.6511 C   0  0  0  0  0  0  0  0  0  0  0  0
   11.1153   20.1107    0.2032 C   0  0  0  0  0  0  0  0  0  0  0  0
   12.4180   20.3324   -0.9312 S   0  0  0  0  0  0  0  0  0  0  0  0
   12.6531   19.0782   -2.0561 N   0  0  0  0  0  0  0  0  0  0  0  0
   13.7356   20.5877   -0.1989 O   0  0  0  0  0  0  0  0  0  0  0  0
   12.2004   21.6061   -1.7470 O   0  0  0  0  0  0  0  0  0  0  0  0
   13.6267   18.9442   -2.3479 H   0  0  0  0  0  0  0  0  0  0  0  0
   11.9658   19.1532   -2.8312 H   0  0  0  0  0  0  0  0  0  0  0  0
 13 14  1  0  0  0
 14 15  1  0  0  0
 14 16  1  0  0  0
 14 12  1  0  0  0
 12  6  1  0  0  0
  6  7  2  0  0  0
  7  8  1  0  0  0
  8  9  2  0  0  0
  9 10  1  0  0  0
 10 11  2  0  0  0
  9  4  1  0  0  0
  4  5  2  0  0  0
  5  1  1  0  0  0
  1  2  2  0  0  0
  1  3  1  0  0  0
  3 17  1  0  0  0
 17 18  1  0  0  0
 18 19  2  0  0  0
 19 20  1  0  0  0
 20 21  2  0  0  0
 21 22  1  0  0  0
 22 23  2  0  0  0
  3 24  1  0  0  0
 24 25  1  0  0  0
 25 26  1  0  0  0
 26 27  1  0  0  0
 27 28  1  0  0  0
 28 29  1  0  0  0
 28 30  2  0  0  0
 28 31  2  0  0  0
 11  6  1  0  0  0
 23 18  1  0  0  0
 29 32  1  0  0  0
 29 33  1  0  0  0
M  END
> <minimizedAffinity>
-3.76384

> <CNNscore>
0.3159990013

> <CNNaffinity>
6.9601159096

> <CNN_VS>
2.1993896961

> <CNNaffinity_variance>
0.5536718369

$$$$
[H]C(C(=O)N(C([H])([H])c1c([H])c([H])c([H])c([H])c1[H])C([H])([H])C([H])([H])C([H])([H])C([H])([H])S(=O)(=O)N([H])[H])=C([H])c1c([H])c([H])c(OC(C([H])([H])[H])(C([H])([H])[H])C([H])([H])[H])c([H])c1[H]


 33 34  0  0  0  0  0  0  0  0999 V2000
   13.3501   21.1199    1.0042 C   0  0  0  0  0  0  0  0  0  0  0  0
   14.1918   20.1319    1.3320 O   0  0  0  0  0  0  0  0  0  0  0  0
   12.1435   21.1506    1.6931 N   0  0  0  0  0  0  0  0  0  0  0  0
   14.2567   21.7830   -1.2273 C   0  0  0  0  0  0  0  0  0  0  0  0
   13.8837   21.9582   -0.0096 C   0  0  0  0  0  0  0  0  0  0  0  0
   15.8002   24.9496   -3.6135 C   0  0  0  0  0  0  0  0  0  0  0  0
   15.6294   25.1166   -2.2651 C   0  0  0  0  0  0  0  0  0  0  0  0
   15.1322   24.0843   -1.5221 C   0  0  0  0  0  0  0  0  0  0  0  0
   14.7802   22.8436   -2.0644 C   0  0  0  0  0  0  0  0  0  0  0  0
   14.9638   22.7153   -3.4062 C   0  0  0  0  0  0  0  0  0  0  0  0
   15.4663   23.7478   -4.1806 C   0  0  0  0  0  0  0  0  0  0  0  0
   16.2980   25.9540   -4.4186 O   0  0  0  0  0  0  0  0  0  0  0  0
   15.3918   26.1926   -6.6244 C   0  0  0  0  0  0  0  0  0  0  0  0
   15.4212   26.7394   -5.1980 C   0  0  0  0  0  0  0  0  0  0  0  0
   15.9182   28.1650   -5.2371 C   0  0  0  0  0  0  0  0  0  0  0  0
   14.0040   26.7082   -4.6759 C   0  0  0  0  0  0  0  0  0  0  0  0
   11.0904   22.0709    1.4961 C   0  0  0  0  0  0  0  0  0  0  0  0
   11.2351   23.0973    0.4764 C   0  0  0  0  0  0  0  0  0  0  0  0
   11.9294   24.2598    0.8329 C   0  0  0  0  0  0  0  0  0  0  0  0
   12.1253   25.2801   -0.0685 C   0  0  0  0  0  0  0  0  0  0  0  0
   11.6476   25.2009   -1.3561 C   0  0  0  0  0  0  0  0  0  0  0  0
   10.9640   24.0716   -1.7294 C   0  0  0  0  0  0  0  0  0  0  0  0
   10.7780   23.0619   -0.8142 C   0  0  0  0  0  0  0  0  0  0  0  0
   12.0366   20.1311    2.7798 C   0  0  0  0  0  0  0  0  0  0  0  0
   11.5701   20.8502    4.0216 C   0  0  0  0  0  0  0  0  0  0  0  0
   10.6054   20.0251    4.8071 C   0  0  0  0  0  0  0  0  0  0  0  0
    9.4566   20.8223    5.3118 C   0  0  0  0  0  0  0  0  0  0  0  0
    7.9067   20.5812    4.5553 S   0  0  0  0  0  0  0  0  0  0  0  0
    7.1852   19.0593    4.7945 N   0  0  0  0  0  0  0  0  0  0  0  0
    7.9893   20.8542    3.0533 O   0  0  0  0  0  0  0  0  0  0  0  0
    6.9027   21.6166    5.0604 O   0  0  0  0  0  0  0  0  0  0  0  0
    6.6034   18.7360    4.0147 H   0  0  0  0  0  0  0  0  0  0  0  0
    6.7355   19.0144    5.7296 H   0  0  0  0  0  0  0  0  0  0  0  0
 13 14  1  0  0  0
 14 15  1  0  0  0
 14 16  1  0  0  0
 14 12  1  0  0  0
 12  6  1  0  0  0
  6  7  2  0  0  0
  7  8  1  0  0  0
  8  9  2  0  0  0
  9 10  1  0  0  0
 10 11  2  0  0  0
  9  4  1  0  0  0
  4  5  2  0  0  0
  5  1  1  0  0  0
  1  2  2  0  0  0
  1  3  1  0  0  0
  3 17  1  0  0  0
 17 18  1  0  0  0
 18 19  2  0  0  0
 19 20  1  0  0  0
 20 21  2  0  0  0
 21 22  1  0  0  0
 22 23  2  0  0  0
  3 24  1  0  0  0
 24 25  1  0  0  0
 25 26  1  0  0  0
 26 27  1  0  0  0
 27 28  1  0  0  0
 28 29  1  0  0  0
 28 30  2  0  0  0
 28 31  2  0  0  0
 11  6  1  0  0  0
 23 18  1  0  0  0
 29 32  1  0  0  0
 29 33  1  0  0  0
M  END
> <minimizedAffinity>
-7.97376

> <CNNscore>
0.2876003683

> <CNNaffinity>
6.8620162010

> <CNN_VS>
1.9735183716

> <CNNaffinity_variance>
0.1141500324

$$$$
[H]C(C(=O)N(C([H])([H])c1c([H])c([H])c([H])c([H])c1[H])C([H])([H])C([H])([H])C([H])([H])C([H])([H])S(=O)(=O)N([H])[H])=C([H])c1c([H])c([H])c(OC(C([H])([H])[H])(C([H])([H])[H])C([H])([H])[H])c([H])c1[H]


 33 34  0  0  0  0  0  0  0  0999 V2000
   10.7979   23.6417    1.3780 C   0  0  0  0  0  0  0  0  0  0  0  0
   10.4431   24.5843    2.2600 O   0  0  0  0  0  0  0  0  0  0  0  0
   10.5037   22.3303    1.7315 N   0  0  0  0  0  0  0  0  0  0  0  0
   12.5253   23.9908   -0.3927 C   0  0  0  0  0  0  0  0  0  0  0  0
   11.4184   24.1964    0.2281 C   0  0  0  0  0  0  0  0  0  0  0  0
   13.7674   26.0776   -3.8864 C   0  0  0  0  0  0  0  0  0  0  0  0
   14.4834   25.0040   -3.4280 C   0  0  0  0  0  0  0  0  0  0  0  0
   14.0630   24.3517   -2.3044 C   0  0  0  0  0  0  0  0  0  0  0  0
   12.9246   24.7201   -1.5794 C   0  0  0  0  0  0  0  0  0  0  0  0
   12.2395   25.7905   -2.0649 C   0  0  0  0  0  0  0  0  0  0  0  0
   12.6463   26.4680   -3.2024 C   0  0  0  0  0  0  0  0  0  0  0  0
   14.1402   26.7783   -5.0156 O   0  0  0  0  0  0  0  0  0  0  0  0
   15.8323   28.3211   -5.7225 C   0  0  0  0  0  0  0  0  0  0  0  0
   15.5018   26.8700   -5.3769 C   0  0  0  0  0  0  0  0  0  0  0  0
   15.7616   26.0124   -6.5926 C   0  0  0  0  0  0  0  0  0  0  0  0
   16.4235   26.4548   -4.2543 C   0  0  0  0  0  0  0  0  0  0  0  0
   10.8124   21.1726    0.9836 C   0  0  0  0  0  0  0  0  0  0  0  0
   12.1800   20.9701    0.5335 C   0  0  0  0  0  0  0  0  0  0  0  0
   12.3799   20.7770   -0.8389 C   0  0  0  0  0  0  0  0  0  0  0  0
   13.6396   20.5884   -1.3581 C   0  0  0  0  0  0  0  0  0  0  0  0
   14.7539   20.5816   -0.5516 C   0  0  0  0  0  0  0  0  0  0  0  0
   14.5839   20.7689    0.7967 C   0  0  0  0  0  0  0  0  0  0  0  0
   13.3166   20.9559    1.2975 C   0  0  0  0  0  0  0  0  0  0  0  0
    9.7259   22.2013    3.0004 C   0  0  0  0  0  0  0  0  0  0  0  0
   10.3165   21.0457    3.7701 C   0  0  0  0  0  0  0  0  0  0  0  0
    9.6329   20.8505    5.0827 C   0  0  0  0  0  0  0  0  0  0  0  0
    8.3134   21.5327    5.1421 C   0  0  0  0  0  0  0  0  0  0  0  0
    6.9072   20.6231    4.6643 S   0  0  0  0  0  0  0  0  0  0  0  0
    5.4116   21.4180    4.8235 N   0  0  0  0  0  0  0  0  0  0  0  0
    6.8396   19.2952    5.4189 O   0  0  0  0  0  0  0  0  0  0  0  0
    7.0180   20.2056    3.1985 O   0  0  0  0  0  0  0  0  0  0  0  0
    4.6216   20.8008    5.0382 H   0  0  0  0  0  0  0  0  0  0  0  0
    5.2607   22.0686    4.0281 H   0  0  0  0  0  0  0  0  0  0  0  0
 13 14  1  0  0  0
 14 15  1  0  0  0
 14 16  1  0  0  0
 14 12  1  0  0  0
 12  6  1  0  0  0
  6  7  2  0  0  0
  7  8  1  0  0  0
  8  9  2  0  0  0
  9 10  1  0  0  0
 10 11  2  0  0  0
  9  4  1  0  0  0
  4  5  2  0  0  0
  5  1  1  0  0  0
  1  2  2  0  0  0
  1  3  1  0  0  0
  3 17  1  0  0  0
 17 18  1  0  0  0
 18 19  2  0  0  0
 19 20  1  0  0  0
 20 21  2  0  0  0
 21 22  1  0  0  0
 22 23  2  0  0  0
  3 24  1  0  0  0
 24 25  1  0  0  0
 25 26  1  0  0  0
 26 27  1  0  0  0
 27 28  1  0  0  0
 28 29  1  0  0  0
 28 30  2  0  0  0
 28 31  2  0  0  0
 11  6  1  0  0  0
 23 18  1  0  0  0
 29 32  1  0  0  0
 29 33  1  0  0  0
M  END
> <minimizedAffinity>
-7.92865

> <CNNscore>
0.2590894103

> <CNNaffinity>
6.7054872513

> <CNN_VS>
1.7373207808

> <CNNaffinity_variance>
0.0507706329

$$$$
[H]C(C(=O)N(C([H])([H])c1c([H])c([H])c([H])c([H])c1[H])C([H])([H])C([H])([H])C([H])([H])C([H])([H])S(=O)(=O)N([H])[H])=C([H])c1c([H])c([H])c(OC(C([H])([H])[H])(C([H])([H])[H])C([H])([H])[H])c([H])c1[H]


 33 34  0  0  0  0  0  0  0  0999 V2000
   12.5280   24.6253   -1.1487 C   0  0  0  0  0  0  0  0  0  0  0  0
   12.5496   25.9334   -1.4329 O   0  0  0  0  0  0  0  0  0  0  0  0
   13.5412   23.8591   -1.7124 N   0  0  0  0  0  0  0  0  0  0  0  0
   11.1078   24.5711    0.9060 C   0  0  0  0  0  0  0  0  0  0  0  0
   11.4412   24.2833   -0.3019 C   0  0  0  0  0  0  0  0  0  0  0  0
    7.6064   23.1459    2.8585 C   0  0  0  0  0  0  0  0  0  0  0  0
    8.5024   23.9351    3.5292 C   0  0  0  0  0  0  0  0  0  0  0  0
    9.6182   24.3792    2.8792 C   0  0  0  0  0  0  0  0  0  0  0  0
    9.9073   24.0716    1.5454 C   0  0  0  0  0  0  0  0  0  0  0  0
    8.9947   23.2860    0.9123 C   0  0  0  0  0  0  0  0  0  0  0  0
    7.8558   22.8234    1.5504 C   0  0  0  0  0  0  0  0  0  0  0  0
    6.4604   22.6656    3.4593 O   0  0  0  0  0  0  0  0  0  0  0  0
    5.8818   20.3678    3.1001 C   0  0  0  0  0  0  0  0  0  0  0  0
    6.4600   21.3942    4.0730 C   0  0  0  0  0  0  0  0  0  0  0  0
    5.5937   21.4296    5.3096 C   0  0  0  0  0  0  0  0  0  0  0  0
    7.8510   20.9323    4.4387 C   0  0  0  0  0  0  0  0  0  0  0  0
   13.7034   22.4619   -1.5851 C   0  0  0  0  0  0  0  0  0  0  0  0
   12.9761   21.7621   -0.5385 C   0  0  0  0  0  0  0  0  0  0  0  0
   11.8035   21.0939   -0.9115 C   0  0  0  0  0  0  0  0  0  0  0  0
   11.0553   20.3960    0.0079 C   0  0  0  0  0  0  0  0  0  0  0  0
   11.4275   20.3258    1.3303 C   0  0  0  0  0  0  0  0  0  0  0  0
   12.5729   20.9724    1.7203 C   0  0  0  0  0  0  0  0  0  0  0  0
   13.3080   21.6651    0.7868 C   0  0  0  0  0  0  0  0  0  0  0  0
   14.5644   24.6543   -2.4557 C   0  0  0  0  0  0  0  0  0  0  0  0
   15.1861   23.7359   -3.4787 C   0  0  0  0  0  0  0  0  0  0  0  0
   15.4316   24.4379   -4.7731 C   0  0  0  0  0  0  0  0  0  0  0  0
   15.9501   25.8178   -4.5806 C   0  0  0  0  0  0  0  0  0  0  0  0
   15.4532   27.0378   -5.7198 S   0  0  0  0  0  0  0  0  0  0  0  0
   15.9211   28.6332   -5.3600 N   0  0  0  0  0  0  0  0  0  0  0  0
   13.9380   27.0047   -5.9215 O   0  0  0  0  0  0  0  0  0  0  0  0
   16.0137   26.7282   -7.1073 O   0  0  0  0  0  0  0  0  0  0  0  0
   15.2651   29.3526   -5.6814 H   0  0  0  0  0  0  0  0  0  0  0  0
   16.9129   28.7888   -5.6265 H   0  0  0  0  0  0  0  0  0  0  0  0
 13 14  1  0  0  0
 14 15  1  0  0  0
 14 16  1  0  0  0
 14 12  1  0  0  0
 12  6  1  0  0  0
  6  7  2  0  0  0
  7  8  1  0  0  0
  8  9  2  0  0  0
  9 10  1  0  0  0
 10 11  2  0  0  0
  9  4  1  0  0  0
  4  5  2  0  0  0
  5  1  1  0  0  0
  1  2  2  0  0  0
  1  3  1  0  0  0
  3 17  1  0  0  0
 17 18  1  0  0  0
 18 19  2  0  0  0
 19 20  1  0  0  0
 20 21  2  0  0  0
 21 22  1  0  0  0
 22 23  2  0  0  0
  3 24  1  0  0  0
 24 25  1  0  0  0
 25 26  1  0  0  0
 26 27  1  0  0  0
 27 28  1  0  0  0
 28 29  1  0  0  0
 28 30  2  0  0  0
 28 31  2  0  0  0
 11  6  1  0  0  0
 23 18  1  0  0  0
 29 32  1  0  0  0
 29 33  1  0  0  0
M  END
> <minimizedAffinity>
-7.89120

> <CNNscore>
0.2478697747

> <CNNaffinity>
6.6401076317

> <CNN_VS>
1.6458820105

> <CNNaffinity_variance>
0.2571802735

$$$$
[H]C(C(=O)N(C([H])([H])c1c([H])c([H])c([H])c([H])c1[H])C([H])([H])C([H])([H])C([H])([H])C([H])([H])S(=O)(=O)N([H])[H])=C([H])c1c([H])c([H])c(OC(C([H])([H])[H])(C([H])([H])[H])C([H])([H])[H])c([H])c1[H]


 33 34  0  0  0  0  0  0  0  0999 V2000
   12.8372   24.4656   -1.1556 C   0  0  0  0  0  0  0  0  0  0  0  0
   12.7877   25.6942   -1.6850 O   0  0  0  0  0  0  0  0  0  0  0  0
   13.9356   23.6905   -1.5080 N   0  0  0  0  0  0  0  0  0  0  0  0
   11.2822   24.6971    0.7859 C   0  0  0  0  0  0  0  0  0  0  0  0
   11.7229   24.2032   -0.3162 C   0  0  0  0  0  0  0  0  0  0  0  0
    7.7367   23.2763    2.6607 C   0  0  0  0  0  0  0  0  0  0  0  0
    8.0394   22.9058    1.3775 C   0  0  0  0  0  0  0  0  0  0  0  0
    9.1836   23.3760    0.7991 C   0  0  0  0  0  0  0  0  0  0  0  0
   10.0821   24.2288    1.4493 C   0  0  0  0  0  0  0  0  0  0  0  0
    9.7479   24.5747    2.7219 C   0  0  0  0  0  0  0  0  0  0  0  0
    8.5931   24.1108    3.3297 C   0  0  0  0  0  0  0  0  0  0  0  0
    6.5961   22.8353    3.3005 O   0  0  0  0  0  0  0  0  0  0  0  0
    5.8456   20.5824    2.9768 C   0  0  0  0  0  0  0  0  0  0  0  0
    6.5686   21.5590    3.9032 C   0  0  0  0  0  0  0  0  0  0  0  0
    5.8156   21.6327    5.2102 C   0  0  0  0  0  0  0  0  0  0  0  0
    7.9541   21.0072    4.1440 C   0  0  0  0  0  0  0  0  0  0  0  0
   14.1846   22.3597   -1.1058 C   0  0  0  0  0  0  0  0  0  0  0  0
   13.1368   21.6266   -0.4141 C   0  0  0  0  0  0  0  0  0  0  0  0
   13.2275   21.5444    0.9808 C   0  0  0  0  0  0  0  0  0  0  0  0
   12.2768   20.8808    1.7210 C   0  0  0  0  0  0  0  0  0  0  0  0
   11.1989   20.2709    1.1223 C   0  0  0  0  0  0  0  0  0  0  0  0
   11.0879   20.3376   -0.2434 C   0  0  0  0  0  0  0  0  0  0  0  0
   12.0484   21.0056   -0.9668 C   0  0  0  0  0  0  0  0  0  0  0  0
   14.9486   24.4109   -2.3366 C   0  0  0  0  0  0  0  0  0  0  0  0
   15.2159   23.5600   -3.5537 C   0  0  0  0  0  0  0  0  0  0  0  0
   15.6526   24.3853   -4.7185 C   0  0  0  0  0  0  0  0  0  0  0  0
   15.7560   25.8299   -4.3832 C   0  0  0  0  0  0  0  0  0  0  0  0
   15.3778   26.9823   -5.6330 S   0  0  0  0  0  0  0  0  0  0  0  0
   15.9007   28.5784   -5.3632 N   0  0  0  0  0  0  0  0  0  0  0  0
   13.8754   26.9996   -5.9164 O   0  0  0  0  0  0  0  0  0  0  0  0
   15.9954   26.5467   -6.9612 O   0  0  0  0  0  0  0  0  0  0  0  0
   15.2971   29.2995   -5.7715 H   0  0  0  0  0  0  0  0  0  0  0  0
   16.9113   28.6708   -5.5842 H   0  0  0  0  0  0  0  0  0  0  0  0
 13 14  1  0  0  0
 14 15  1  0  0  0
 14 16  1  0  0  0
 14 12  1  0  0  0
 12  6  1  0  0  0
  6  7  2  0  0  0
  7  8  1  0  0  0
  8  9  2  0  0  0
  9 10  1  0  0  0
 10 11  2  0  0  0
  9  4  1  0  0  0
  4  5  2  0  0  0
  5  1  1  0  0  0
  1  2  2  0  0  0
  1  3  1  0  0  0
  3 17  1  0  0  0
 17 18  1  0  0  0
 18 19  2  0  0  0
 19 20  1  0  0  0
 20 21  2  0  0  0
 21 22  1  0  0  0
 22 23  2  0  0  0
  3 24  1  0  0  0
 24 25  1  0  0  0
 25 26  1  0  0  0
 26 27  1  0  0  0
 27 28  1  0  0  0
 28 29  1  0  0  0
 28 30  2  0  0  0
 28 31  2  0  0  0
 11  6  1  0  0  0
 23 18  1  0  0  0
 29 32  1  0  0  0
 29 33  1  0  0  0
M  END
> <minimizedAffinity>
-8.03640

> <CNNscore>
0.2472597212

> <CNNaffinity>
6.6940636635

> <CNN_VS>
1.6551723480

> <CNNaffinity_variance>
0.2461299598

$$$$
[H]O[C@]1([H])C([H])([H])C([H])([H])[C@]([H])(c2nc(-c3c([H])c([H])c(C(=O)N([H])c4nc([H])c([H])c(C(F)(F)F)c4[H])c([H])c3F)c3c(N([H])[H])nc([H])c([H])n32)C([H])([H])C1([H])[H]


 41 45  0  0  0  0  0  0  0  0999 V2000
   14.3820   25.4344   -1.6376 C   0  0  0  0  0  0  0  0  0  0  0  0
   14.7955   25.7673   -2.9493 C   0  0  0  0  0  0  0  0  0  0  0  0
   14.0249   26.6017   -3.6752 C   0  0  0  0  0  0  0  0  0  0  0  0
   12.8283   27.1620   -3.1994 C   0  0  0  0  0  0  0  0  0  0  0  0
   12.4393   26.8547   -1.9379 C   0  0  0  0  0  0  0  0  0  0  0  0
   13.2342   25.9876   -1.1818 C   0  0  0  0  0  0  0  0  0  0  0  0
   12.7640   25.7199    0.0866 F   0  0  0  0  0  0  0  0  0  0  0  0
   12.5766   22.8881   -1.5843 N   0  0  0  0  0  0  0  0  0  0  0  0
   13.6047   22.3574   -0.7928 C   0  0  0  0  0  0  0  0  0  0  0  0
   13.5283   21.1241   -0.2710 N   0  0  0  0  0  0  0  0  0  0  0  0
   14.5418   20.6188    0.4370 C   0  0  0  0  0  0  0  0  0  0  0  0
   15.6717   21.3805    0.6268 C   0  0  0  0  0  0  0  0  0  0  0  0
   15.7816   22.6033    0.1255 N   0  0  0  0  0  0  0  0  0  0  0  0
   16.7849   23.5204    0.1894 C   0  0  0  0  0  0  0  0  0  0  0  0
   16.3343   24.5689   -0.4883 N   0  0  0  0  0  0  0  0  0  0  0  0
   15.0819   24.3493   -0.9732 C   0  0  0  0  0  0  0  0  0  0  0  0
   14.7457   23.1162   -0.5944 C   0  0  0  0  0  0  0  0  0  0  0  0
   11.6005   22.8951   -1.2441 H   0  0  0  0  0  0  0  0  0  0  0  0
   12.8085   23.2644   -2.5053 H   0  0  0  0  0  0  0  0  0  0  0  0
   18.1191   23.4065    0.8711 C   0  0  0  0  0  0  0  0  0  0  0  0
   18.1457   24.3068    2.0474 C   0  0  0  0  0  0  0  0  0  0  0  0
   19.4960   24.6745    2.5587 C   0  0  0  0  0  0  0  0  0  0  0  0
   20.5376   23.7865    1.9131 C   0  0  0  0  0  0  0  0  0  0  0  0
   21.7951   24.1314    2.3627 O   0  0  0  0  0  0  0  0  0  0  0  0
   20.4949   24.1317    0.4341 C   0  0  0  0  0  0  0  0  0  0  0  0
   19.2187   23.5089   -0.0965 C   0  0  0  0  0  0  0  0  0  0  0  0
   22.2146   23.4619    2.9677 H   0  0  0  0  0  0  0  0  0  0  0  0
   11.9717   27.8714   -4.1289 C   0  0  0  0  0  0  0  0  0  0  0  0
   11.8407   27.3509   -5.3276 O   0  0  0  0  0  0  0  0  0  0  0  0
   11.2641   29.0361   -3.8382 N   0  0  0  0  0  0  0  0  0  0  0  0
   11.3162   29.5412   -2.9564 H   0  0  0  0  0  0  0  0  0  0  0  0
   10.2530   29.4175   -4.7994 C   0  0  0  0  0  0  0  0  0  0  0  0
   10.2279   30.6212   -5.3813 C   0  0  0  0  0  0  0  0  0  0  0  0
    9.1681   30.9783   -6.2278 C   0  0  0  0  0  0  0  0  0  0  0  0
    8.1188   30.0667   -6.4699 C   0  0  0  0  0  0  0  0  0  0  0  0
    8.1935   28.8483   -5.8505 C   0  0  0  0  0  0  0  0  0  0  0  0
    9.2280   28.5557   -5.0539 N   0  0  0  0  0  0  0  0  0  0  0  0
    9.1321   32.2889   -6.9191 C   0  0  0  0  0  0  0  0  0  0  0  0
    7.8775   32.5570   -7.3861 F   0  0  0  0  0  0  0  0  0  0  0  0
    9.5150   33.2456   -5.9856 F   0  0  0  0  0  0  0  0  0  0  0  0
   10.0917   32.2631   -7.9346 F   0  0  0  0  0  0  0  0  0  0  0  0
  8  9  1  0  0  0
  9 10  2  0  0  0
 10 11  1  0  0  0
 11 12  2  0  0  0
 12 13  1  0  0  0
 13 14  1  0  0  0
 14 15  2  0  0  0
 15 16  1  0  0  0
 16  1  1  0  0  0
  1  2  2  0  0  0
  2  3  1  0  0  0
  3  4  2  0  0  0
  4  5  1  0  0  0
  5  6  2  0  0  0
  6  7  1  0  0  0
  4 28  1  0  0  0
 28 29  2  0  0  0
 28 30  1  0  0  0
 30 32  1  0  0  0
 32 33  2  0  0  0
 33 34  1  0  0  0
 34 35  2  0  0  0
 35 36  1  0  0  0
 36 37  2  0  0  0
 34 38  1  0  0  0
 38 39  1  0  0  0
 38 40  1  0  0  0
 38 41  1  0  0  0
 16 17  2  0  0  0
 14 20  1  0  0  0
 20 21  1  0  0  0
 21 22  1  0  0  0
 22 23  1  0  0  0
 23 24  1  0  0  0
 23 25  1  0  0  0
 25 26  1  0  0  0
 17  9  1  0  0  0
 26 20  1  0  0  0
 17 13  1  0  0  0
  6  1  1  0  0  0
 37 32  1  0  0  0
  8 18  1  0  0  0
  8 19  1  0  0  0
 30 31  1  0  0  0
 24 27  1  0  0  0
M  END
> <minimizedAffinity>
42.56121

> <CNNscore>
0.3997790217

> <CNNaffinity>
7.2732148170

> <CNN_VS>
2.9076786041

> <CNNaffinity_variance>
0.5376412272

$$$$
[H]O[C@]1([H])C([H])([H])C([H])([H])[C@]([H])(c2nc(-c3c([H])c([H])c(C(=O)N([H])c4nc([H])c([H])c(C(F)(F)F)c4[H])c([H])c3F)c3c(N([H])[H])nc([H])c([H])n32)C([H])([H])C1([H])[H]


 41 45  0  0  0  0  0  0  0  0999 V2000
   13.5898   23.7353   -0.5851 C   0  0  0  0  0  0  0  0  0  0  0  0
   13.5662   24.1484    0.7681 C   0  0  0  0  0  0  0  0  0  0  0  0
   13.0754   23.2988    1.6923 C   0  0  0  0  0  0  0  0  0  0  0  0
   12.5835   22.0197    1.3852 C   0  0  0  0  0  0  0  0  0  0  0  0
   12.6190   21.6182    0.0911 C   0  0  0  0  0  0  0  0  0  0  0  0
   13.1252   22.4970   -0.8717 C   0  0  0  0  0  0  0  0  0  0  0  0
   13.1184   22.0155   -2.1638 F   0  0  0  0  0  0  0  0  0  0  0  0
   10.9264   24.8111   -1.8081 N   0  0  0  0  0  0  0  0  0  0  0  0
   11.7798   25.5102   -2.6732 C   0  0  0  0  0  0  0  0  0  0  0  0
   11.3043   26.2843   -3.6600 N   0  0  0  0  0  0  0  0  0  0  0  0
   12.1340   26.9823   -4.4396 C   0  0  0  0  0  0  0  0  0  0  0  0
   13.4895   26.8989   -4.2192 C   0  0  0  0  0  0  0  0  0  0  0  0
   13.9945   26.1439   -3.2530 N   0  0  0  0  0  0  0  0  0  0  0  0
   15.2774   25.9119   -2.8632 C   0  0  0  0  0  0  0  0  0  0  0  0
   15.1787   25.0628   -1.8479 N   0  0  0  0  0  0  0  0  0  0  0  0
   13.8813   24.7464   -1.5858 C   0  0  0  0  0  0  0  0  0  0  0  0
   13.1457   25.4321   -2.4609 C   0  0  0  0  0  0  0  0  0  0  0  0
   10.1875   24.1934   -2.1833 H   0  0  0  0  0  0  0  0  0  0  0  0
   11.0454   24.9260   -0.8000 H   0  0  0  0  0  0  0  0  0  0  0  0
   16.5486   26.4726   -3.4354 C   0  0  0  0  0  0  0  0  0  0  0  0
   17.5483   26.6224   -2.3523 C   0  0  0  0  0  0  0  0  0  0  0  0
   18.6684   27.5667   -2.6226 C   0  0  0  0  0  0  0  0  0  0  0  0
   18.6709   27.9380   -4.0897 C   0  0  0  0  0  0  0  0  0  0  0  0
   19.6912   28.8291   -4.3488 O   0  0  0  0  0  0  0  0  0  0  0  0
   17.3697   28.6899   -4.3132 C   0  0  0  0  0  0  0  0  0  0  0  0
   16.2777   27.6389   -4.2853 C   0  0  0  0  0  0  0  0  0  0  0  0
   20.4433   28.4517   -4.8799 H   0  0  0  0  0  0  0  0  0  0  0  0
   11.8862   21.2744    2.4143 C   0  0  0  0  0  0  0  0  0  0  0  0
   12.3311   21.4049    3.6431 O   0  0  0  0  0  0  0  0  0  0  0  0
   10.7750   20.4609    2.2016 N   0  0  0  0  0  0  0  0  0  0  0  0
   10.3675   20.2629    1.2905 H   0  0  0  0  0  0  0  0  0  0  0  0
   10.0614   20.0434    3.3882 C   0  0  0  0  0  0  0  0  0  0  0  0
    8.9053   20.5980    3.7678 C   0  0  0  0  0  0  0  0  0  0  0  0
    8.3058   20.2293    4.9810 C   0  0  0  0  0  0  0  0  0  0  0  0
    8.9219   19.2687    5.8107 C   0  0  0  0  0  0  0  0  0  0  0  0
   10.1032   18.7315    5.3751 C   0  0  0  0  0  0  0  0  0  0  0  0
   10.6323   19.1157    4.2077 N   0  0  0  0  0  0  0  0  0  0  0  0
    7.0052   20.7959    5.4101 C   0  0  0  0  0  0  0  0  0  0  0  0
    7.1863   21.9635    6.0942 F   0  0  0  0  0  0  0  0  0  0  0  0
    6.2653   21.0223    4.2548 F   0  0  0  0  0  0  0  0  0  0  0  0
    6.3444   19.8243    6.1666 F   0  0  0  0  0  0  0  0  0  0  0  0
  8  9  1  0  0  0
  9 10  2  0  0  0
 10 11  1  0  0  0
 11 12  2  0  0  0
 12 13  1  0  0  0
 13 14  1  0  0  0
 14 15  2  0  0  0
 15 16  1  0  0  0
 16  1  1  0  0  0
  1  2  2  0  0  0
  2  3  1  0  0  0
  3  4  2  0  0  0
  4  5  1  0  0  0
  5  6  2  0  0  0
  6  7  1  0  0  0
  4 28  1  0  0  0
 28 29  2  0  0  0
 28 30  1  0  0  0
 30 32  1  0  0  0
 32 33  2  0  0  0
 33 34  1  0  0  0
 34 35  2  0  0  0
 35 36  1  0  0  0
 36 37  2  0  0  0
 34 38  1  0  0  0
 38 39  1  0  0  0
 38 40  1  0  0  0
 38 41  1  0  0  0
 16 17  2  0  0  0
 14 20  1  0  0  0
 20 21  1  0  0  0
 21 22  1  0  0  0
 22 23  1  0  0  0
 23 24  1  0  0  0
 23 25  1  0  0  0
 25 26  1  0  0  0
 17  9  1  0  0  0
 26 20  1  0  0  0
 17 13  1  0  0  0
  6  1  1  0  0  0
 37 32  1  0  0  0
  8 18  1  0  0  0
  8 19  1  0  0  0
 30 31  1  0  0  0
 24 27  1  0  0  0
M  END
> <minimizedAffinity>
4.25009

> <CNNscore>
0.3733840287

> <CNNaffinity>
7.4083738327

> <CNN_VS>
2.7661683559

> <CNNaffinity_variance>
0.8068725467

$$$$
[H]O[C@]1([H])C([H])([H])C([H])([H])[C@]([H])(c2nc(-c3c([H])c([H])c(C(=O)N([H])c4nc([H])c([H])c(C(F)(F)F)c4[H])c([H])c3F)c3c(N([H])[H])nc([H])c([H])n32)C([H])([H])C1([H])[H]


 41 45  0  0  0  0  0  0  0  0999 V2000
   12.8295   23.8583   -1.6863 C   0  0  0  0  0  0  0  0  0  0  0  0
   12.3404   25.1761   -1.8493 C   0  0  0  0  0  0  0  0  0  0  0  0
   12.9703   25.9942   -2.7159 C   0  0  0  0  0  0  0  0  0  0  0  0
   14.0908   25.6092   -3.4698 C   0  0  0  0  0  0  0  0  0  0  0  0
   14.5509   24.3426   -3.3246 C   0  0  0  0  0  0  0  0  0  0  0  0
   13.9021   23.4908   -2.4250 C   0  0  0  0  0  0  0  0  0  0  0  0
   14.4372   22.2235   -2.3303 F   0  0  0  0  0  0  0  0  0  0  0  0
   15.1695   22.4492   -0.1746 N   0  0  0  0  0  0  0  0  0  0  0  0
   14.1361   21.8393    0.5503 C   0  0  0  0  0  0  0  0  0  0  0  0
   14.3850   20.9298    1.5042 N   0  0  0  0  0  0  0  0  0  0  0  0
   13.3886   20.3997    2.2181 C   0  0  0  0  0  0  0  0  0  0  0  0
   12.0965   20.7981    1.9638 C   0  0  0  0  0  0  0  0  0  0  0  0
   11.8138   21.6947    1.0286 N   0  0  0  0  0  0  0  0  0  0  0  0
   10.6320   22.2245    0.6110 C   0  0  0  0  0  0  0  0  0  0  0  0
   10.9587   23.0666   -0.3616 N   0  0  0  0  0  0  0  0  0  0  0  0
   12.3024   23.0842   -0.5765 C   0  0  0  0  0  0  0  0  0  0  0  0
   12.8321   22.2321    0.3012 C   0  0  0  0  0  0  0  0  0  0  0  0
   15.8864   21.8774   -0.6516 H   0  0  0  0  0  0  0  0  0  0  0  0
   15.2035   23.4692   -0.2199 H   0  0  0  0  0  0  0  0  0  0  0  0
    9.2452   21.9391    1.1140 C   0  0  0  0  0  0  0  0  0  0  0  0
    8.3439   23.0463    0.7183 C   0  0  0  0  0  0  0  0  0  0  0  0
    7.0810   23.1717    1.4987 C   0  0  0  0  0  0  0  0  0  0  0  0
    6.8844   21.9300    2.3412 C   0  0  0  0  0  0  0  0  0  0  0  0
    5.7286   22.0432    3.0851 O   0  0  0  0  0  0  0  0  0  0  0  0
    8.0390   21.9311    3.3289 C   0  0  0  0  0  0  0  0  0  0  0  0
    9.2657   21.5426    2.5276 C   0  0  0  0  0  0  0  0  0  0  0  0
    4.9893   21.4451    2.7918 H   0  0  0  0  0  0  0  0  0  0  0  0
   14.8177   26.6234   -4.2074 C   0  0  0  0  0  0  0  0  0  0  0  0
   16.0823   26.3767   -4.4624 O   0  0  0  0  0  0  0  0  0  0  0  0
   14.2724   27.8140   -4.6837 N   0  0  0  0  0  0  0  0  0  0  0  0
   13.3166   28.1211   -4.5174 H   0  0  0  0  0  0  0  0  0  0  0  0
   15.0822   28.5443   -5.6335 C   0  0  0  0  0  0  0  0  0  0  0  0
   15.6763   27.9567   -6.6777 C   0  0  0  0  0  0  0  0  0  0  0  0
   16.5349   28.6892   -7.5104 C   0  0  0  0  0  0  0  0  0  0  0  0
   16.7781   30.0543   -7.2494 C   0  0  0  0  0  0  0  0  0  0  0  0
   16.1446   30.6071   -6.1692 C   0  0  0  0  0  0  0  0  0  0  0  0
   15.3326   29.8649   -5.4074 N   0  0  0  0  0  0  0  0  0  0  0  0
   17.1762   28.0771   -8.6982 C   0  0  0  0  0  0  0  0  0  0  0  0
   17.4636   26.7619   -8.4710 F   0  0  0  0  0  0  0  0  0  0  0  0
   16.2744   28.2003   -9.7493 F   0  0  0  0  0  0  0  0  0  0  0  0
   18.3109   28.8317   -9.0077 F   0  0  0  0  0  0  0  0  0  0  0  0
  8  9  1  0  0  0
  9 10  2  0  0  0
 10 11  1  0  0  0
 11 12  2  0  0  0
 12 13  1  0  0  0
 13 14  1  0  0  0
 14 15  2  0  0  0
 15 16  1  0  0  0
 16  1  1  0  0  0
  1  2  2  0  0  0
  2  3  1  0  0  0
  3  4  2  0  0  0
  4  5  1  0  0  0
  5  6  2  0  0  0
  6  7  1  0  0  0
  4 28  1  0  0  0
 28 29  2  0  0  0
 28 30  1  0  0  0
 30 32  1  0  0  0
 32 33  2  0  0  0
 33 34  1  0  0  0
 34 35  2  0  0  0
 35 36  1  0  0  0
 36 37  2  0  0  0
 34 38  1  0  0  0
 38 39  1  0  0  0
 38 40  1  0  0  0
 38 41  1  0  0  0
 16 17  2  0  0  0
 14 20  1  0  0  0
 20 21  1  0  0  0
 21 22  1  0  0  0
 22 23  1  0  0  0
 23 24  1  0  0  0
 23 25  1  0  0  0
 25 26  1  0  0  0
 17  9  1  0  0  0
 26 20  1  0  0  0
 17 13  1  0  0  0
  6  1  1  0  0  0
 37 32  1  0  0  0
  8 18  1  0  0  0
  8 19  1  0  0  0
 30 31  1  0  0  0
 24 27  1  0  0  0
M  END
> <minimizedAffinity>
22.32998

> <CNNscore>
0.3614765406

> <CNNaffinity>
7.2963905334

> <CNN_VS>
2.6374740601

> <CNNaffinity_variance>
0.5497480631

$$$$
[H]O[C@]1([H])C([H])([H])C([H])([H])[C@]([H])(c2nc(-c3c([H])c([H])c(C(=O)N([H])c4nc([H])c([H])c(C(F)(F)F)c4[H])c([H])c3F)c3c(N([H])[H])nc([H])c([H])n32)C([H])([H])C1([H])[H]


 41 45  0  0  0  0  0  0  0  0999 V2000
   12.4191   22.8184   -1.0577 C   0  0  0  0  0  0  0  0  0  0  0  0
   11.1857   23.4742   -0.8318 C   0  0  0  0  0  0  0  0  0  0  0  0
   10.0977   22.7250   -0.5636 C   0  0  0  0  0  0  0  0  0  0  0  0
   10.1204   21.3225   -0.4955 C   0  0  0  0  0  0  0  0  0  0  0  0
   11.3046   20.6947   -0.6977 C   0  0  0  0  0  0  0  0  0  0  0  0
   12.4357   21.4675   -0.9786 C   0  0  0  0  0  0  0  0  0  0  0  0
   13.5973   20.7521   -1.1795 F   0  0  0  0  0  0  0  0  0  0  0  0
   14.7490   22.9380    1.0168 N   0  0  0  0  0  0  0  0  0  0  0  0
   15.3142   23.8422    0.1068 C   0  0  0  0  0  0  0  0  0  0  0  0
   16.4833   24.4521    0.3522 N   0  0  0  0  0  0  0  0  0  0  0  0
   17.0291   25.2701   -0.5515 C   0  0  0  0  0  0  0  0  0  0  0  0
   16.3761   25.4823   -1.7437 C   0  0  0  0  0  0  0  0  0  0  0  0
   15.2191   24.8962   -2.0199 N   0  0  0  0  0  0  0  0  0  0  0  0
   14.4097   24.9617   -3.1118 C   0  0  0  0  0  0  0  0  0  0  0  0
   13.3819   24.1726   -2.8243 N   0  0  0  0  0  0  0  0  0  0  0  0
   13.5104   23.6155   -1.5893 C   0  0  0  0  0  0  0  0  0  0  0  0
   14.6645   24.0640   -1.0955 C   0  0  0  0  0  0  0  0  0  0  0  0
   14.6108   23.2039    2.0061 H   0  0  0  0  0  0  0  0  0  0  0  0
   14.4794   22.0100    0.6857 H   0  0  0  0  0  0  0  0  0  0  0  0
   14.6033   25.7466   -4.3784 C   0  0  0  0  0  0  0  0  0  0  0  0
   15.1811   24.8630   -5.4178 C   0  0  0  0  0  0  0  0  0  0  0  0
   15.8587   25.5474   -6.5546 C   0  0  0  0  0  0  0  0  0  0  0  0
   15.5341   27.0251   -6.5181 C   0  0  0  0  0  0  0  0  0  0  0  0
   16.1732   27.6738   -7.5539 O   0  0  0  0  0  0  0  0  0  0  0  0
   16.1587   27.5391   -5.2319 C   0  0  0  0  0  0  0  0  0  0  0  0
   15.2763   27.0242   -4.1121 C   0  0  0  0  0  0  0  0  0  0  0  0
   15.5680   27.9924   -8.2767 H   0  0  0  0  0  0  0  0  0  0  0  0
    8.8625   20.6072   -0.4129 C   0  0  0  0  0  0  0  0  0  0  0  0
    8.9120   19.3039   -0.5673 O   0  0  0  0  0  0  0  0  0  0  0  0
    7.6233   21.1911   -0.1575 N   0  0  0  0  0  0  0  0  0  0  0  0
    7.4638   22.1907   -0.0540 H   0  0  0  0  0  0  0  0  0  0  0  0
    6.5501   20.2783    0.1688 C   0  0  0  0  0  0  0  0  0  0  0  0
    6.4011   19.0942   -0.4346 C   0  0  0  0  0  0  0  0  0  0  0  0
    5.2856   18.2910   -0.1562 C   0  0  0  0  0  0  0  0  0  0  0  0
    4.3106   18.7300    0.7643 C   0  0  0  0  0  0  0  0  0  0  0  0
    4.5114   19.9487    1.3544 C   0  0  0  0  0  0  0  0  0  0  0  0
    5.5946   20.6754    1.0561 N   0  0  0  0  0  0  0  0  0  0  0  0
    5.1128   16.9567   -0.7779 C   0  0  0  0  0  0  0  0  0  0  0  0
    6.3235   16.3859   -1.0466 F   0  0  0  0  0  0  0  0  0  0  0  0
    4.4029   16.1795    0.1305 F   0  0  0  0  0  0  0  0  0  0  0  0
    4.3261   17.1168   -1.9218 F   0  0  0  0  0  0  0  0  0  0  0  0
  8  9  1  0  0  0
  9 10  2  0  0  0
 10 11  1  0  0  0
 11 12  2  0  0  0
 12 13  1  0  0  0
 13 14  1  0  0  0
 14 15  2  0  0  0
 15 16  1  0  0  0
 16  1  1  0  0  0
  1  2  2  0  0  0
  2  3  1  0  0  0
  3  4  2  0  0  0
  4  5  1  0  0  0
  5  6  2  0  0  0
  6  7  1  0  0  0
  4 28  1  0  0  0
 28 29  2  0  0  0
 28 30  1  0  0  0
 30 32  1  0  0  0
 32 33  2  0  0  0
 33 34  1  0  0  0
 34 35  2  0  0  0
 35 36  1  0  0  0
 36 37  2  0  0  0
 34 38  1  0  0  0
 38 39  1  0  0  0
 38 40  1  0  0  0
 38 41  1  0  0  0
 16 17  2  0  0  0
 14 20  1  0  0  0
 20 21  1  0  0  0
 21 22  1  0  0  0
 22 23  1  0  0  0
 23 24  1  0  0  0
 23 25  1  0  0  0
 25 26  1  0  0  0
 17  9  1  0  0  0
 26 20  1  0  0  0
 17 13  1  0  0  0
  6  1  1  0  0  0
 37 32  1  0  0  0
  8 18  1  0  0  0
  8 19  1  0  0  0
 30 31  1  0  0  0
 24 27  1  0  0  0
M  END
> <minimizedAffinity>
-8.82438

> <CNNscore>
0.2800518274

> <CNNaffinity>
7.6056418419

> <CNN_VS>
2.1299738884

> <CNNaffinity_variance>
0.0466667339

$$$$
[H]O[C@]1([H])C([H])([H])C([H])([H])[C@]([H])(c2nc(-c3c([H])c([H])c(C(=O)N([H])c4nc([H])c([H])c(C(F)(F)F)c4[H])c([H])c3F)c3c(N([H])[H])nc([H])c([H])n32)C([H])([H])C1([H])[H]


 41 45  0  0  0  0  0  0  0  0999 V2000
   13.4780   22.4988   -0.4699 C   0  0  0  0  0  0  0  0  0  0  0  0
   12.7138   22.6227    0.7145 C   0  0  0  0  0  0  0  0  0  0  0  0
   11.6275   21.8389    0.8650 C   0  0  0  0  0  0  0  0  0  0  0  0
   11.2100   20.9013   -0.0935 C   0  0  0  0  0  0  0  0  0  0  0  0
   11.9499   20.7722   -1.2218 C   0  0  0  0  0  0  0  0  0  0  0  0
   13.0765   21.5848   -1.3835 C   0  0  0  0  0  0  0  0  0  0  0  0
   13.7684   21.3971   -2.5614 F   0  0  0  0  0  0  0  0  0  0  0  0
   12.4864   24.4272   -2.7158 N   0  0  0  0  0  0  0  0  0  0  0  0
   13.7733   24.9729   -2.6094 C   0  0  0  0  0  0  0  0  0  0  0  0
   14.1823   25.9752   -3.4014 N   0  0  0  0  0  0  0  0  0  0  0  0
   15.3943   26.5148   -3.2481 C   0  0  0  0  0  0  0  0  0  0  0  0
   16.2241   26.0295   -2.2639 C   0  0  0  0  0  0  0  0  0  0  0  0
   15.8527   25.0399   -1.4630 N   0  0  0  0  0  0  0  0  0  0  0  0
   16.4981   24.4103   -0.4437 C   0  0  0  0  0  0  0  0  0  0  0  0
   15.6426   23.4921   -0.0119 N   0  0  0  0  0  0  0  0  0  0  0  0
   14.4832   23.5156   -0.7241 C   0  0  0  0  0  0  0  0  0  0  0  0
   14.6168   24.4907   -1.6231 C   0  0  0  0  0  0  0  0  0  0  0  0
   12.1289   24.0957   -3.6273 H   0  0  0  0  0  0  0  0  0  0  0  0
   11.9065   24.3665   -1.8770 H   0  0  0  0  0  0  0  0  0  0  0  0
   17.8760   24.6687    0.0970 C   0  0  0  0  0  0  0  0  0  0  0  0
   18.8280   23.7108   -0.5123 C   0  0  0  0  0  0  0  0  0  0  0  0
   20.1085   23.5060    0.2212 C   0  0  0  0  0  0  0  0  0  0  0  0
   20.2531   24.5693    1.2883 C   0  0  0  0  0  0  0  0  0  0  0  0
   21.4255   24.3777    1.9889 O   0  0  0  0  0  0  0  0  0  0  0  0
   19.1167   24.3126    2.2637 C   0  0  0  0  0  0  0  0  0  0  0  0
   17.8580   24.7812    1.5609 C   0  0  0  0  0  0  0  0  0  0  0  0
   22.1270   25.0612    1.8134 H   0  0  0  0  0  0  0  0  0  0  0  0
    9.9176   20.2654    0.0688 C   0  0  0  0  0  0  0  0  0  0  0  0
    9.2076   20.6269    1.1128 O   0  0  0  0  0  0  0  0  0  0  0  0
    9.3685   19.3302   -0.8064 N   0  0  0  0  0  0  0  0  0  0  0  0
    9.8415   18.9555   -1.6257 H   0  0  0  0  0  0  0  0  0  0  0  0
    7.9640   19.0398   -0.6207 C   0  0  0  0  0  0  0  0  0  0  0  0
    7.3106   19.3287    0.5098 C   0  0  0  0  0  0  0  0  0  0  0  0
    5.9755   18.9335    0.6787 C   0  0  0  0  0  0  0  0  0  0  0  0
    5.3128   18.2255   -0.3462 C   0  0  0  0  0  0  0  0  0  0  0  0
    6.0267   17.9562   -1.4827 C   0  0  0  0  0  0  0  0  0  0  0  0
    7.2980   18.3580   -1.5951 N   0  0  0  0  0  0  0  0  0  0  0  0
    5.2122   19.2737    1.9027 C   0  0  0  0  0  0  0  0  0  0  0  0
    4.3432   18.2719    2.2271 F   0  0  0  0  0  0  0  0  0  0  0  0
    6.1434   19.4538    2.9194 F   0  0  0  0  0  0  0  0  0  0  0  0
    4.5694   20.4944    1.6801 F   0  0  0  0  0  0  0  0  0  0  0  0
  8  9  1  0  0  0
  9 10  2  0  0  0
 10 11  1  0  0  0
 11 12  2  0  0  0
 12 13  1  0  0  0
 13 14  1  0  0  0
 14 15  2  0  0  0
 15 16  1  0  0  0
 16  1  1  0  0  0
  1  2  2  0  0  0
  2  3  1  0  0  0
  3  4  2  0  0  0
  4  5  1  0  0  0
  5  6  2  0  0  0
  6  7  1  0  0  0
  4 28  1  0  0  0
 28 29  2  0  0  0
 28 30  1  0  0  0
 30 32  1  0  0  0
 32 33  2  0  0  0
 33 34  1  0  0  0
 34 35  2  0  0  0
 35 36  1  0  0  0
 36 37  2  0  0  0
 34 38  1  0  0  0
 38 39  1  0  0  0
 38 40  1  0  0  0
 38 41  1  0  0  0
 16 17  2  0  0  0
 14 20  1  0  0  0
 20 21  1  0  0  0
 21 22  1  0  0  0
 22 23  1  0  0  0
 23 24  1  0  0  0
 23 25  1  0  0  0
 25 26  1  0  0  0
 17  9  1  0  0  0
 26 20  1  0  0  0
 17 13  1  0  0  0
  6  1  1  0  0  0
 37 32  1  0  0  0
  8 18  1  0  0  0
  8 19  1  0  0  0
 30 31  1  0  0  0
 24 27  1  0  0  0
M  END
> <minimizedAffinity>
12.01133

> <CNNscore>
0.2623346746

> <CNNaffinity>
7.3100929260

> <CNN_VS>
1.9176908731

> <CNNaffinity_variance>
0.4828964770

$$$$
[H]O[C@]1([H])C([H])([H])C([H])([H])[C@]([H])(c2nc(-c3c([H])c([H])c(C(=O)N([H])c4nc([H])c([H])c(C(F)(F)F)c4[H])c([H])c3F)c3c(N([H])[H])nc([H])c([H])n32)C([H])([H])C1([H])[H]


 41 45  0  0  0  0  0  0  0  0999 V2000
   11.2183   22.5774   -0.2552 C   0  0  0  0  0  0  0  0  0  0  0  0
   10.9930   23.3067   -1.4468 C   0  0  0  0  0  0  0  0  0  0  0  0
   12.0514   23.8554   -2.0758 C   0  0  0  0  0  0  0  0  0  0  0  0
   13.3721   23.7430   -1.6119 C   0  0  0  0  0  0  0  0  0  0  0  0
   13.5900   23.0325   -0.4784 C   0  0  0  0  0  0  0  0  0  0  0  0
   12.4949   22.4632    0.1791 C   0  0  0  0  0  0  0  0  0  0  0  0
   12.8012   21.7647    1.3278 F   0  0  0  0  0  0  0  0  0  0  0  0
   11.5256   23.6833    2.6480 N   0  0  0  0  0  0  0  0  0  0  0  0
   10.3477   22.9621    2.8880 C   0  0  0  0  0  0  0  0  0  0  0  0
    9.7893   22.9082    4.1064 N   0  0  0  0  0  0  0  0  0  0  0  0
    8.6391   22.2582    4.3016 C   0  0  0  0  0  0  0  0  0  0  0  0
    8.0290   21.6408    3.2341 C   0  0  0  0  0  0  0  0  0  0  0  0
    8.5525   21.6738    2.0162 N   0  0  0  0  0  0  0  0  0  0  0  0
    8.1328   21.1411    0.8364 C   0  0  0  0  0  0  0  0  0  0  0  0
    9.0619   21.4876   -0.0457 N   0  0  0  0  0  0  0  0  0  0  0  0
   10.0549   22.2151    0.5347 C   0  0  0  0  0  0  0  0  0  0  0  0
    9.7264   22.3359    1.8209 C   0  0  0  0  0  0  0  0  0  0  0  0
   12.3673   23.5242    3.2266 H   0  0  0  0  0  0  0  0  0  0  0  0
   11.5362   24.3718    1.8934 H   0  0  0  0  0  0  0  0  0  0  0  0
    6.8983   20.3308    0.5584 C   0  0  0  0  0  0  0  0  0  0  0  0
    6.6790   19.3765    1.6701 C   0  0  0  0  0  0  0  0  0  0  0  0
    5.8073   18.2073    1.3655 C   0  0  0  0  0  0  0  0  0  0  0  0
    5.1051   18.4335    0.0441 C   0  0  0  0  0  0  0  0  0  0  0  0
    4.3107   17.3478   -0.2596 O   0  0  0  0  0  0  0  0  0  0  0  0
    6.2126   18.4665   -0.9956 C   0  0  0  0  0  0  0  0  0  0  0  0
    6.9109   19.7990   -0.8102 C   0  0  0  0  0  0  0  0  0  0  0  0
    3.3331   17.5215   -0.1953 H   0  0  0  0  0  0  0  0  0  0  0  0
   14.4034   24.5442   -2.2407 C   0  0  0  0  0  0  0  0  0  0  0  0
   14.5991   24.3540   -3.5254 O   0  0  0  0  0  0  0  0  0  0  0  0
   15.1741   25.5092   -1.5952 N   0  0  0  0  0  0  0  0  0  0  0  0
   15.1297   25.7161   -0.5999 H   0  0  0  0  0  0  0  0  0  0  0  0
   15.9352   26.3886   -2.4549 C   0  0  0  0  0  0  0  0  0  0  0  0
   15.4803   26.8114   -3.6393 C   0  0  0  0  0  0  0  0  0  0  0  0
   16.2986   27.5789   -4.4810 C   0  0  0  0  0  0  0  0  0  0  0  0
   17.6109   27.9093   -4.0818 C   0  0  0  0  0  0  0  0  0  0  0  0
   18.0267   27.4524   -2.8602 C   0  0  0  0  0  0  0  0  0  0  0  0
   17.2055   26.7255   -2.0936 N   0  0  0  0  0  0  0  0  0  0  0  0
   15.8098   28.0962   -5.7811 C   0  0  0  0  0  0  0  0  0  0  0  0
   14.4609   28.3036   -5.7449 F   0  0  0  0  0  0  0  0  0  0  0  0
   16.4770   29.2938   -6.0130 F   0  0  0  0  0  0  0  0  0  0  0  0
   16.1895   27.1875   -6.7726 F   0  0  0  0  0  0  0  0  0  0  0  0
  8  9  1  0  0  0
  9 10  2  0  0  0
 10 11  1  0  0  0
 11 12  2  0  0  0
 12 13  1  0  0  0
 13 14  1  0  0  0
 14 15  2  0  0  0
 15 16  1  0  0  0
 16  1  1  0  0  0
  1  2  2  0  0  0
  2  3  1  0  0  0
  3  4  2  0  0  0
  4  5  1  0  0  0
  5  6  2  0  0  0
  6  7  1  0  0  0
  4 28  1  0  0  0
 28 29  2  0  0  0
 28 30  1  0  0  0
 30 32  1  0  0  0
 32 33  2  0  0  0
 33 34  1  0  0  0
 34 35  2  0  0  0
 35 36  1  0  0  0
 36 37  2  0  0  0
 34 38  1  0  0  0
 38 39  1  0  0  0
 38 40  1  0  0  0
 38 41  1  0  0  0
 16 17  2  0  0  0
 14 20  1  0  0  0
 20 21  1  0  0  0
 21 22  1  0  0  0
 22 23  1  0  0  0
 23 24  1  0  0  0
 23 25  1  0  0  0
 25 26  1  0  0  0
 17  9  1  0  0  0
 26 20  1  0  0  0
 17 13  1  0  0  0
  6  1  1  0  0  0
 37 32  1  0  0  0
  8 18  1  0  0  0
  8 19  1  0  0  0
 30 31  1  0  0  0
 24 27  1  0  0  0
M  END
> <minimizedAffinity>
-3.11059

> <CNNscore>
0.2459153831

> <CNNaffinity>
7.2792372704

> <CNN_VS>
1.7900763750

> <CNNaffinity_variance>
1.1039574146

$$$$
[H]O[C@]1([H])C([H])([H])C([H])([H])[C@]([H])(c2nc(-c3c([H])c([H])c(C(=O)N([H])c4nc([H])c([H])c(C(F)(F)F)c4[H])c([H])c3F)c3c(N([H])[H])nc([H])c([H])n32)C([H])([H])C1([H])[H]


 41 45  0  0  0  0  0  0  0  0999 V2000
   13.6004   23.2392   -1.3573 C   0  0  0  0  0  0  0  0  0  0  0  0
   12.5591   24.1241   -0.9898 C   0  0  0  0  0  0  0  0  0  0  0  0
   11.7337   23.7657    0.0137 C   0  0  0  0  0  0  0  0  0  0  0  0
   11.8503   22.5567    0.7185 C   0  0  0  0  0  0  0  0  0  0  0  0
   12.8564   21.7152    0.3763 C   0  0  0  0  0  0  0  0  0  0  0  0
   13.7139   22.0816   -0.6658 C   0  0  0  0  0  0  0  0  0  0  0  0
   14.7044   21.1673   -0.9565 F   0  0  0  0  0  0  0  0  0  0  0  0
   13.3859   20.7945   -3.2869 N   0  0  0  0  0  0  0  0  0  0  0  0
   14.2745   21.5326   -4.0811 C   0  0  0  0  0  0  0  0  0  0  0  0
   14.7532   21.0514   -5.2380 N   0  0  0  0  0  0  0  0  0  0  0  0
   15.5578   21.7924   -6.0043 C   0  0  0  0  0  0  0  0  0  0  0  0
   15.8927   23.0618   -5.5928 C   0  0  0  0  0  0  0  0  0  0  0  0
   15.4380   23.5695   -4.4553 N   0  0  0  0  0  0  0  0  0  0  0  0
   15.6375   24.7767   -3.8597 C   0  0  0  0  0  0  0  0  0  0  0  0
   14.9401   24.7217   -2.7318 N   0  0  0  0  0  0  0  0  0  0  0  0
   14.3118   23.5227   -2.5911 C   0  0  0  0  0  0  0  0  0  0  0  0
   14.6191   22.8107   -3.6753 C   0  0  0  0  0  0  0  0  0  0  0  0
   13.6142   19.8277   -3.0008 H   0  0  0  0  0  0  0  0  0  0  0  0
   12.5067   21.2277   -2.9990 H   0  0  0  0  0  0  0  0  0  0  0  0
   16.4620   25.9367   -4.3418 C   0  0  0  0  0  0  0  0  0  0  0  0
   17.0061   26.6687   -3.1743 C   0  0  0  0  0  0  0  0  0  0  0  0
   17.4430   28.0704   -3.4273 C   0  0  0  0  0  0  0  0  0  0  0  0
   17.4935   28.3205   -4.9190 C   0  0  0  0  0  0  0  0  0  0  0  0
   17.8765   29.6221   -5.1661 O   0  0  0  0  0  0  0  0  0  0  0  0
   16.0559   28.1926   -5.3939 C   0  0  0  0  0  0  0  0  0  0  0  0
   15.7430   26.7097   -5.3623 C   0  0  0  0  0  0  0  0  0  0  0  0
   18.7901   29.7175   -5.5488 H   0  0  0  0  0  0  0  0  0  0  0  0
   10.7896   22.1745    1.6294 C   0  0  0  0  0  0  0  0  0  0  0  0
   10.9770   22.4430    2.9013 O   0  0  0  0  0  0  0  0  0  0  0  0
    9.5885   21.5752    1.2552 N   0  0  0  0  0  0  0  0  0  0  0  0
    9.3517   21.2943    0.3063 H   0  0  0  0  0  0  0  0  0  0  0  0
    8.5570   21.5412    2.2684 C   0  0  0  0  0  0  0  0  0  0  0  0
    7.7800   20.4720    2.4716 C   0  0  0  0  0  0  0  0  0  0  0  0
    6.7263   20.5257    3.3958 C   0  0  0  0  0  0  0  0  0  0  0  0
    6.4791   21.7125    4.1177 C   0  0  0  0  0  0  0  0  0  0  0  0
    7.3041   22.7769    3.8726 C   0  0  0  0  0  0  0  0  0  0  0  0
    8.2974   22.6730    2.9821 N   0  0  0  0  0  0  0  0  0  0  0  0
    5.8733   19.3457    3.6728 C   0  0  0  0  0  0  0  0  0  0  0  0
    6.6271   18.2922    4.1040 F   0  0  0  0  0  0  0  0  0  0  0  0
    4.9679   19.7270    4.6567 F   0  0  0  0  0  0  0  0  0  0  0  0
    5.1552   19.0550    2.5097 F   0  0  0  0  0  0  0  0  0  0  0  0
  8  9  1  0  0  0
  9 10  2  0  0  0
 10 11  1  0  0  0
 11 12  2  0  0  0
 12 13  1  0  0  0
 13 14  1  0  0  0
 14 15  2  0  0  0
 15 16  1  0  0  0
 16  1  1  0  0  0
  1  2  2  0  0  0
  2  3  1  0  0  0
  3  4  2  0  0  0
  4  5  1  0  0  0
  5  6  2  0  0  0
  6  7  1  0  0  0
  4 28  1  0  0  0
 28 29  2  0  0  0
 28 30  1  0  0  0
 30 32  1  0  0  0
 32 33  2  0  0  0
 33 34  1  0  0  0
 34 35  2  0  0  0
 35 36  1  0  0  0
 36 37  2  0  0  0
 34 38  1  0  0  0
 38 39  1  0  0  0
 38 40  1  0  0  0
 38 41  1  0  0  0
 16 17  2  0  0  0
 14 20  1  0  0  0
 20 21  1  0  0  0
 21 22  1  0  0  0
 22 23  1  0  0  0
 23 24  1  0  0  0
 23 25  1  0  0  0
 25 26  1  0  0  0
 17  9  1  0  0  0
 26 20  1  0  0  0
 17 13  1  0  0  0
  6  1  1  0  0  0
 37 32  1  0  0  0
  8 18  1  0  0  0
  8 19  1  0  0  0
 30 31  1  0  0  0
 24 27  1  0  0  0
M  END
> <minimizedAffinity>
5.90162

> <CNNscore>
0.2270789891

> <CNNaffinity>
7.3007521629

> <CNN_VS>
1.6578474045

> <CNNaffinity_variance>
0.4691596925

$$$$
[H]O[C@]1([H])C([H])([H])C([H])([H])[C@]([H])(c2nc(-c3c([H])c([H])c(C(=O)N([H])c4nc([H])c([H])c(C(F)(F)F)c4[H])c([H])c3F)c3c(N([H])[H])nc([H])c([H])n32)C([H])([H])C1([H])[H]


 41 45  0  0  0  0  0  0  0  0999 V2000
   11.0542   22.6130   -0.7920 C   0  0  0  0  0  0  0  0  0  0  0  0
   10.8401   23.6773   -1.6997 C   0  0  0  0  0  0  0  0  0  0  0  0
   11.8832   24.1213   -2.4289 C   0  0  0  0  0  0  0  0  0  0  0  0
   13.1773   23.5836   -2.3374 C   0  0  0  0  0  0  0  0  0  0  0  0
   13.3795   22.5546   -1.4785 C   0  0  0  0  0  0  0  0  0  0  0  0
   12.3009   22.0920   -0.7181 C   0  0  0  0  0  0  0  0  0  0  0  0
   12.5925   21.0497    0.1363 F   0  0  0  0  0  0  0  0  0  0  0  0
    9.6456   19.9377   -1.5700 N   0  0  0  0  0  0  0  0  0  0  0  0
    8.7665   20.2712   -0.5302 C   0  0  0  0  0  0  0  0  0  0  0  0
    7.7058   19.5068   -0.2307 N   0  0  0  0  0  0  0  0  0  0  0  0
    6.9109   19.8153    0.7971 C   0  0  0  0  0  0  0  0  0  0  0  0
    7.1925   20.9318    1.5502 C   0  0  0  0  0  0  0  0  0  0  0  0
    8.2324   21.7100    1.2829 N   0  0  0  0  0  0  0  0  0  0  0  0
    8.6910   22.8437    1.8796 C   0  0  0  0  0  0  0  0  0  0  0  0
    9.7620   23.1915    1.1771 N   0  0  0  0  0  0  0  0  0  0  0  0
    9.9934   22.3219    0.1561 C   0  0  0  0  0  0  0  0  0  0  0  0
    9.0400   21.3935    0.2330 C   0  0  0  0  0  0  0  0  0  0  0  0
    9.2876   19.7438   -2.5201 H   0  0  0  0  0  0  0  0  0  0  0  0
   10.6463   19.8861   -1.3712 H   0  0  0  0  0  0  0  0  0  0  0  0
    8.1312   23.5709    3.0694 C   0  0  0  0  0  0  0  0  0  0  0  0
    7.4442   24.8012    2.6118 C   0  0  0  0  0  0  0  0  0  0  0  0
    7.2409   25.8580    3.6422 C   0  0  0  0  0  0  0  0  0  0  0  0
    7.5366   25.2883    5.0127 C   0  0  0  0  0  0  0  0  0  0  0  0
    7.3724   26.2635    5.9740 O   0  0  0  0  0  0  0  0  0  0  0  0
    9.0163   24.9440    4.9909 C   0  0  0  0  0  0  0  0  0  0  0  0
    9.1364   23.7009    4.1318 C   0  0  0  0  0  0  0  0  0  0  0  0
    6.5782   26.1355    6.5597 H   0  0  0  0  0  0  0  0  0  0  0  0
   14.2668   24.2692   -3.0036 C   0  0  0  0  0  0  0  0  0  0  0  0
   15.0406   23.5403   -3.7749 O   0  0  0  0  0  0  0  0  0  0  0  0
   14.5333   25.6336   -2.9081 N   0  0  0  0  0  0  0  0  0  0  0  0
   14.0209   26.2843   -2.3170 H   0  0  0  0  0  0  0  0  0  0  0  0
   15.4772   26.1615   -3.8682 C   0  0  0  0  0  0  0  0  0  0  0  0
   16.4399   27.0271   -3.5330 C   0  0  0  0  0  0  0  0  0  0  0  0
   17.2642   27.5887   -4.5190 C   0  0  0  0  0  0  0  0  0  0  0  0
   17.0809   27.2431   -5.8746 C   0  0  0  0  0  0  0  0  0  0  0  0
   16.0824   26.3524   -6.1634 C   0  0  0  0  0  0  0  0  0  0  0  0
   15.3251   25.8432   -5.1848 N   0  0  0  0  0  0  0  0  0  0  0  0
   18.3654   28.5194   -4.1752 C   0  0  0  0  0  0  0  0  0  0  0  0
   18.1977   29.7216   -4.8001 F   0  0  0  0  0  0  0  0  0  0  0  0
   18.3357   28.6838   -2.7949 F   0  0  0  0  0  0  0  0  0  0  0  0
   19.5708   27.8988   -4.5138 F   0  0  0  0  0  0  0  0  0  0  0  0
  8  9  1  0  0  0
  9 10  2  0  0  0
 10 11  1  0  0  0
 11 12  2  0  0  0
 12 13  1  0  0  0
 13 14  1  0  0  0
 14 15  2  0  0  0
 15 16  1  0  0  0
 16  1  1  0  0  0
  1  2  2  0  0  0
  2  3  1  0  0  0
  3  4  2  0  0  0
  4  5  1  0  0  0
  5  6  2  0  0  0
  6  7  1  0  0  0
  4 28  1  0  0  0
 28 29  2  0  0  0
 28 30  1  0  0  0
 30 32  1  0  0  0
 32 33  2  0  0  0
 33 34  1  0  0  0
 34 35  2  0  0  0
 35 36  1  0  0  0
 36 37  2  0  0  0
 34 38  1  0  0  0
 38 39  1  0  0  0
 38 40  1  0  0  0
 38 41  1  0  0  0
 16 17  2  0  0  0
 14 20  1  0  0  0
 20 21  1  0  0  0
 21 22  1  0  0  0
 22 23  1  0  0  0
 23 24  1  0  0  0
 23 25  1  0  0  0
 25 26  1  0  0  0
 17  9  1  0  0  0
 26 20  1  0  0  0
 17 13  1  0  0  0
  6  1  1  0  0  0
 37 32  1  0  0  0
  8 18  1  0  0  0
  8 19  1  0  0  0
 30 31  1  0  0  0
 24 27  1  0  0  0
M  END
> <minimizedAffinity>
-0.85735

> <CNNscore>
0.2184336483

> <CNNaffinity>
7.0230607986

> <CNN_VS>
1.5340727568

> <CNNaffinity_variance>
0.7381350994

$$$$
[H]O[C@]1([H])C([H])([H])C([H])([H])[C@]([H])(c2nc(-c3c([H])c([H])c(C(=O)N([H])c4nc([H])c([H])c(C(F)(F)F)c4[H])c([H])c3F)c3c(N([H])[H])nc([H])c([H])n32)C([H])([H])C1([H])[H]


 41 45  0  0  0  0  0  0  0  0999 V2000
   11.8544   23.7561   -0.6544 C   0  0  0  0  0  0  0  0  0  0  0  0
   11.3761   22.4585   -0.9538 C   0  0  0  0  0  0  0  0  0  0  0  0
   10.3960   21.9406   -0.1870 C   0  0  0  0  0  0  0  0  0  0  0  0
    9.8201   22.6209    0.8982 C   0  0  0  0  0  0  0  0  0  0  0  0
   10.2680   23.8696    1.1764 C   0  0  0  0  0  0  0  0  0  0  0  0
   11.2864   24.4103    0.3852 C   0  0  0  0  0  0  0  0  0  0  0  0
   11.6902   25.6802    0.7396 F   0  0  0  0  0  0  0  0  0  0  0  0
   14.2963   23.4066    1.2591 N   0  0  0  0  0  0  0  0  0  0  0  0
   15.0016   24.0548    0.2355 C   0  0  0  0  0  0  0  0  0  0  0  0
   16.3055   24.3468    0.3528 N   0  0  0  0  0  0  0  0  0  0  0  0
   16.9700   24.9179   -0.6551 C   0  0  0  0  0  0  0  0  0  0  0  0
   16.2999   25.2054   -1.8218 C   0  0  0  0  0  0  0  0  0  0  0  0
   15.0114   24.9305   -1.9725 N   0  0  0  0  0  0  0  0  0  0  0  0
   14.1607   25.1264   -3.0164 C   0  0  0  0  0  0  0  0  0  0  0  0
   12.9896   24.6650   -2.5952 N   0  0  0  0  0  0  0  0  0  0  0  0
   13.0687   24.1897   -1.3225 C   0  0  0  0  0  0  0  0  0  0  0  0
   14.3362   24.3497   -0.9422 C   0  0  0  0  0  0  0  0  0  0  0  0
   14.3137   23.7744    2.2250 H   0  0  0  0  0  0  0  0  0  0  0  0
   13.7676   22.5619    1.0342 H   0  0  0  0  0  0  0  0  0  0  0  0
   14.4482   25.7321   -4.3611 C   0  0  0  0  0  0  0  0  0  0  0  0
   15.1412   24.7341   -5.2089 C   0  0  0  0  0  0  0  0  0  0  0  0
   15.9014   25.2775   -6.3693 C   0  0  0  0  0  0  0  0  0  0  0  0
   15.5363   26.7318   -6.5738 C   0  0  0  0  0  0  0  0  0  0  0  0
   16.2499   27.2526   -7.6330 O   0  0  0  0  0  0  0  0  0  0  0  0
   16.0274   27.4457   -5.3257 C   0  0  0  0  0  0  0  0  0  0  0  0
   15.0604   27.0596   -4.2241 C   0  0  0  0  0  0  0  0  0  0  0  0
   15.7049   27.4424   -8.4436 H   0  0  0  0  0  0  0  0  0  0  0  0
    8.9292   21.8966    1.7828 C   0  0  0  0  0  0  0  0  0  0  0  0
    9.4889   21.0881    2.6534 O   0  0  0  0  0  0  0  0  0  0  0  0
    7.5408   22.0148    1.7952 N   0  0  0  0  0  0  0  0  0  0  0  0
    7.0017   22.5844    1.1468 H   0  0  0  0  0  0  0  0  0  0  0  0
    6.8674   21.4324    2.9349 C   0  0  0  0  0  0  0  0  0  0  0  0
    6.3557   20.1970    2.9172 C   0  0  0  0  0  0  0  0  0  0  0  0
    5.6221   19.7169    4.0119 C   0  0  0  0  0  0  0  0  0  0  0  0
    5.4184   20.5379    5.1411 C   0  0  0  0  0  0  0  0  0  0  0  0
    5.9638   21.7930    5.1084 C   0  0  0  0  0  0  0  0  0  0  0  0
    6.6580   22.2022    4.0401 N   0  0  0  0  0  0  0  0  0  0  0  0
    5.0770   18.3389    4.0391 C   0  0  0  0  0  0  0  0  0  0  0  0
    4.3588   18.0785    2.9076 F   0  0  0  0  0  0  0  0  0  0  0  0
    6.1654   17.4784    4.1296 F   0  0  0  0  0  0  0  0  0  0  0  0
    4.3168   18.2029    5.2038 F   0  0  0  0  0  0  0  0  0  0  0  0
  8  9  1  0  0  0
  9 10  2  0  0  0
 10 11  1  0  0  0
 11 12  2  0  0  0
 12 13  1  0  0  0
 13 14  1  0  0  0
 14 15  2  0  0  0
 15 16  1  0  0  0
 16  1  1  0  0  0
  1  2  2  0  0  0
  2  3  1  0  0  0
  3  4  2  0  0  0
  4  5  1  0  0  0
  5  6  2  0  0  0
  6  7  1  0  0  0
  4 28  1  0  0  0
 28 29  2  0  0  0
 28 30  1  0  0  0
 30 32  1  0  0  0
 32 33  2  0  0  0
 33 34  1  0  0  0
 34 35  2  0  0  0
 35 36  1  0  0  0
 36 37  2  0  0  0
 34 38  1  0  0  0
 38 39  1  0  0  0
 38 40  1  0  0  0
 38 41  1  0  0  0
 16 17  2  0  0  0
 14 20  1  0  0  0
 20 21  1  0  0  0
 21 22  1  0  0  0
 22 23  1  0  0  0
 23 24  1  0  0  0
 23 25  1  0  0  0
 25 26  1  0  0  0
 17  9  1  0  0  0
 26 20  1  0  0  0
 17 13  1  0  0  0
  6  1  1  0  0  0
 37 32  1  0  0  0
  8 18  1  0  0  0
  8 19  1  0  0  0
 30 31  1  0  0  0
 24 27  1  0  0  0
M  END
> <minimizedAffinity>
-7.95158

> <CNNscore>
0.1966793686

> <CNNaffinity>
7.4152145386

> <CNN_VS>
1.4584196806

> <CNNaffinity_variance>
0.0655951053

$$$$
[H]c1c([H])c([H])c(C([H])([H])OC(=O)N([H])[C@]([H])(C(=O)N([H])[C@]([H])(C(=O)N([H])[C@]([H])(C(=O)N([H])[C@@]([H])(C([H])([H])c2c([H])c([H])c([H])c([H])c2[H])C([H])(C([H])([H])[H])C([H])([H])[H])C([H])([H])C([H])(C([H])([H])[H])C([H])([H])[H])C([H])([H])c2c([H])c([H])c([H])c([H])c2[H])C([H])(C([H])([H])[H])C([H])([H])[H])c([H])c1[H]


 52 54  0  0  0  0  0  0  0  0999 V2000
    8.9142   23.7540    1.6745 C   0  0  0  0  0  0  0  0  0  0  0  0
    9.8059   21.6750    2.7978 C   0  0  0  0  0  0  0  0  0  0  0  0
    9.0988   21.0392    1.8969 O   0  0  0  0  0  0  0  0  0  0  0  0
    9.7025   23.0604    2.6734 N   0  0  0  0  0  0  0  0  0  0  0  0
   10.2331   23.6685    3.3272 H   0  0  0  0  0  0  0  0  0  0  0  0
   10.5117   20.7905    3.6832 C   0  0  0  0  0  0  0  0  0  0  0  0
   11.8767   20.7040    3.2485 N   0  0  0  0  0  0  0  0  0  0  0  0
   12.5128   20.6577    2.0190 C   0  0  0  0  0  0  0  0  0  0  0  0
   11.9855   20.6669    0.8926 O   0  0  0  0  0  0  0  0  0  0  0  0
   12.6164   20.6689    4.0936 H   0  0  0  0  0  0  0  0  0  0  0  0
   13.9370   20.5871    1.9413 O   0  0  0  0  0  0  0  0  0  0  0  0
   14.6588   20.7164    0.7636 C   0  0  0  0  0  0  0  0  0  0  0  0
   15.3314   22.0326    0.7196 C   0  0  0  0  0  0  0  0  0  0  0  0
   16.6694   22.1689    1.0607 C   0  0  0  0  0  0  0  0  0  0  0  0
   17.3239   23.3881    1.0152 C   0  0  0  0  0  0  0  0  0  0  0  0
   16.6290   24.5225    0.6163 C   0  0  0  0  0  0  0  0  0  0  0  0
   15.3166   24.4172    0.2767 C   0  0  0  0  0  0  0  0  0  0  0  0
   14.6762   23.1885    0.3274 C   0  0  0  0  0  0  0  0  0  0  0  0
    9.0289   21.4379    5.6115 C   0  0  0  0  0  0  0  0  0  0  0  0
   10.3129   20.7823    5.1286 C   0  0  0  0  0  0  0  0  0  0  0  0
   10.0588   19.2837    5.5204 C   0  0  0  0  0  0  0  0  0  0  0  0
    9.5390   23.7579    0.3464 C   0  0  0  0  0  0  0  0  0  0  0  0
    8.8832   24.2721   -0.6140 O   0  0  0  0  0  0  0  0  0  0  0  0
   10.7989   23.2335    0.0890 N   0  0  0  0  0  0  0  0  0  0  0  0
   11.3792   22.7911    0.8705 H   0  0  0  0  0  0  0  0  0  0  0  0
   11.4786   23.2130   -1.1928 C   0  0  0  0  0  0  0  0  0  0  0  0
   12.2550   24.4424   -1.4367 C   0  0  0  0  0  0  0  0  0  0  0  0
   12.1644   25.4455   -0.6441 O   0  0  0  0  0  0  0  0  0  0  0  0
   13.1408   24.6077   -2.5322 N   0  0  0  0  0  0  0  0  0  0  0  0
   13.2312   23.8188   -3.2053 H   0  0  0  0  0  0  0  0  0  0  0  0
   13.9210   25.8132   -2.7607 C   0  0  0  0  0  0  0  0  0  0  0  0
   13.2942   26.5874   -3.8445 C   0  0  0  0  0  0  0  0  0  0  0  0
   11.8140   26.8074   -3.7713 C   0  0  0  0  0  0  0  0  0  0  0  0
   13.7403   26.1728   -5.2373 C   0  0  0  0  0  0  0  0  0  0  0  0
   15.3654   25.5023   -2.7908 C   0  0  0  0  0  0  0  0  0  0  0  0
   16.3112   26.4998   -3.2307 C   0  0  0  0  0  0  0  0  0  0  0  0
   17.4478   26.8280   -2.5301 C   0  0  0  0  0  0  0  0  0  0  0  0
   18.3326   27.7884   -2.9452 C   0  0  0  0  0  0  0  0  0  0  0  0
   18.1106   28.4790   -4.1097 C   0  0  0  0  0  0  0  0  0  0  0  0
   16.9661   28.1731   -4.8499 C   0  0  0  0  0  0  0  0  0  0  0  0
   16.1247   27.2112   -4.3889 C   0  0  0  0  0  0  0  0  0  0  0  0
   10.6187   22.7462   -2.3032 C   0  0  0  0  0  0  0  0  0  0  0  0
    9.8425   21.4987   -2.0740 C   0  0  0  0  0  0  0  0  0  0  0  0
   10.8455   20.4611   -1.5390 C   0  0  0  0  0  0  0  0  0  0  0  0
    9.2470   20.8783   -3.3081 C   0  0  0  0  0  0  0  0  0  0  0  0
    8.4353   25.1160    2.0821 C   0  0  0  0  0  0  0  0  0  0  0  0
    7.6206   25.1180    3.3239 C   0  0  0  0  0  0  0  0  0  0  0  0
    6.9903   23.9697    3.7371 C   0  0  0  0  0  0  0  0  0  0  0  0
    6.2070   23.9501    4.8943 C   0  0  0  0  0  0  0  0  0  0  0  0
    6.0816   25.1093    5.6123 C   0  0  0  0  0  0  0  0  0  0  0  0
    6.7167   26.2566    5.1931 C   0  0  0  0  0  0  0  0  0  0  0  0
    7.4788   26.2680    4.0634 C   0  0  0  0  0  0  0  0  0  0  0  0
 19 20  1  0  0  0
 20 21  1  0  0  0
 20  6  1  0  0  0
  6  7  1  0  0  0
  7  8  1  0  0  0
  8  9  2  0  0  0
  8 11  1  0  0  0
 11 12  1  0  0  0
 12 13  1  0  0  0
 13 14  2  0  0  0
 14 15  1  0  0  0
 15 16  2  0  0  0
 16 17  1  0  0  0
 17 18  2  0  0  0
  6  2  1  0  0  0
  2  3  2  0  0  0
  2  4  1  0  0  0
  4  1  1  0  0  0
  1 46  1  0  0  0
 46 47  1  0  0  0
 47 48  2  0  0  0
 48 49  1  0  0  0
 49 50  2  0  0  0
 50 51  1  0  0  0
 51 52  2  0  0  0
  1 22  1  0  0  0
 22 23  2  0  0  0
 22 24  1  0  0  0
 24 26  1  0  0  0
 26 42  1  0  0  0
 42 43  1  0  0  0
 43 44  1  0  0  0
 43 45  1  0  0  0
 26 27  1  0  0  0
 27 28  2  0  0  0
 27 29  1  0  0  0
 29 31  1  0  0  0
 31 35  1  0  0  0
 35 36  1  0  0  0
 36 37  2  0  0  0
 37 38  1  0  0  0
 38 39  2  0  0  0
 39 40  1  0  0  0
 40 41  2  0  0  0
 31 32  1  0  0  0
 32 33  1  0  0  0
 32 34  1  0  0  0
 18 13  1  0  0  0
 52 47  1  0  0  0
 41 36  1  0  0  0
  7 10  1  0  0  0
  4  5  1  0  0  0
 24 25  1  0  0  0
 29 30  1  0  0  0
M  END
> <minimizedAffinity>
-1.99514

> <CNNscore>
0.4147160649

> <CNNaffinity>
7.8870911598

> <CNN_VS>
3.2709033489

> <CNNaffinity_variance>
0.1814188361

$$$$
[H]c1c([H])c([H])c(C([H])([H])OC(=O)N([H])[C@]([H])(C(=O)N([H])[C@]([H])(C(=O)N([H])[C@]([H])(C(=O)N([H])[C@@]([H])(C([H])([H])c2c([H])c([H])c([H])c([H])c2[H])C([H])(C([H])([H])[H])C([H])([H])[H])C([H])([H])C([H])(C([H])([H])[H])C([H])([H])[H])C([H])([H])c2c([H])c([H])c([H])c([H])c2[H])C([H])(C([H])([H])[H])C([H])([H])[H])c([H])c1[H]


 52 54  0  0  0  0  0  0  0  0999 V2000
   13.5335   23.4392   -2.0429 C   0  0  0  0  0  0  0  0  0  0  0  0
   12.6782   25.0418   -0.2882 C   0  0  0  0  0  0  0  0  0  0  0  0
   11.5018   24.7698   -0.7958 O   0  0  0  0  0  0  0  0  0  0  0  0
   13.7068   24.3564   -0.9343 N   0  0  0  0  0  0  0  0  0  0  0  0
   14.6842   24.4839   -0.6067 H   0  0  0  0  0  0  0  0  0  0  0  0
   12.6154   25.9716    0.8054 C   0  0  0  0  0  0  0  0  0  0  0  0
   11.3811   25.7662    1.5082 N   0  0  0  0  0  0  0  0  0  0  0  0
   10.6063   24.6632    1.8266 C   0  0  0  0  0  0  0  0  0  0  0  0
   10.8222   23.4748    1.5299 O   0  0  0  0  0  0  0  0  0  0  0  0
   10.9253   26.7143    1.9032 H   0  0  0  0  0  0  0  0  0  0  0  0
    9.4012   24.8155    2.5776 O   0  0  0  0  0  0  0  0  0  0  0  0
    9.3356   25.4071    3.8308 C   0  0  0  0  0  0  0  0  0  0  0  0
    8.0184   26.0514    4.0221 C   0  0  0  0  0  0  0  0  0  0  0  0
    7.2822   26.5191    2.9430 C   0  0  0  0  0  0  0  0  0  0  0  0
    6.0416   27.1141    3.0962 C   0  0  0  0  0  0  0  0  0  0  0  0
    5.5032   27.2545    4.3686 C   0  0  0  0  0  0  0  0  0  0  0  0
    6.2035   26.8049    5.4438 C   0  0  0  0  0  0  0  0  0  0  0  0
    7.4447   26.2110    5.2730 C   0  0  0  0  0  0  0  0  0  0  0  0
   15.0883   26.4314    0.9041 C   0  0  0  0  0  0  0  0  0  0  0  0
   13.7654   26.2990    1.6417 C   0  0  0  0  0  0  0  0  0  0  0  0
   13.5373   27.7729    2.1307 C   0  0  0  0  0  0  0  0  0  0  0  0
   13.2097   22.0726   -1.6165 C   0  0  0  0  0  0  0  0  0  0  0  0
   13.4682   21.1245   -2.4235 O   0  0  0  0  0  0  0  0  0  0  0  0
   12.6409   21.7663   -0.3871 N   0  0  0  0  0  0  0  0  0  0  0  0
   12.4073   22.5366    0.3165 H   0  0  0  0  0  0  0  0  0  0  0  0
   12.3050   20.4418    0.1011 C   0  0  0  0  0  0  0  0  0  0  0  0
   10.8672   20.2995    0.3950 C   0  0  0  0  0  0  0  0  0  0  0  0
   10.1717   19.3748   -0.1561 O   0  0  0  0  0  0  0  0  0  0  0  0
   10.1603   21.1459    1.2871 N   0  0  0  0  0  0  0  0  0  0  0  0
   10.6889   21.9174    1.7443 H   0  0  0  0  0  0  0  0  0  0  0  0
    8.7467   20.9924    1.5914 C   0  0  0  0  0  0  0  0  0  0  0  0
    7.9582   21.4720    0.4446 C   0  0  0  0  0  0  0  0  0  0  0  0
    7.4798   22.8915    0.4787 C   0  0  0  0  0  0  0  0  0  0  0  0
    6.8647   20.5128    0.0027 C   0  0  0  0  0  0  0  0  0  0  0  0
    8.4534   21.4634    2.9609 C   0  0  0  0  0  0  0  0  0  0  0  0
    7.2323   21.0628    3.6179 C   0  0  0  0  0  0  0  0  0  0  0  0
    6.5094   21.8903    4.4443 C   0  0  0  0  0  0  0  0  0  0  0  0
    5.3599   21.4976    5.0784 C   0  0  0  0  0  0  0  0  0  0  0  0
    4.8734   20.2263    4.9076 C   0  0  0  0  0  0  0  0  0  0  0  0
    5.5803   19.3560    4.0743 C   0  0  0  0  0  0  0  0  0  0  0  0
    6.7138   19.8010    3.4720 C   0  0  0  0  0  0  0  0  0  0  0  0
   13.2405   19.9449    1.1346 C   0  0  0  0  0  0  0  0  0  0  0  0
   14.6746   20.3025    0.9714 C   0  0  0  0  0  0  0  0  0  0  0  0
   14.7383   21.8403    0.9882 C   0  0  0  0  0  0  0  0  0  0  0  0
   15.2928   19.8921   -0.3370 C   0  0  0  0  0  0  0  0  0  0  0  0
   14.6300   23.4712   -3.0662 C   0  0  0  0  0  0  0  0  0  0  0  0
   14.6455   24.7073   -3.8894 C   0  0  0  0  0  0  0  0  0  0  0  0
   13.6628   25.6538   -3.7312 C   0  0  0  0  0  0  0  0  0  0  0  0
   13.6481   26.8183   -4.5036 C   0  0  0  0  0  0  0  0  0  0  0  0
   14.6428   26.9962   -5.4277 C   0  0  0  0  0  0  0  0  0  0  0  0
   15.6254   26.0441   -5.5807 C   0  0  0  0  0  0  0  0  0  0  0  0
   15.6329   24.9108   -4.8239 C   0  0  0  0  0  0  0  0  0  0  0  0
 19 20  1  0  0  0
 20 21  1  0  0  0
 20  6  1  0  0  0
  6  7  1  0  0  0
  7  8  1  0  0  0
  8  9  2  0  0  0
  8 11  1  0  0  0
 11 12  1  0  0  0
 12 13  1  0  0  0
 13 14  2  0  0  0
 14 15  1  0  0  0
 15 16  2  0  0  0
 16 17  1  0  0  0
 17 18  2  0  0  0
  6  2  1  0  0  0
  2  3  2  0  0  0
  2  4  1  0  0  0
  4  1  1  0  0  0
  1 46  1  0  0  0
 46 47  1  0  0  0
 47 48  2  0  0  0
 48 49  1  0  0  0
 49 50  2  0  0  0
 50 51  1  0  0  0
 51 52  2  0  0  0
  1 22  1  0  0  0
 22 23  2  0  0  0
 22 24  1  0  0  0
 24 26  1  0  0  0
 26 42  1  0  0  0
 42 43  1  0  0  0
 43 44  1  0  0  0
 43 45  1  0  0  0
 26 27  1  0  0  0
 27 28  2  0  0  0
 27 29  1  0  0  0
 29 31  1  0  0  0
 31 35  1  0  0  0
 35 36  1  0  0  0
 36 37  2  0  0  0
 37 38  1  0  0  0
 38 39  2  0  0  0
 39 40  1  0  0  0
 40 41  2  0  0  0
 31 32  1  0  0  0
 32 33  1  0  0  0
 32 34  1  0  0  0
 18 13  1  0  0  0
 52 47  1  0  0  0
 41 36  1  0  0  0
  7 10  1  0  0  0
  4  5  1  0  0  0
 24 25  1  0  0  0
 29 30  1  0  0  0
M  END
> <minimizedAffinity>
-1.49462

> <CNNscore>
0.4026655853

> <CNNaffinity>
7.6210150719

> <CNN_VS>
3.0687205791

> <CNNaffinity_variance>
0.1685407907

$$$$
[H]c1c([H])c([H])c(C([H])([H])OC(=O)N([H])[C@]([H])(C(=O)N([H])[C@]([H])(C(=O)N([H])[C@]([H])(C(=O)N([H])[C@@]([H])(C([H])([H])c2c([H])c([H])c([H])c([H])c2[H])C([H])(C([H])([H])[H])C([H])([H])[H])C([H])([H])C([H])(C([H])([H])[H])C([H])([H])[H])C([H])([H])c2c([H])c([H])c([H])c([H])c2[H])C([H])(C([H])([H])[H])C([H])([H])[H])c([H])c1[H]


 52 54  0  0  0  0  0  0  0  0999 V2000
    8.1061   23.6381    0.7646 C   0  0  0  0  0  0  0  0  0  0  0  0
    7.0172   21.9471    2.2923 C   0  0  0  0  0  0  0  0  0  0  0  0
    6.0207   22.7969    2.3129 O   0  0  0  0  0  0  0  0  0  0  0  0
    8.0756   22.3888    1.4986 N   0  0  0  0  0  0  0  0  0  0  0  0
    8.9168   21.7882    1.3962 H   0  0  0  0  0  0  0  0  0  0  0  0
    6.7707   20.7749    3.0859 C   0  0  0  0  0  0  0  0  0  0  0  0
    6.3329   19.7198    2.2172 N   0  0  0  0  0  0  0  0  0  0  0  0
    6.8539   19.0920    1.0980 C   0  0  0  0  0  0  0  0  0  0  0  0
    7.9289   19.3383    0.5229 O   0  0  0  0  0  0  0  0  0  0  0  0
    5.3353   19.2880    2.5016 H   0  0  0  0  0  0  0  0  0  0  0  0
    6.1402   18.0300    0.4637 O   0  0  0  0  0  0  0  0  0  0  0  0
    4.8808   18.1684   -0.1015 C   0  0  0  0  0  0  0  0  0  0  0  0
    4.8878   19.2573   -1.1019 C   0  0  0  0  0  0  0  0  0  0  0  0
    4.8801   18.9850   -2.4624 C   0  0  0  0  0  0  0  0  0  0  0  0
    4.8737   19.9873   -3.4174 C   0  0  0  0  0  0  0  0  0  0  0  0
    4.8753   21.3161   -3.0137 C   0  0  0  0  0  0  0  0  0  0  0  0
    4.8829   21.6112   -1.6865 C   0  0  0  0  0  0  0  0  0  0  0  0
    4.8888   20.5954   -0.7429 C   0  0  0  0  0  0  0  0  0  0  0  0
    7.6462   21.2956    5.3878 C   0  0  0  0  0  0  0  0  0  0  0  0
    7.6329   20.3617    4.1881 C   0  0  0  0  0  0  0  0  0  0  0  0
    6.9636   19.0817    4.8025 C   0  0  0  0  0  0  0  0  0  0  0  0
    9.4059   23.9085    0.1389 C   0  0  0  0  0  0  0  0  0  0  0  0
   10.0116   24.9759    0.4714 O   0  0  0  0  0  0  0  0  0  0  0  0
   10.0017   23.0644   -0.7892 N   0  0  0  0  0  0  0  0  0  0  0  0
    9.5218   22.1594   -1.0952 H   0  0  0  0  0  0  0  0  0  0  0  0
   11.2843   23.2645   -1.4376 C   0  0  0  0  0  0  0  0  0  0  0  0
   12.4156   22.8679   -0.5794 C   0  0  0  0  0  0  0  0  0  0  0  0
   12.5598   23.3683    0.5916 O   0  0  0  0  0  0  0  0  0  0  0  0
   13.4030   21.9261   -0.9669 N   0  0  0  0  0  0  0  0  0  0  0  0
   13.3267   21.5074   -1.9169 H   0  0  0  0  0  0  0  0  0  0  0  0
   14.5072   21.5208   -0.1121 C   0  0  0  0  0  0  0  0  0  0  0  0
   14.1756   20.2303    0.5137 C   0  0  0  0  0  0  0  0  0  0  0  0
   13.2997   20.2552    1.7291 C   0  0  0  0  0  0  0  0  0  0  0  0
   15.3688   19.3051    0.6904 C   0  0  0  0  0  0  0  0  0  0  0  0
   14.9799   22.6581    0.7045 C   0  0  0  0  0  0  0  0  0  0  0  0
   15.9362   23.5919    0.1597 C   0  0  0  0  0  0  0  0  0  0  0  0
   17.2033   23.7613    0.6659 C   0  0  0  0  0  0  0  0  0  0  0  0
   18.1001   24.6622    0.1543 C   0  0  0  0  0  0  0  0  0  0  0  0
   17.7568   25.4523   -0.9134 C   0  0  0  0  0  0  0  0  0  0  0  0
   16.4776   25.3086   -1.4560 C   0  0  0  0  0  0  0  0  0  0  0  0
   15.6310   24.3989   -0.9070 C   0  0  0  0  0  0  0  0  0  0  0  0
   11.3992   24.5759   -2.1141 C   0  0  0  0  0  0  0  0  0  0  0  0
   12.7581   25.1744   -2.1941 C   0  0  0  0  0  0  0  0  0  0  0  0
   12.5592   26.6323   -2.6460 C   0  0  0  0  0  0  0  0  0  0  0  0
   13.6701   24.5598   -3.2202 C   0  0  0  0  0  0  0  0  0  0  0  0
    7.5783   24.8247    1.5156 C   0  0  0  0  0  0  0  0  0  0  0  0
    7.9647   24.8466    2.9495 C   0  0  0  0  0  0  0  0  0  0  0  0
    9.0783   24.1641    3.3744 C   0  0  0  0  0  0  0  0  0  0  0  0
    9.4543   24.1583    4.7203 C   0  0  0  0  0  0  0  0  0  0  0  0
    8.6825   24.8537    5.6123 C   0  0  0  0  0  0  0  0  0  0  0  0
    7.5680   25.5366    5.1798 C   0  0  0  0  0  0  0  0  0  0  0  0
    7.2075   25.5374    3.8655 C   0  0  0  0  0  0  0  0  0  0  0  0
 19 20  1  0  0  0
 20 21  1  0  0  0
 20  6  1  0  0  0
  6  7  1  0  0  0
  7  8  1  0  0  0
  8  9  2  0  0  0
  8 11  1  0  0  0
 11 12  1  0  0  0
 12 13  1  0  0  0
 13 14  2  0  0  0
 14 15  1  0  0  0
 15 16  2  0  0  0
 16 17  1  0  0  0
 17 18  2  0  0  0
  6  2  1  0  0  0
  2  3  2  0  0  0
  2  4  1  0  0  0
  4  1  1  0  0  0
  1 46  1  0  0  0
 46 47  1  0  0  0
 47 48  2  0  0  0
 48 49  1  0  0  0
 49 50  2  0  0  0
 50 51  1  0  0  0
 51 52  2  0  0  0
  1 22  1  0  0  0
 22 23  2  0  0  0
 22 24  1  0  0  0
 24 26  1  0  0  0
 26 42  1  0  0  0
 42 43  1  0  0  0
 43 44  1  0  0  0
 43 45  1  0  0  0
 26 27  1  0  0  0
 27 28  2  0  0  0
 27 29  1  0  0  0
 29 31  1  0  0  0
 31 35  1  0  0  0
 35 36  1  0  0  0
 36 37  2  0  0  0
 37 38  1  0  0  0
 38 39  2  0  0  0
 39 40  1  0  0  0
 40 41  2  0  0  0
 31 32  1  0  0  0
 32 33  1  0  0  0
 32 34  1  0  0  0
 18 13  1  0  0  0
 52 47  1  0  0  0
 41 36  1  0  0  0
  7 10  1  0  0  0
  4  5  1  0  0  0
 24 25  1  0  0  0
 29 30  1  0  0  0
M  END
> <minimizedAffinity>
1.10776

> <CNNscore>
0.3918817639

> <CNNaffinity>
7.6327543259

> <CNN_VS>
2.9911372662

> <CNNaffinity_variance>
0.4517859519

$$$$
[H]c1c([H])c([H])c(C([H])([H])OC(=O)N([H])[C@]([H])(C(=O)N([H])[C@]([H])(C(=O)N([H])[C@]([H])(C(=O)N([H])[C@@]([H])(C([H])([H])c2c([H])c([H])c([H])c([H])c2[H])C([H])(C([H])([H])[H])C([H])([H])[H])C([H])([H])C([H])(C([H])([H])[H])C([H])([H])[H])C([H])([H])c2c([H])c([H])c([H])c([H])c2[H])C([H])(C([H])([H])[H])C([H])([H])[H])c([H])c1[H]


 52 54  0  0  0  0  0  0  0  0999 V2000
   11.8521   22.4563    2.5385 C   0  0  0  0  0  0  0  0  0  0  0  0
    9.4376   21.8460    2.9591 C   0  0  0  0  0  0  0  0  0  0  0  0
    9.6581   20.8961    2.0846 O   0  0  0  0  0  0  0  0  0  0  0  0
   10.5657   22.6356    3.1813 N   0  0  0  0  0  0  0  0  0  0  0  0
   10.5122   23.4134    3.8677 H   0  0  0  0  0  0  0  0  0  0  0  0
    8.0955   21.8353    3.4720 C   0  0  0  0  0  0  0  0  0  0  0  0
    7.2711   21.0754    2.5761 N   0  0  0  0  0  0  0  0  0  0  0  0
    6.1219   20.3138    2.7094 C   0  0  0  0  0  0  0  0  0  0  0  0
    5.4850   20.0798    3.7517 O   0  0  0  0  0  0  0  0  0  0  0  0
    7.6265   21.0970    1.5104 H   0  0  0  0  0  0  0  0  0  0  0  0
    5.5324   19.6848    1.5708 O   0  0  0  0  0  0  0  0  0  0  0  0
    6.1995   18.7943    0.7422 C   0  0  0  0  0  0  0  0  0  0  0  0
    6.1401   19.2603   -0.6600 C   0  0  0  0  0  0  0  0  0  0  0  0
    4.9765   19.7981   -1.1912 C   0  0  0  0  0  0  0  0  0  0  0  0
    4.9004   20.2524   -2.4968 C   0  0  0  0  0  0  0  0  0  0  0  0
    6.0201   20.1728   -3.3146 C   0  0  0  0  0  0  0  0  0  0  0  0
    7.1734   19.6499   -2.8195 C   0  0  0  0  0  0  0  0  0  0  0  0
    7.2329   19.1997   -1.5095 C   0  0  0  0  0  0  0  0  0  0  0  0
    8.5169   20.5580    5.5998 C   0  0  0  0  0  0  0  0  0  0  0  0
    7.7840   21.6850    4.8895 C   0  0  0  0  0  0  0  0  0  0  0  0
    8.3938   22.9443    5.6008 C   0  0  0  0  0  0  0  0  0  0  0  0
   11.9161   23.0520    1.1987 C   0  0  0  0  0  0  0  0  0  0  0  0
   12.1436   24.3004    1.1169 O   0  0  0  0  0  0  0  0  0  0  0  0
   11.7426   22.3270    0.0268 N   0  0  0  0  0  0  0  0  0  0  0  0
   11.5474   21.2763    0.0556 H   0  0  0  0  0  0  0  0  0  0  0  0
   11.8024   22.8482   -1.3260 C   0  0  0  0  0  0  0  0  0  0  0  0
   13.1861   22.9694   -1.8207 C   0  0  0  0  0  0  0  0  0  0  0  0
   13.6906   22.0758   -2.5885 O   0  0  0  0  0  0  0  0  0  0  0  0
   14.0428   24.0535   -1.4999 N   0  0  0  0  0  0  0  0  0  0  0  0
   13.6725   24.7929   -0.8677 H   0  0  0  0  0  0  0  0  0  0  0  0
   15.4004   24.1820   -2.0043 C   0  0  0  0  0  0  0  0  0  0  0  0
   16.0359   25.3479   -1.3687 C   0  0  0  0  0  0  0  0  0  0  0  0
   17.1040   26.0605   -2.1408 C   0  0  0  0  0  0  0  0  0  0  0  0
   16.4363   25.1196    0.0799 C   0  0  0  0  0  0  0  0  0  0  0  0
   15.4306   24.0104   -3.4717 C   0  0  0  0  0  0  0  0  0  0  0  0
   15.0401   25.0987   -4.3356 C   0  0  0  0  0  0  0  0  0  0  0  0
   14.0581   26.0061   -4.0152 C   0  0  0  0  0  0  0  0  0  0  0  0
   13.6807   27.0267   -4.8479 C   0  0  0  0  0  0  0  0  0  0  0  0
   14.2862   27.1857   -6.0687 C   0  0  0  0  0  0  0  0  0  0  0  0
   15.2896   26.2833   -6.4297 C   0  0  0  0  0  0  0  0  0  0  0  0
   15.6218   25.2911   -5.5632 C   0  0  0  0  0  0  0  0  0  0  0  0
   10.9214   24.0177   -1.5416 C   0  0  0  0  0  0  0  0  0  0  0  0
    9.4992   23.8728   -1.1322 C   0  0  0  0  0  0  0  0  0  0  0  0
    9.3854   24.5183    0.2604 C   0  0  0  0  0  0  0  0  0  0  0  0
    9.0240   22.4567   -0.9552 C   0  0  0  0  0  0  0  0  0  0  0  0
   12.3798   21.0522    2.5626 C   0  0  0  0  0  0  0  0  0  0  0  0
   13.4905   20.8130    1.6061 C   0  0  0  0  0  0  0  0  0  0  0  0
   13.3630   19.8599    0.6253 C   0  0  0  0  0  0  0  0  0  0  0  0
   14.3992   19.6069   -0.2775 C   0  0  0  0  0  0  0  0  0  0  0  0
   15.5525   20.3361   -0.1621 C   0  0  0  0  0  0  0  0  0  0  0  0
   15.6736   21.2906    0.8226 C   0  0  0  0  0  0  0  0  0  0  0  0
   14.6587   21.5315    1.6996 C   0  0  0  0  0  0  0  0  0  0  0  0
 19 20  1  0  0  0
 20 21  1  0  0  0
 20  6  1  0  0  0
  6  7  1  0  0  0
  7  8  1  0  0  0
  8  9  2  0  0  0
  8 11  1  0  0  0
 11 12  1  0  0  0
 12 13  1  0  0  0
 13 14  2  0  0  0
 14 15  1  0  0  0
 15 16  2  0  0  0
 16 17  1  0  0  0
 17 18  2  0  0  0
  6  2  1  0  0  0
  2  3  2  0  0  0
  2  4  1  0  0  0
  4  1  1  0  0  0
  1 46  1  0  0  0
 46 47  1  0  0  0
 47 48  2  0  0  0
 48 49  1  0  0  0
 49 50  2  0  0  0
 50 51  1  0  0  0
 51 52  2  0  0  0
  1 22  1  0  0  0
 22 23  2  0  0  0
 22 24  1  0  0  0
 24 26  1  0  0  0
 26 42  1  0  0  0
 42 43  1  0  0  0
 43 44  1  0  0  0
 43 45  1  0  0  0
 26 27  1  0  0  0
 27 28  2  0  0  0
 27 29  1  0  0  0
 29 31  1  0  0  0
 31 35  1  0  0  0
 35 36  1  0  0  0
 36 37  2  0  0  0
 37 38  1  0  0  0
 38 39  2  0  0  0
 39 40  1  0  0  0
 40 41  2  0  0  0
 31 32  1  0  0  0
 32 33  1  0  0  0
 32 34  1  0  0  0
 18 13  1  0  0  0
 52 47  1  0  0  0
 41 36  1  0  0  0
  7 10  1  0  0  0
  4  5  1  0  0  0
 24 25  1  0  0  0
 29 30  1  0  0  0
M  END
> <minimizedAffinity>
-2.46889

> <CNNscore>
0.3736159205

> <CNNaffinity>
7.5658965111

> <CNN_VS>
2.8267393112

> <CNNaffinity_variance>
0.3722749352

$$$$
[H]c1c([H])c([H])c(C([H])([H])OC(=O)N([H])[C@]([H])(C(=O)N([H])[C@]([H])(C(=O)N([H])[C@]([H])(C(=O)N([H])[C@@]([H])(C([H])([H])c2c([H])c([H])c([H])c([H])c2[H])C([H])(C([H])([H])[H])C([H])([H])[H])C([H])([H])C([H])(C([H])([H])[H])C([H])([H])[H])C([H])([H])c2c([H])c([H])c([H])c([H])c2[H])C([H])(C([H])([H])[H])C([H])([H])[H])c([H])c1[H]


 52 54  0  0  0  0  0  0  0  0999 V2000
    8.8822   24.4160    0.7857 C   0  0  0  0  0  0  0  0  0  0  0  0
    8.6657   22.2452    2.0583 C   0  0  0  0  0  0  0  0  0  0  0  0
    9.8081   22.5940    2.5958 O   0  0  0  0  0  0  0  0  0  0  0  0
    8.2043   23.1838    1.1356 N   0  0  0  0  0  0  0  0  0  0  0  0
    7.2980   23.0189    0.6555 H   0  0  0  0  0  0  0  0  0  0  0  0
    8.1730   20.9898    2.5541 C   0  0  0  0  0  0  0  0  0  0  0  0
    8.4318   19.9777    1.5702 N   0  0  0  0  0  0  0  0  0  0  0  0
    9.2385   19.8850    0.4481 C   0  0  0  0  0  0  0  0  0  0  0  0
    9.9910   20.7588   -0.0180 O   0  0  0  0  0  0  0  0  0  0  0  0
    7.8542   19.0287    1.7384 H   0  0  0  0  0  0  0  0  0  0  0  0
    9.2705   18.6849   -0.3253 O   0  0  0  0  0  0  0  0  0  0  0  0
    8.1837   17.8392   -0.4936 C   0  0  0  0  0  0  0  0  0  0  0  0
    7.1538   18.4927   -1.3296 C   0  0  0  0  0  0  0  0  0  0  0  0
    5.8701   17.9750   -1.4263 C   0  0  0  0  0  0  0  0  0  0  0  0
    4.8858   18.5759   -2.1923 C   0  0  0  0  0  0  0  0  0  0  0  0
    5.1799   19.7378   -2.8940 C   0  0  0  0  0  0  0  0  0  0  0  0
    6.4301   20.2666   -2.8170 C   0  0  0  0  0  0  0  0  0  0  0  0
    7.4043   19.6524   -2.0450 C   0  0  0  0  0  0  0  0  0  0  0  0
    7.6086   21.4348    4.9666 C   0  0  0  0  0  0  0  0  0  0  0  0
    8.3218   20.5664    3.9425 C   0  0  0  0  0  0  0  0  0  0  0  0
    7.5232   19.2212    4.0709 C   0  0  0  0  0  0  0  0  0  0  0  0
   10.2837   24.2144    0.3994 C   0  0  0  0  0  0  0  0  0  0  0  0
   10.5924   24.3937   -0.8210 O   0  0  0  0  0  0  0  0  0  0  0  0
   11.2802   23.8414    1.2920 N   0  0  0  0  0  0  0  0  0  0  0  0
   11.0586   23.6792    2.3253 H   0  0  0  0  0  0  0  0  0  0  0  0
   12.6825   23.6349    0.9814 C   0  0  0  0  0  0  0  0  0  0  0  0
   13.2099   24.6571    0.0590 C   0  0  0  0  0  0  0  0  0  0  0  0
   13.3406   25.8758    0.4332 O   0  0  0  0  0  0  0  0  0  0  0  0
   13.6069   24.3817   -1.2747 N   0  0  0  0  0  0  0  0  0  0  0  0
   13.5032   23.4049   -1.6191 H   0  0  0  0  0  0  0  0  0  0  0  0
   14.1456   25.3865   -2.1771 C   0  0  0  0  0  0  0  0  0  0  0  0
   13.7223   25.0685   -3.5506 C   0  0  0  0  0  0  0  0  0  0  0  0
   14.6649   24.2691   -4.3978 C   0  0  0  0  0  0  0  0  0  0  0  0
   13.1405   26.2517   -4.3071 C   0  0  0  0  0  0  0  0  0  0  0  0
   15.5642   25.6600   -1.8669 C   0  0  0  0  0  0  0  0  0  0  0  0
   16.3255   26.5625   -2.6971 C   0  0  0  0  0  0  0  0  0  0  0  0
   17.6488   26.8625   -2.4755 C   0  0  0  0  0  0  0  0  0  0  0  0
   18.3606   27.7337   -3.2577 C   0  0  0  0  0  0  0  0  0  0  0  0
   17.7615   28.3580   -4.3224 C   0  0  0  0  0  0  0  0  0  0  0  0
   16.4173   28.0781   -4.5800 C   0  0  0  0  0  0  0  0  0  0  0  0
   15.7624   27.2056   -3.7703 C   0  0  0  0  0  0  0  0  0  0  0  0
   13.0093   22.2274    0.6610 C   0  0  0  0  0  0  0  0  0  0  0  0
   13.2981   21.3263    1.8080 C   0  0  0  0  0  0  0  0  0  0  0  0
   13.3344   19.8986    1.2339 C   0  0  0  0  0  0  0  0  0  0  0  0
   12.2451   21.2975    2.8817 C   0  0  0  0  0  0  0  0  0  0  0  0
    8.7200   25.5296    1.7776 C   0  0  0  0  0  0  0  0  0  0  0  0
    8.2312   25.0817    3.1067 C   0  0  0  0  0  0  0  0  0  0  0  0
    6.8834   24.9583    3.3403 C   0  0  0  0  0  0  0  0  0  0  0  0
    6.3987   24.5522    4.5865 C   0  0  0  0  0  0  0  0  0  0  0  0
    7.3041   24.2775    5.5764 C   0  0  0  0  0  0  0  0  0  0  0  0
    8.6539   24.4023    5.3354 C   0  0  0  0  0  0  0  0  0  0  0  0
    9.1190   24.7991    4.1175 C   0  0  0  0  0  0  0  0  0  0  0  0
 19 20  1  0  0  0
 20 21  1  0  0  0
 20  6  1  0  0  0
  6  7  1  0  0  0
  7  8  1  0  0  0
  8  9  2  0  0  0
  8 11  1  0  0  0
 11 12  1  0  0  0
 12 13  1  0  0  0
 13 14  2  0  0  0
 14 15  1  0  0  0
 15 16  2  0  0  0
 16 17  1  0  0  0
 17 18  2  0  0  0
  6  2  1  0  0  0
  2  3  2  0  0  0
  2  4  1  0  0  0
  4  1  1  0  0  0
  1 46  1  0  0  0
 46 47  1  0  0  0
 47 48  2  0  0  0
 48 49  1  0  0  0
 49 50  2  0  0  0
 50 51  1  0  0  0
 51 52  2  0  0  0
  1 22  1  0  0  0
 22 23  2  0  0  0
 22 24  1  0  0  0
 24 26  1  0  0  0
 26 42  1  0  0  0
 42 43  1  0  0  0
 43 44  1  0  0  0
 43 45  1  0  0  0
 26 27  1  0  0  0
 27 28  2  0  0  0
 27 29  1  0  0  0
 29 31  1  0  0  0
 31 35  1  0  0  0
 35 36  1  0  0  0
 36 37  2  0  0  0
 37 38  1  0  0  0
 38 39  2  0  0  0
 39 40  1  0  0  0
 40 41  2  0  0  0
 31 32  1  0  0  0
 32 33  1  0  0  0
 32 34  1  0  0  0
 18 13  1  0  0  0
 52 47  1  0  0  0
 41 36  1  0  0  0
  7 10  1  0  0  0
  4  5  1  0  0  0
 24 25  1  0  0  0
 29 30  1  0  0  0
M  END
> <minimizedAffinity>
-0.59024

> <CNNscore>
0.3732381761

> <CNNaffinity>
7.4293837547

> <CNN_VS>
2.7729296684

> <CNNaffinity_variance>
0.5546647310

$$$$
[H]c1c([H])c([H])c(C([H])([H])OC(=O)N([H])[C@]([H])(C(=O)N([H])[C@]([H])(C(=O)N([H])[C@]([H])(C(=O)N([H])[C@@]([H])(C([H])([H])c2c([H])c([H])c([H])c([H])c2[H])C([H])(C([H])([H])[H])C([H])([H])[H])C([H])([H])C([H])(C([H])([H])[H])C([H])([H])[H])C([H])([H])c2c([H])c([H])c([H])c([H])c2[H])C([H])(C([H])([H])[H])C([H])([H])[H])c([H])c1[H]


 52 54  0  0  0  0  0  0  0  0999 V2000
    9.7788   24.4691    1.9227 C   0  0  0  0  0  0  0  0  0  0  0  0
    7.8974   22.7890    2.0516 C   0  0  0  0  0  0  0  0  0  0  0  0
    7.2540   23.6421    1.2941 O   0  0  0  0  0  0  0  0  0  0  0  0
    9.1850   23.2235    2.3656 N   0  0  0  0  0  0  0  0  0  0  0  0
    9.7945   22.6196    2.9512 H   0  0  0  0  0  0  0  0  0  0  0  0
    7.1209   21.6215    2.3656 C   0  0  0  0  0  0  0  0  0  0  0  0
    7.4050   20.6088    1.3892 N   0  0  0  0  0  0  0  0  0  0  0  0
    8.4862   20.3045    0.5786 C   0  0  0  0  0  0  0  0  0  0  0  0
    9.5660   20.9160    0.4952 O   0  0  0  0  0  0  0  0  0  0  0  0
    6.5627   19.8806    1.2383 H   0  0  0  0  0  0  0  0  0  0  0  0
    8.4420   19.1771   -0.2968 O   0  0  0  0  0  0  0  0  0  0  0  0
    7.2727   18.5382   -0.6832 C   0  0  0  0  0  0  0  0  0  0  0  0
    6.4392   19.4488   -1.4974 C   0  0  0  0  0  0  0  0  0  0  0  0
    5.7908   20.5346   -0.9266 C   0  0  0  0  0  0  0  0  0  0  0  0
    5.0156   21.4079   -1.6704 C   0  0  0  0  0  0  0  0  0  0  0  0
    4.8731   21.2016   -3.0364 C   0  0  0  0  0  0  0  0  0  0  0  0
    5.4976   20.1450   -3.6213 C   0  0  0  0  0  0  0  0  0  0  0  0
    6.2706   19.2800   -2.8621 C   0  0  0  0  0  0  0  0  0  0  0  0
    6.4992   19.6831    3.8462 C   0  0  0  0  0  0  0  0  0  0  0  0
    6.9200   21.1393    3.7279 C   0  0  0  0  0  0  0  0  0  0  0  0
    8.3443   21.1020    4.3866 C   0  0  0  0  0  0  0  0  0  0  0  0
   11.0980   24.2921    1.3043 C   0  0  0  0  0  0  0  0  0  0  0  0
   11.5858   25.2741    0.6605 O   0  0  0  0  0  0  0  0  0  0  0  0
   11.8334   23.1168    1.3868 N   0  0  0  0  0  0  0  0  0  0  0  0
   11.4552   22.2691    1.9174 H   0  0  0  0  0  0  0  0  0  0  0  0
   13.1430   22.8771    0.8100 C   0  0  0  0  0  0  0  0  0  0  0  0
   13.5811   23.9790   -0.0662 C   0  0  0  0  0  0  0  0  0  0  0  0
   14.2182   24.9841    0.4097 O   0  0  0  0  0  0  0  0  0  0  0  0
   13.3437   24.0127   -1.4643 N   0  0  0  0  0  0  0  0  0  0  0  0
   12.8174   23.2195   -1.8855 H   0  0  0  0  0  0  0  0  0  0  0  0
   13.7935   25.0904   -2.3306 C   0  0  0  0  0  0  0  0  0  0  0  0
   12.6410   25.9412   -2.6693 C   0  0  0  0  0  0  0  0  0  0  0  0
   12.7371   26.7747   -3.9107 C   0  0  0  0  0  0  0  0  0  0  0  0
   12.0907   26.7321   -1.4934 C   0  0  0  0  0  0  0  0  0  0  0  0
   14.6876   24.5724   -3.3869 C   0  0  0  0  0  0  0  0  0  0  0  0
   15.2055   25.4631   -4.3976 C   0  0  0  0  0  0  0  0  0  0  0  0
   15.6935   26.7189   -4.1234 C   0  0  0  0  0  0  0  0  0  0  0  0
   16.1677   27.5660   -5.0905 C   0  0  0  0  0  0  0  0  0  0  0  0
   16.1732   27.1813   -6.4073 C   0  0  0  0  0  0  0  0  0  0  0  0
   15.6856   25.9114   -6.7256 C   0  0  0  0  0  0  0  0  0  0  0  0
   15.2281   25.1150   -5.7245 C   0  0  0  0  0  0  0  0  0  0  0  0
   13.3044   21.5066    0.2750 C   0  0  0  0  0  0  0  0  0  0  0  0
   14.6949   21.0397    0.0304 C   0  0  0  0  0  0  0  0  0  0  0  0
   15.0638   21.5133   -1.3869 C   0  0  0  0  0  0  0  0  0  0  0  0
   14.8759   19.5466    0.0116 C   0  0  0  0  0  0  0  0  0  0  0  0
    9.7713   25.5697    2.9420 C   0  0  0  0  0  0  0  0  0  0  0  0
    8.4197   25.8903    3.4678 C   0  0  0  0  0  0  0  0  0  0  0  0
    7.7661   27.0223    3.0459 C   0  0  0  0  0  0  0  0  0  0  0  0
    6.4999   27.3525    3.5365 C   0  0  0  0  0  0  0  0  0  0  0  0
    5.9211   26.5161    4.4532 C   0  0  0  0  0  0  0  0  0  0  0  0
    6.5813   25.3825    4.8712 C   0  0  0  0  0  0  0  0  0  0  0  0
    7.8161   25.0672    4.3884 C   0  0  0  0  0  0  0  0  0  0  0  0
 19 20  1  0  0  0
 20 21  1  0  0  0
 20  6  1  0  0  0
  6  7  1  0  0  0
  7  8  1  0  0  0
  8  9  2  0  0  0
  8 11  1  0  0  0
 11 12  1  0  0  0
 12 13  1  0  0  0
 13 14  2  0  0  0
 14 15  1  0  0  0
 15 16  2  0  0  0
 16 17  1  0  0  0
 17 18  2  0  0  0
  6  2  1  0  0  0
  2  3  2  0  0  0
  2  4  1  0  0  0
  4  1  1  0  0  0
  1 46  1  0  0  0
 46 47  1  0  0  0
 47 48  2  0  0  0
 48 49  1  0  0  0
 49 50  2  0  0  0
 50 51  1  0  0  0
 51 52  2  0  0  0
  1 22  1  0  0  0
 22 23  2  0  0  0
 22 24  1  0  0  0
 24 26  1  0  0  0
 26 42  1  0  0  0
 42 43  1  0  0  0
 43 44  1  0  0  0
 43 45  1  0  0  0
 26 27  1  0  0  0
 27 28  2  0  0  0
 27 29  1  0  0  0
 29 31  1  0  0  0
 31 35  1  0  0  0
 35 36  1  0  0  0
 36 37  2  0  0  0
 37 38  1  0  0  0
 38 39  2  0  0  0
 39 40  1  0  0  0
 40 41  2  0  0  0
 31 32  1  0  0  0
 32 33  1  0  0  0
 32 34  1  0  0  0
 18 13  1  0  0  0
 52 47  1  0  0  0
 41 36  1  0  0  0
  7 10  1  0  0  0
  4  5  1  0  0  0
 24 25  1  0  0  0
 29 30  1  0  0  0
M  END
> <minimizedAffinity>
-5.00273

> <CNNscore>
0.3553421795

> <CNNaffinity>
7.7144598961

> <CNN_VS>
2.7412729263

> <CNNaffinity_variance>
0.2999211550

$$$$
[H]c1c([H])c([H])c(C([H])([H])OC(=O)N([H])[C@]([H])(C(=O)N([H])[C@]([H])(C(=O)N([H])[C@]([H])(C(=O)N([H])[C@@]([H])(C([H])([H])c2c([H])c([H])c([H])c([H])c2[H])C([H])(C([H])([H])[H])C([H])([H])[H])C([H])([H])C([H])(C([H])([H])[H])C([H])([H])[H])C([H])([H])c2c([H])c([H])c([H])c([H])c2[H])C([H])(C([H])([H])[H])C([H])([H])[H])c([H])c1[H]


 52 54  0  0  0  0  0  0  0  0999 V2000
   11.5252   21.0098    3.2163 C   0  0  0  0  0  0  0  0  0  0  0  0
    9.2951   21.7316    4.1567 C   0  0  0  0  0  0  0  0  0  0  0  0
    9.6667   22.9292    3.7781 O   0  0  0  0  0  0  0  0  0  0  0  0
   10.2531   20.7611    3.8645 N   0  0  0  0  0  0  0  0  0  0  0  0
   10.0602   19.7697    4.1074 H   0  0  0  0  0  0  0  0  0  0  0  0
    7.9969   21.7161    4.7725 C   0  0  0  0  0  0  0  0  0  0  0  0
    7.4419   23.0375    4.6996 N   0  0  0  0  0  0  0  0  0  0  0  0
    6.2405   23.6179    5.0715 C   0  0  0  0  0  0  0  0  0  0  0  0
    5.2604   23.0604    5.5962 O   0  0  0  0  0  0  0  0  0  0  0  0
    8.1351   23.7916    4.2378 H   0  0  0  0  0  0  0  0  0  0  0  0
    6.0132   25.0123    4.8628 O   0  0  0  0  0  0  0  0  0  0  0  0
    6.4073   25.7026    3.7258 C   0  0  0  0  0  0  0  0  0  0  0  0
    6.2297   27.1571    3.9252 C   0  0  0  0  0  0  0  0  0  0  0  0
    5.5540   27.6550    5.0301 C   0  0  0  0  0  0  0  0  0  0  0  0
    5.3861   29.0124    5.2447 C   0  0  0  0  0  0  0  0  0  0  0  0
    5.9067   29.9186    4.3300 C   0  0  0  0  0  0  0  0  0  0  0  0
    6.5733   29.4577    3.2383 C   0  0  0  0  0  0  0  0  0  0  0  0
    6.7329   28.0950    3.0384 C   0  0  0  0  0  0  0  0  0  0  0  0
    6.7664   20.2303    3.1555 C   0  0  0  0  0  0  0  0  0  0  0  0
    7.0435   20.6256    4.5972 C   0  0  0  0  0  0  0  0  0  0  0  0
    7.7585   19.3368    5.1372 C   0  0  0  0  0  0  0  0  0  0  0  0
   11.4557   22.0578    2.1911 C   0  0  0  0  0  0  0  0  0  0  0  0
   12.0311   23.1647    2.4370 O   0  0  0  0  0  0  0  0  0  0  0  0
   10.7994   21.9020    0.9771 N   0  0  0  0  0  0  0  0  0  0  0  0
   10.3022   20.9868    0.7356 H   0  0  0  0  0  0  0  0  0  0  0  0
   10.6999   22.8890   -0.0819 C   0  0  0  0  0  0  0  0  0  0  0  0
   11.9355   22.9819   -0.8810 C   0  0  0  0  0  0  0  0  0  0  0  0
   11.9542   22.6134   -2.1083 O   0  0  0  0  0  0  0  0  0  0  0  0
   13.1644   23.4753   -0.3727 N   0  0  0  0  0  0  0  0  0  0  0  0
   13.1918   23.7723    0.6246 H   0  0  0  0  0  0  0  0  0  0  0  0
   14.3772   23.5850   -1.1672 C   0  0  0  0  0  0  0  0  0  0  0  0
   15.2599   24.5896   -0.5521 C   0  0  0  0  0  0  0  0  0  0  0  0
   14.6312   25.5963    0.3624 C   0  0  0  0  0  0  0  0  0  0  0  0
   16.2342   25.2341   -1.5249 C   0  0  0  0  0  0  0  0  0  0  0  0
   14.0539   23.6430   -2.6080 C   0  0  0  0  0  0  0  0  0  0  0  0
   13.9717   24.9174   -3.2804 C   0  0  0  0  0  0  0  0  0  0  0  0
   13.0548   25.8887   -2.9546 C   0  0  0  0  0  0  0  0  0  0  0  0
   12.9712   27.0898   -3.6089 C   0  0  0  0  0  0  0  0  0  0  0  0
   13.8245   27.3762   -4.6443 C   0  0  0  0  0  0  0  0  0  0  0  0
   14.7710   26.4140   -5.0045 C   0  0  0  0  0  0  0  0  0  0  0  0
   14.8069   25.2412   -4.3197 C   0  0  0  0  0  0  0  0  0  0  0  0
   10.1076   24.1693    0.3657 C   0  0  0  0  0  0  0  0  0  0  0  0
    8.6268   24.2170    0.4930 C   0  0  0  0  0  0  0  0  0  0  0  0
    8.3336   24.8862    1.8477 C   0  0  0  0  0  0  0  0  0  0  0  0
    7.9450   22.8776    0.5541 C   0  0  0  0  0  0  0  0  0  0  0  0
   12.2358   19.7823    2.7278 C   0  0  0  0  0  0  0  0  0  0  0  0
   13.1083   20.0235    1.5503 C   0  0  0  0  0  0  0  0  0  0  0  0
   12.6186   19.8414    0.2801 C   0  0  0  0  0  0  0  0  0  0  0  0
   13.4240   20.0486   -0.8430 C   0  0  0  0  0  0  0  0  0  0  0  0
   14.7213   20.4406   -0.6474 C   0  0  0  0  0  0  0  0  0  0  0  0
   15.2057   20.6223    0.6285 C   0  0  0  0  0  0  0  0  0  0  0  0
   14.4142   20.4181    1.7189 C   0  0  0  0  0  0  0  0  0  0  0  0
 19 20  1  0  0  0
 20 21  1  0  0  0
 20  6  1  0  0  0
  6  7  1  0  0  0
  7  8  1  0  0  0
  8  9  2  0  0  0
  8 11  1  0  0  0
 11 12  1  0  0  0
 12 13  1  0  0  0
 13 14  2  0  0  0
 14 15  1  0  0  0
 15 16  2  0  0  0
 16 17  1  0  0  0
 17 18  2  0  0  0
  6  2  1  0  0  0
  2  3  2  0  0  0
  2  4  1  0  0  0
  4  1  1  0  0  0
  1 46  1  0  0  0
 46 47  1  0  0  0
 47 48  2  0  0  0
 48 49  1  0  0  0
 49 50  2  0  0  0
 50 51  1  0  0  0
 51 52  2  0  0  0
  1 22  1  0  0  0
 22 23  2  0  0  0
 22 24  1  0  0  0
 24 26  1  0  0  0
 26 42  1  0  0  0
 42 43  1  0  0  0
 43 44  1  0  0  0
 43 45  1  0  0  0
 26 27  1  0  0  0
 27 28  2  0  0  0
 27 29  1  0  0  0
 29 31  1  0  0  0
 31 35  1  0  0  0
 35 36  1  0  0  0
 36 37  2  0  0  0
 37 38  1  0  0  0
 38 39  2  0  0  0
 39 40  1  0  0  0
 40 41  2  0  0  0
 31 32  1  0  0  0
 32 33  1  0  0  0
 32 34  1  0  0  0
 18 13  1  0  0  0
 52 47  1  0  0  0
 41 36  1  0  0  0
  7 10  1  0  0  0
  4  5  1  0  0  0
 24 25  1  0  0  0
 29 30  1  0  0  0
M  END
> <minimizedAffinity>
-4.66291

> <CNNscore>
0.3533298969

> <CNNaffinity>
7.5089597702

> <CNN_VS>
2.6531400681

> <CNNaffinity_variance>
0.2838266790

$$$$
[H]c1c([H])c([H])c(C([H])([H])OC(=O)N([H])[C@]([H])(C(=O)N([H])[C@]([H])(C(=O)N([H])[C@]([H])(C(=O)N([H])[C@@]([H])(C([H])([H])c2c([H])c([H])c([H])c([H])c2[H])C([H])(C([H])([H])[H])C([H])([H])[H])C([H])([H])C([H])(C([H])([H])[H])C([H])([H])[H])C([H])([H])c2c([H])c([H])c([H])c([H])c2[H])C([H])(C([H])([H])[H])C([H])([H])[H])c([H])c1[H]


 52 54  0  0  0  0  0  0  0  0999 V2000
   11.5430   21.0878   -0.5849 C   0  0  0  0  0  0  0  0  0  0  0  0
   11.6755   23.3442    0.5421 C   0  0  0  0  0  0  0  0  0  0  0  0
   12.1788   22.6710    1.5466 O   0  0  0  0  0  0  0  0  0  0  0  0
   11.3548   22.5240   -0.5395 N   0  0  0  0  0  0  0  0  0  0  0  0
   10.9604   22.9518   -1.4000 H   0  0  0  0  0  0  0  0  0  0  0  0
   11.5833   24.7543    0.8024 C   0  0  0  0  0  0  0  0  0  0  0  0
   12.2356   25.4585   -0.2645 N   0  0  0  0  0  0  0  0  0  0  0  0
   12.0971   25.4972   -1.6421 C   0  0  0  0  0  0  0  0  0  0  0  0
   11.2990   24.8487   -2.3416 O   0  0  0  0  0  0  0  0  0  0  0  0
   13.0509   26.1485    0.0844 H   0  0  0  0  0  0  0  0  0  0  0  0
   12.9274   26.3503   -2.4309 O   0  0  0  0  0  0  0  0  0  0  0  0
   14.3114   26.2644   -2.4747 C   0  0  0  0  0  0  0  0  0  0  0  0
   14.8025   26.6288   -3.8211 C   0  0  0  0  0  0  0  0  0  0  0  0
   14.1859   26.1472   -4.9670 C   0  0  0  0  0  0  0  0  0  0  0  0
   14.6197   26.4844   -6.2378 C   0  0  0  0  0  0  0  0  0  0  0  0
   15.7091   27.3330   -6.3855 C   0  0  0  0  0  0  0  0  0  0  0  0
   16.3320   27.8194   -5.2791 C   0  0  0  0  0  0  0  0  0  0  0  0
   15.8847   27.4721   -4.0135 C   0  0  0  0  0  0  0  0  0  0  0  0
    9.4492   24.4758    2.1078 C   0  0  0  0  0  0  0  0  0  0  0  0
   10.3819   25.3914    1.3310 C   0  0  0  0  0  0  0  0  0  0  0  0
   10.8713   26.3630    2.4624 C   0  0  0  0  0  0  0  0  0  0  0  0
   10.7506   20.3695    0.4203 C   0  0  0  0  0  0  0  0  0  0  0  0
   10.5632   19.1240    0.2459 O   0  0  0  0  0  0  0  0  0  0  0  0
   10.2010   20.9766    1.5420 N   0  0  0  0  0  0  0  0  0  0  0  0
   10.3352   22.0220    1.7212 H   0  0  0  0  0  0  0  0  0  0  0  0
    9.4182   20.3273    2.5770 C   0  0  0  0  0  0  0  0  0  0  0  0
    8.0513   20.8716    2.6720 C   0  0  0  0  0  0  0  0  0  0  0  0
    7.8486   22.0767    3.0581 O   0  0  0  0  0  0  0  0  0  0  0  0
    6.8862   20.1295    2.3497 N   0  0  0  0  0  0  0  0  0  0  0  0
    7.0099   19.1420    2.0444 H   0  0  0  0  0  0  0  0  0  0  0  0
    5.5398   20.6734    2.4248 C   0  0  0  0  0  0  0  0  0  0  0  0
    4.8740   20.1325    3.6210 C   0  0  0  0  0  0  0  0  0  0  0  0
    5.1576   20.7998    4.9323 C   0  0  0  0  0  0  0  0  0  0  0  0
    4.9329   18.6173    3.7285 C   0  0  0  0  0  0  0  0  0  0  0  0
    4.8809   20.6202    1.1032 C   0  0  0  0  0  0  0  0  0  0  0  0
    5.5344   19.9668   -0.0055 C   0  0  0  0  0  0  0  0  0  0  0  0
    6.0358   18.6881    0.0567 C   0  0  0  0  0  0  0  0  0  0  0  0
    6.6705   18.0803   -0.9946 C   0  0  0  0  0  0  0  0  0  0  0  0
    6.8345   18.7449   -2.1836 C   0  0  0  0  0  0  0  0  0  0  0  0
    6.3377   20.0465   -2.2857 C   0  0  0  0  0  0  0  0  0  0  0  0
    5.7173   20.5977   -1.2100 C   0  0  0  0  0  0  0  0  0  0  0  0
   10.1530   20.1666    3.8516 C   0  0  0  0  0  0  0  0  0  0  0  0
   11.6188   20.4139    3.8186 C   0  0  0  0  0  0  0  0  0  0  0  0
   12.2900   19.0333    3.9309 C   0  0  0  0  0  0  0  0  0  0  0  0
   12.1600   21.2152    4.9709 C   0  0  0  0  0  0  0  0  0  0  0  0
   12.9743   20.6390   -0.6080 C   0  0  0  0  0  0  0  0  0  0  0  0
   13.9132   21.6578   -1.1431 C   0  0  0  0  0  0  0  0  0  0  0  0
   14.6053   22.4765   -0.2845 C   0  0  0  0  0  0  0  0  0  0  0  0
   15.4836   23.4518   -0.7642 C   0  0  0  0  0  0  0  0  0  0  0  0
   15.6405   23.5735   -2.1190 C   0  0  0  0  0  0  0  0  0  0  0  0
   14.9445   22.7491   -2.9743 C   0  0  0  0  0  0  0  0  0  0  0  0
   14.0894   21.8003   -2.4989 C   0  0  0  0  0  0  0  0  0  0  0  0
 19 20  1  0  0  0
 20 21  1  0  0  0
 20  6  1  0  0  0
  6  7  1  0  0  0
  7  8  1  0  0  0
  8  9  2  0  0  0
  8 11  1  0  0  0
 11 12  1  0  0  0
 12 13  1  0  0  0
 13 14  2  0  0  0
 14 15  1  0  0  0
 15 16  2  0  0  0
 16 17  1  0  0  0
 17 18  2  0  0  0
  6  2  1  0  0  0
  2  3  2  0  0  0
  2  4  1  0  0  0
  4  1  1  0  0  0
  1 46  1  0  0  0
 46 47  1  0  0  0
 47 48  2  0  0  0
 48 49  1  0  0  0
 49 50  2  0  0  0
 50 51  1  0  0  0
 51 52  2  0  0  0
  1 22  1  0  0  0
 22 23  2  0  0  0
 22 24  1  0  0  0
 24 26  1  0  0  0
 26 42  1  0  0  0
 42 43  1  0  0  0
 43 44  1  0  0  0
 43 45  1  0  0  0
 26 27  1  0  0  0
 27 28  2  0  0  0
 27 29  1  0  0  0
 29 31  1  0  0  0
 31 35  1  0  0  0
 35 36  1  0  0  0
 36 37  2  0  0  0
 37 38  1  0  0  0
 38 39  2  0  0  0
 39 40  1  0  0  0
 40 41  2  0  0  0
 31 32  1  0  0  0
 32 33  1  0  0  0
 32 34  1  0  0  0
 18 13  1  0  0  0
 52 47  1  0  0  0
 41 36  1  0  0  0
  7 10  1  0  0  0
  4  5  1  0  0  0
 24 25  1  0  0  0
 29 30  1  0  0  0
M  END
> <minimizedAffinity>
-2.27304

> <CNNscore>
0.3405815959

> <CNNaffinity>
7.3050713539

> <CNN_VS>
2.4879729748

> <CNNaffinity_variance>
0.2024574578

$$$$
[H]c1c([H])c([H])c(C([H])([H])OC(=O)N([H])[C@]([H])(C(=O)N([H])[C@]([H])(C(=O)N([H])[C@]([H])(C(=O)N([H])[C@@]([H])(C([H])([H])c2c([H])c([H])c([H])c([H])c2[H])C([H])(C([H])([H])[H])C([H])([H])[H])C([H])([H])C([H])(C([H])([H])[H])C([H])([H])[H])C([H])([H])c2c([H])c([H])c([H])c([H])c2[H])C([H])(C([H])([H])[H])C([H])([H])[H])c([H])c1[H]


 52 54  0  0  0  0  0  0  0  0999 V2000
   12.5484   20.8234    1.4441 C   0  0  0  0  0  0  0  0  0  0  0  0
   10.0294   20.6518    1.3791 C   0  0  0  0  0  0  0  0  0  0  0  0
   10.1353   21.3758    0.2926 O   0  0  0  0  0  0  0  0  0  0  0  0
   11.2686   20.3773    1.9573 N   0  0  0  0  0  0  0  0  0  0  0  0
   11.3084   19.7972    2.8181 H   0  0  0  0  0  0  0  0  0  0  0  0
    8.6691   20.3191    1.7005 C   0  0  0  0  0  0  0  0  0  0  0  0
    8.3397   20.9165    2.9631 N   0  0  0  0  0  0  0  0  0  0  0  0
    8.7327   20.7139    4.2757 C   0  0  0  0  0  0  0  0  0  0  0  0
    9.5361   19.8662    4.7035 O   0  0  0  0  0  0  0  0  0  0  0  0
    7.5903   21.7501    2.8843 H   0  0  0  0  0  0  0  0  0  0  0  0
    8.2024   21.5244    5.3251 O   0  0  0  0  0  0  0  0  0  0  0  0
    7.0610   22.3037    5.2045 C   0  0  0  0  0  0  0  0  0  0  0  0
    7.4279   23.6978    4.8751 C   0  0  0  0  0  0  0  0  0  0  0  0
    8.3853   24.3829    5.6095 C   0  0  0  0  0  0  0  0  0  0  0  0
    8.7544   25.6838    5.3124 C   0  0  0  0  0  0  0  0  0  0  0  0
    8.1533   26.3380    4.2450 C   0  0  0  0  0  0  0  0  0  0  0  0
    7.2118   25.6900    3.5086 C   0  0  0  0  0  0  0  0  0  0  0  0
    6.8538   24.3870    3.8193 C   0  0  0  0  0  0  0  0  0  0  0  0
    7.4875   19.0404   -0.1175 C   0  0  0  0  0  0  0  0  0  0  0  0
    7.5951   20.3094    0.7129 C   0  0  0  0  0  0  0  0  0  0  0  0
    6.2570   20.2553    1.5316 C   0  0  0  0  0  0  0  0  0  0  0  0
   12.5197   22.2016    0.9402 C   0  0  0  0  0  0  0  0  0  0  0  0
   13.4407   22.9904    1.3229 O   0  0  0  0  0  0  0  0  0  0  0  0
   11.5463   22.6825    0.0741 N   0  0  0  0  0  0  0  0  0  0  0  0
   10.7550   22.0499   -0.2675 H   0  0  0  0  0  0  0  0  0  0  0  0
   11.4632   24.0255   -0.4690 C   0  0  0  0  0  0  0  0  0  0  0  0
   12.5312   24.3031   -1.4468 C   0  0  0  0  0  0  0  0  0  0  0  0
   12.3497   24.0892   -2.6973 O   0  0  0  0  0  0  0  0  0  0  0  0
   13.8051   24.8174   -1.0937 N   0  0  0  0  0  0  0  0  0  0  0  0
   13.9945   24.9918   -0.0851 H   0  0  0  0  0  0  0  0  0  0  0  0
   14.8507   25.1095   -2.0610 C   0  0  0  0  0  0  0  0  0  0  0  0
   16.1544   25.0718   -1.3785 C   0  0  0  0  0  0  0  0  0  0  0  0
   16.1563   24.8060    0.0961 C   0  0  0  0  0  0  0  0  0  0  0  0
   17.0802   26.2183   -1.7519 C   0  0  0  0  0  0  0  0  0  0  0  0
   14.4726   26.2608   -2.9067 C   0  0  0  0  0  0  0  0  0  0  0  0
   14.9660   26.3577   -4.2596 C   0  0  0  0  0  0  0  0  0  0  0  0
   15.4452   27.5229   -4.8101 C   0  0  0  0  0  0  0  0  0  0  0  0
   15.8960   27.6116   -6.1010 C   0  0  0  0  0  0  0  0  0  0  0  0
   15.8854   26.5084   -6.9166 C   0  0  0  0  0  0  0  0  0  0  0  0
   15.4061   25.3054   -6.3926 C   0  0  0  0  0  0  0  0  0  0  0  0
   14.9720   25.2776   -5.1055 C   0  0  0  0  0  0  0  0  0  0  0  0
   11.2303   25.0603    0.5632 C   0  0  0  0  0  0  0  0  0  0  0  0
    9.9796   24.9465    1.3594 C   0  0  0  0  0  0  0  0  0  0  0  0
   10.3424   24.1340    2.6152 C   0  0  0  0  0  0  0  0  0  0  0  0
    8.8658   24.1820    0.6979 C   0  0  0  0  0  0  0  0  0  0  0  0
   13.2066   19.8794    0.4818 C   0  0  0  0  0  0  0  0  0  0  0  0
   13.7475   20.5420   -0.7324 C   0  0  0  0  0  0  0  0  0  0  0  0
   14.9300   21.2379   -0.6697 C   0  0  0  0  0  0  0  0  0  0  0  0
   15.4520   21.8813   -1.7951 C   0  0  0  0  0  0  0  0  0  0  0  0
   14.7536   21.8014   -2.9701 C   0  0  0  0  0  0  0  0  0  0  0  0
   13.5694   21.1015   -3.0265 C   0  0  0  0  0  0  0  0  0  0  0  0
   13.0665   20.4767   -1.9247 C   0  0  0  0  0  0  0  0  0  0  0  0
 19 20  1  0  0  0
 20 21  1  0  0  0
 20  6  1  0  0  0
  6  7  1  0  0  0
  7  8  1  0  0  0
  8  9  2  0  0  0
  8 11  1  0  0  0
 11 12  1  0  0  0
 12 13  1  0  0  0
 13 14  2  0  0  0
 14 15  1  0  0  0
 15 16  2  0  0  0
 16 17  1  0  0  0
 17 18  2  0  0  0
  6  2  1  0  0  0
  2  3  2  0  0  0
  2  4  1  0  0  0
  4  1  1  0  0  0
  1 46  1  0  0  0
 46 47  1  0  0  0
 47 48  2  0  0  0
 48 49  1  0  0  0
 49 50  2  0  0  0
 50 51  1  0  0  0
 51 52  2  0  0  0
  1 22  1  0  0  0
 22 23  2  0  0  0
 22 24  1  0  0  0
 24 26  1  0  0  0
 26 42  1  0  0  0
 42 43  1  0  0  0
 43 44  1  0  0  0
 43 45  1  0  0  0
 26 27  1  0  0  0
 27 28  2  0  0  0
 27 29  1  0  0  0
 29 31  1  0  0  0
 31 35  1  0  0  0
 35 36  1  0  0  0
 36 37  2  0  0  0
 37 38  1  0  0  0
 38 39  2  0  0  0
 39 40  1  0  0  0
 40 41  2  0  0  0
 31 32  1  0  0  0
 32 33  1  0  0  0
 32 34  1  0  0  0
 18 13  1  0  0  0
 52 47  1  0  0  0
 41 36  1  0  0  0
  7 10  1  0  0  0
  4  5  1  0  0  0
 24 25  1  0  0  0
 29 30  1  0  0  0
M  END
> <minimizedAffinity>
-2.20087

> <CNNscore>
0.3180387914

> <CNNaffinity>
7.7021379471

> <CNN_VS>
2.4495787621

> <CNNaffinity_variance>
0.2406375110

$$$$
[H]c1nc(N([H])c2c([H])c(OC([H])([H])[H])c(OC([H])([H])[H])c(OC([H])([H])[H])c2[H])nc(-c2c([H])c([H])c3c(c2[H])OC([H])([H])O3)c1[H]


 29 32  0  0  0  0  0  0  0  0999 V2000
   12.5978   23.0788    0.2231 C   0  0  0  0  0  0  0  0  0  0  0  0
   13.7179   22.8263    0.9061 N   0  0  0  0  0  0  0  0  0  0  0  0
   14.9430   23.2246    0.5454 C   0  0  0  0  0  0  0  0  0  0  0  0
   15.0847   23.9600   -0.6283 C   0  0  0  0  0  0  0  0  0  0  0  0
   13.9627   24.2442   -1.3639 C   0  0  0  0  0  0  0  0  0  0  0  0
   12.7722   23.7963   -0.9132 N   0  0  0  0  0  0  0  0  0  0  0  0
   14.0264   25.0082   -2.6030 C   0  0  0  0  0  0  0  0  0  0  0  0
   13.1411   26.0596   -2.8061 C   0  0  0  0  0  0  0  0  0  0  0  0
   13.1627   26.8108   -3.9611 C   0  0  0  0  0  0  0  0  0  0  0  0
   14.0878   26.5099   -4.9404 C   0  0  0  0  0  0  0  0  0  0  0  0
   14.4012   27.0271   -6.1966 O   0  0  0  0  0  0  0  0  0  0  0  0
   15.1660   26.0940   -6.9364 C   0  0  0  0  0  0  0  0  0  0  0  0
   15.8034   25.3644   -5.8793 O   0  0  0  0  0  0  0  0  0  0  0  0
   14.9824   25.4706   -4.7699 C   0  0  0  0  0  0  0  0  0  0  0  0
   14.9375   24.7218   -3.5825 C   0  0  0  0  0  0  0  0  0  0  0  0
   11.2882   22.6777    0.5681 N   0  0  0  0  0  0  0  0  0  0  0  0
   10.8109   22.0230   -0.1310 H   0  0  0  0  0  0  0  0  0  0  0  0
    9.2522   23.5352    4.1267 C   0  0  0  0  0  0  0  0  0  0  0  0
    9.2327   24.4737    3.1314 C   0  0  0  0  0  0  0  0  0  0  0  0
    9.9156   24.2044    1.9375 C   0  0  0  0  0  0  0  0  0  0  0  0
   10.5951   23.0567    1.7215 C   0  0  0  0  0  0  0  0  0  0  0  0
   10.5812   22.1292    2.7786 C   0  0  0  0  0  0  0  0  0  0  0  0
    9.9379   22.3297    3.9628 C   0  0  0  0  0  0  0  0  0  0  0  0
    7.1861   23.5858    5.4249 C   0  0  0  0  0  0  0  0  0  0  0  0
    8.5866   23.7666    5.3247 O   0  0  0  0  0  0  0  0  0  0  0  0
    8.5734   25.6733    3.2440 O   0  0  0  0  0  0  0  0  0  0  0  0
    9.1023   26.7893    3.9239 C   0  0  0  0  0  0  0  0  0  0  0  0
    9.9450   21.4070    4.9689 O   0  0  0  0  0  0  0  0  0  0  0  0
   10.9533   20.4706    5.2086 C   0  0  0  0  0  0  0  0  0  0  0  0
 24 25  1  0  0  0
 25 18  1  0  0  0
 18 19  2  0  0  0
 19 26  1  0  0  0
 26 27  1  0  0  0
 19 20  1  0  0  0
 20 21  2  0  0  0
 21 16  1  0  0  0
 16  1  1  0  0  0
  1  2  2  0  0  0
  2  3  1  0  0  0
  3  4  2  0  0  0
  4  5  1  0  0  0
  5  6  2  0  0  0
  5  7  1  0  0  0
  7  8  2  0  0  0
  8  9  1  0  0  0
  9 10  2  0  0  0
 10 11  1  0  0  0
 11 12  1  0  0  0
 12 13  1  0  0  0
 13 14  1  0  0  0
 14 15  2  0  0  0
 21 22  1  0  0  0
 22 23  2  0  0  0
 23 28  1  0  0  0
 28 29  1  0  0  0
 23 18  1  0  0  0
  6  1  1  0  0  0
 15  7  1  0  0  0
 14 10  1  0  0  0
 16 17  1  0  0  0
M  END
> <minimizedAffinity>
-8.77005

> <CNNscore>
0.5878909230

> <CNNaffinity>
6.8312215805

> <CNN_VS>
4.0160131454

> <CNNaffinity_variance>
0.2525518537

$$$$
[H]c1nc(N([H])c2c([H])c(OC([H])([H])[H])c(OC([H])([H])[H])c(OC([H])([H])[H])c2[H])nc(-c2c([H])c([H])c3c(c2[H])OC([H])([H])O3)c1[H]


 29 32  0  0  0  0  0  0  0  0999 V2000
   11.5470   25.1353   -2.1406 C   0  0  0  0  0  0  0  0  0  0  0  0
   10.2824   24.7668   -1.9170 N   0  0  0  0  0  0  0  0  0  0  0  0
    9.9060   23.7570   -1.1244 C   0  0  0  0  0  0  0  0  0  0  0  0
   10.8911   23.0202   -0.4726 C   0  0  0  0  0  0  0  0  0  0  0  0
   12.2046   23.3611   -0.6711 C   0  0  0  0  0  0  0  0  0  0  0  0
   12.4794   24.3973   -1.4908 N   0  0  0  0  0  0  0  0  0  0  0  0
   13.2942   22.6401   -0.0259 C   0  0  0  0  0  0  0  0  0  0  0  0
   13.0560   21.3856    0.5218 C   0  0  0  0  0  0  0  0  0  0  0  0
   14.0540   20.6656    1.1419 C   0  0  0  0  0  0  0  0  0  0  0  0
   15.3219   21.2056    1.2201 C   0  0  0  0  0  0  0  0  0  0  0  0
   16.5422   20.7903    1.7513 O   0  0  0  0  0  0  0  0  0  0  0  0
   17.4129   21.8950    1.9071 C   0  0  0  0  0  0  0  0  0  0  0  0
   16.9230   22.7747    0.8863 O   0  0  0  0  0  0  0  0  0  0  0  0
   15.5922   22.4509    0.6856 C   0  0  0  0  0  0  0  0  0  0  0  0
   14.5557   23.1623    0.0593 C   0  0  0  0  0  0  0  0  0  0  0  0
   11.9862   26.1925   -2.9678 N   0  0  0  0  0  0  0  0  0  0  0  0
   11.2366   26.9097   -3.2305 H   0  0  0  0  0  0  0  0  0  0  0  0
   15.9815   26.6852   -4.1248 C   0  0  0  0  0  0  0  0  0  0  0  0
   15.0078   26.9133   -5.0585 C   0  0  0  0  0  0  0  0  0  0  0  0
   13.6665   26.7454   -4.6885 C   0  0  0  0  0  0  0  0  0  0  0  0
   13.2874   26.3676   -3.4479 C   0  0  0  0  0  0  0  0  0  0  0  0
   14.3300   26.1469   -2.5302 C   0  0  0  0  0  0  0  0  0  0  0  0
   15.6520   26.2920   -2.8259 C   0  0  0  0  0  0  0  0  0  0  0  0
   17.8982   28.1299   -4.5673 C   0  0  0  0  0  0  0  0  0  0  0  0
   17.3226   26.8414   -4.4546 O   0  0  0  0  0  0  0  0  0  0  0  0
   15.2804   27.3011   -6.3476 O   0  0  0  0  0  0  0  0  0  0  0  0
   15.8780   26.4545   -7.3033 C   0  0  0  0  0  0  0  0  0  0  0  0
   16.6393   26.0692   -1.9098 O   0  0  0  0  0  0  0  0  0  0  0  0
   17.7978   25.3196   -2.1266 C   0  0  0  0  0  0  0  0  0  0  0  0
 24 25  1  0  0  0
 25 18  1  0  0  0
 18 19  2  0  0  0
 19 26  1  0  0  0
 26 27  1  0  0  0
 19 20  1  0  0  0
 20 21  2  0  0  0
 21 16  1  0  0  0
 16  1  1  0  0  0
  1  2  2  0  0  0
  2  3  1  0  0  0
  3  4  2  0  0  0
  4  5  1  0  0  0
  5  6  2  0  0  0
  5  7  1  0  0  0
  7  8  2  0  0  0
  8  9  1  0  0  0
  9 10  2  0  0  0
 10 11  1  0  0  0
 11 12  1  0  0  0
 12 13  1  0  0  0
 13 14  1  0  0  0
 14 15  2  0  0  0
 21 22  1  0  0  0
 22 23  2  0  0  0
 23 28  1  0  0  0
 28 29  1  0  0  0
 23 18  1  0  0  0
  6  1  1  0  0  0
 15  7  1  0  0  0
 14 10  1  0  0  0
 16 17  1  0  0  0
M  END
> <minimizedAffinity>
3.05811

> <CNNscore>
0.5474203825

> <CNNaffinity>
6.9706506729

> <CNN_VS>
3.8158762455

> <CNNaffinity_variance>
0.3580839634

$$$$
[H]c1nc(N([H])c2c([H])c(OC([H])([H])[H])c(OC([H])([H])[H])c(OC([H])([H])[H])c2[H])nc(-c2c([H])c([H])c3c(c2[H])OC([H])([H])O3)c1[H]


 29 32  0  0  0  0  0  0  0  0999 V2000
   13.2520   22.8983   -0.0032 C   0  0  0  0  0  0  0  0  0  0  0  0
   14.2987   23.0499    0.8133 N   0  0  0  0  0  0  0  0  0  0  0  0
   15.3598   23.8256    0.5647 C   0  0  0  0  0  0  0  0  0  0  0  0
   15.3972   24.5386   -0.6306 C   0  0  0  0  0  0  0  0  0  0  0  0
   14.3449   24.4149   -1.5014 C   0  0  0  0  0  0  0  0  0  0  0  0
   13.3212   23.6061   -1.1566 N   0  0  0  0  0  0  0  0  0  0  0  0
   14.3081   25.1273   -2.7720 C   0  0  0  0  0  0  0  0  0  0  0  0
   13.3384   26.0994   -2.9847 C   0  0  0  0  0  0  0  0  0  0  0  0
   13.2634   26.7995   -4.1692 C   0  0  0  0  0  0  0  0  0  0  0  0
   14.1754   26.5270   -5.1689 C   0  0  0  0  0  0  0  0  0  0  0  0
   14.4058   27.0116   -6.4558 O   0  0  0  0  0  0  0  0  0  0  0  0
   15.2145   26.1076   -7.1848 C   0  0  0  0  0  0  0  0  0  0  0  0
   15.9411   25.4743   -6.1234 O   0  0  0  0  0  0  0  0  0  0  0  0
   15.1523   25.5662   -4.9896 C   0  0  0  0  0  0  0  0  0  0  0  0
   15.2049   24.8682   -3.7720 C   0  0  0  0  0  0  0  0  0  0  0  0
   12.1146   22.0914    0.2208 N   0  0  0  0  0  0  0  0  0  0  0  0
   11.7623   21.5501   -0.6325 H   0  0  0  0  0  0  0  0  0  0  0  0
   10.0389   21.9568    3.8563 C   0  0  0  0  0  0  0  0  0  0  0  0
   10.7165   20.8363    3.4598 C   0  0  0  0  0  0  0  0  0  0  0  0
   11.4097   20.8635    2.2420 C   0  0  0  0  0  0  0  0  0  0  0  0
   11.4413   21.9485    1.4375 C   0  0  0  0  0  0  0  0  0  0  0  0
   10.7273   23.0704    1.8952 C   0  0  0  0  0  0  0  0  0  0  0  0
   10.0339   23.1090    3.0673 C   0  0  0  0  0  0  0  0  0  0  0  0
    7.9953   21.5293    5.1203 C   0  0  0  0  0  0  0  0  0  0  0  0
    9.3399   21.9676    5.0576 O   0  0  0  0  0  0  0  0  0  0  0  0
   10.7519   19.6796    4.1995 O   0  0  0  0  0  0  0  0  0  0  0  0
   11.8192   18.7598    4.1521 C   0  0  0  0  0  0  0  0  0  0  0  0
    9.3508   24.2161    3.4816 O   0  0  0  0  0  0  0  0  0  0  0  0
    8.4528   24.9559    2.7088 C   0  0  0  0  0  0  0  0  0  0  0  0
 24 25  1  0  0  0
 25 18  1  0  0  0
 18 19  2  0  0  0
 19 26  1  0  0  0
 26 27  1  0  0  0
 19 20  1  0  0  0
 20 21  2  0  0  0
 21 16  1  0  0  0
 16  1  1  0  0  0
  1  2  2  0  0  0
  2  3  1  0  0  0
  3  4  2  0  0  0
  4  5  1  0  0  0
  5  6  2  0  0  0
  5  7  1  0  0  0
  7  8  2  0  0  0
  8  9  1  0  0  0
  9 10  2  0  0  0
 10 11  1  0  0  0
 11 12  1  0  0  0
 12 13  1  0  0  0
 13 14  1  0  0  0
 14 15  2  0  0  0
 21 22  1  0  0  0
 22 23  2  0  0  0
 23 28  1  0  0  0
 28 29  1  0  0  0
 23 18  1  0  0  0
  6  1  1  0  0  0
 15  7  1  0  0  0
 14 10  1  0  0  0
 16 17  1  0  0  0
M  END
> <minimizedAffinity>
-8.72924

> <CNNscore>
0.5233885646

> <CNNaffinity>
6.9023742676

> <CNN_VS>
3.6126236916

> <CNNaffinity_variance>
0.2557163239

$$$$
[H]c1nc(N([H])c2c([H])c(OC([H])([H])[H])c(OC([H])([H])[H])c(OC([H])([H])[H])c2[H])nc(-c2c([H])c([H])c3c(c2[H])OC([H])([H])O3)c1[H]


 29 32  0  0  0  0  0  0  0  0999 V2000
   13.3509   29.4456   -3.4510 C   0  0  0  0  0  0  0  0  0  0  0  0
   13.8404   30.6036   -3.9032 N   0  0  0  0  0  0  0  0  0  0  0  0
   13.1209   31.5595   -4.5015 C   0  0  0  0  0  0  0  0  0  0  0  0
   11.7553   31.3528   -4.6768 C   0  0  0  0  0  0  0  0  0  0  0  0
   11.2067   30.1784   -4.2287 C   0  0  0  0  0  0  0  0  0  0  0  0
   12.0193   29.2776   -3.6378 N   0  0  0  0  0  0  0  0  0  0  0  0
    9.7867   29.8861   -4.3741 C   0  0  0  0  0  0  0  0  0  0  0  0
    8.8821   30.4090   -3.4582 C   0  0  0  0  0  0  0  0  0  0  0  0
    7.5301   30.1606   -3.5542 C   0  0  0  0  0  0  0  0  0  0  0  0
    7.0640   29.3721   -4.5868 C   0  0  0  0  0  0  0  0  0  0  0  0
    5.8110   28.9172   -4.9953 O   0  0  0  0  0  0  0  0  0  0  0  0
    5.9494   27.8203   -5.8788 C   0  0  0  0  0  0  0  0  0  0  0  0
    7.2387   28.0879   -6.4461 O   0  0  0  0  0  0  0  0  0  0  0  0
    7.9370   28.8366   -5.5145 C   0  0  0  0  0  0  0  0  0  0  0  0
    9.3099   29.1064   -5.3921 C   0  0  0  0  0  0  0  0  0  0  0  0
   14.0742   28.4124   -2.8152 N   0  0  0  0  0  0  0  0  0  0  0  0
   14.4188   28.6361   -1.8271 H   0  0  0  0  0  0  0  0  0  0  0  0
   14.9973   24.7928   -4.7102 C   0  0  0  0  0  0  0  0  0  0  0  0
   14.4135   24.7419   -3.4738 C   0  0  0  0  0  0  0  0  0  0  0  0
   14.1055   25.9448   -2.8238 C   0  0  0  0  0  0  0  0  0  0  0  0
   14.3583   27.1578   -3.3626 C   0  0  0  0  0  0  0  0  0  0  0  0
   14.9591   27.1493   -4.6342 C   0  0  0  0  0  0  0  0  0  0  0  0
   15.2836   26.0168   -5.3186 C   0  0  0  0  0  0  0  0  0  0  0  0
   15.5322   22.4117   -4.6816 C   0  0  0  0  0  0  0  0  0  0  0  0
   15.3173   23.6210   -5.3856 O   0  0  0  0  0  0  0  0  0  0  0  0
   14.1124   23.5644   -2.8341 O   0  0  0  0  0  0  0  0  0  0  0  0
   13.2185   23.4776   -1.7475 C   0  0  0  0  0  0  0  0  0  0  0  0
   15.8667   26.0449   -6.5526 O   0  0  0  0  0  0  0  0  0  0  0  0
   15.1967   25.9332   -7.7731 C   0  0  0  0  0  0  0  0  0  0  0  0
 24 25  1  0  0  0
 25 18  1  0  0  0
 18 19  2  0  0  0
 19 26  1  0  0  0
 26 27  1  0  0  0
 19 20  1  0  0  0
 20 21  2  0  0  0
 21 16  1  0  0  0
 16  1  1  0  0  0
  1  2  2  0  0  0
  2  3  1  0  0  0
  3  4  2  0  0  0
  4  5  1  0  0  0
  5  6  2  0  0  0
  5  7  1  0  0  0
  7  8  2  0  0  0
  8  9  1  0  0  0
  9 10  2  0  0  0
 10 11  1  0  0  0
 11 12  1  0  0  0
 12 13  1  0  0  0
 13 14  1  0  0  0
 14 15  2  0  0  0
 21 22  1  0  0  0
 22 23  2  0  0  0
 23 28  1  0  0  0
 28 29  1  0  0  0
 23 18  1  0  0  0
  6  1  1  0  0  0
 15  7  1  0  0  0
 14 10  1  0  0  0
 16 17  1  0  0  0
M  END
> <minimizedAffinity>
22.77057

> <CNNscore>
0.5037435293

> <CNNaffinity>
5.9306554794

> <CNN_VS>
2.9875292778

> <CNNaffinity_variance>
0.5633508563

$$$$
[H]c1nc(N([H])c2c([H])c(OC([H])([H])[H])c(OC([H])([H])[H])c(OC([H])([H])[H])c2[H])nc(-c2c([H])c([H])c3c(c2[H])OC([H])([H])O3)c1[H]


 29 32  0  0  0  0  0  0  0  0999 V2000
   14.0930   23.3454   -0.4476 C   0  0  0  0  0  0  0  0  0  0  0  0
   14.9553   23.5896    0.5433 N   0  0  0  0  0  0  0  0  0  0  0  0
   16.0234   24.3898    0.4515 C   0  0  0  0  0  0  0  0  0  0  0  0
   16.2747   25.0272   -0.7605 C   0  0  0  0  0  0  0  0  0  0  0  0
   15.4168   24.8074   -1.8076 C   0  0  0  0  0  0  0  0  0  0  0  0
   14.3675   23.9817   -1.6121 N   0  0  0  0  0  0  0  0  0  0  0  0
   15.6101   25.4366   -3.1076 C   0  0  0  0  0  0  0  0  0  0  0  0
   16.0156   26.7639   -3.1729 C   0  0  0  0  0  0  0  0  0  0  0  0
   16.2116   27.4020   -4.3785 C   0  0  0  0  0  0  0  0  0  0  0  0
   15.9992   26.7037   -5.5500 C   0  0  0  0  0  0  0  0  0  0  0  0
   16.0914   27.0014   -6.9089 O   0  0  0  0  0  0  0  0  0  0  0  0
   15.3797   26.0452   -7.6719 C   0  0  0  0  0  0  0  0  0  0  0  0
   15.4495   24.9016   -6.8099 O   0  0  0  0  0  0  0  0  0  0  0  0
   15.5955   25.3824   -5.5201 C   0  0  0  0  0  0  0  0  0  0  0  0
   15.4035   24.7575   -4.2770 C   0  0  0  0  0  0  0  0  0  0  0  0
   12.9559   22.5096   -0.3924 N   0  0  0  0  0  0  0  0  0  0  0  0
   12.7908   21.9035   -1.2588 H   0  0  0  0  0  0  0  0  0  0  0  0
   10.3265   21.9310    2.8163 C   0  0  0  0  0  0  0  0  0  0  0  0
   10.3871   23.1748    2.2496 C   0  0  0  0  0  0  0  0  0  0  0  0
   11.2677   23.3860    1.1799 C   0  0  0  0  0  0  0  0  0  0  0  0
   12.0628   22.4152    0.6789 C   0  0  0  0  0  0  0  0  0  0  0  0
   11.9586   21.1578    1.3003 C   0  0  0  0  0  0  0  0  0  0  0  0
   11.1242   20.8871    2.3427 C   0  0  0  0  0  0  0  0  0  0  0  0
    9.8549   21.9639    5.2107 C   0  0  0  0  0  0  0  0  0  0  0  0
    9.4654   21.6835    3.8789 O   0  0  0  0  0  0  0  0  0  0  0  0
    9.6239   24.2330    2.6788 O   0  0  0  0  0  0  0  0  0  0  0  0
    8.2861   24.4364    2.2834 C   0  0  0  0  0  0  0  0  0  0  0  0
   11.0483   19.6537    2.9229 O   0  0  0  0  0  0  0  0  0  0  0  0
   11.9381   19.1431    3.8708 C   0  0  0  0  0  0  0  0  0  0  0  0
 24 25  1  0  0  0
 25 18  1  0  0  0
 18 19  2  0  0  0
 19 26  1  0  0  0
 26 27  1  0  0  0
 19 20  1  0  0  0
 20 21  2  0  0  0
 21 16  1  0  0  0
 16  1  1  0  0  0
  1  2  2  0  0  0
  2  3  1  0  0  0
  3  4  2  0  0  0
  4  5  1  0  0  0
  5  6  2  0  0  0
  5  7  1  0  0  0
  7  8  2  0  0  0
  8  9  1  0  0  0
  9 10  2  0  0  0
 10 11  1  0  0  0
 11 12  1  0  0  0
 12 13  1  0  0  0
 13 14  1  0  0  0
 14 15  2  0  0  0
 21 22  1  0  0  0
 22 23  2  0  0  0
 23 28  1  0  0  0
 28 29  1  0  0  0
 23 18  1  0  0  0
  6  1  1  0  0  0
 15  7  1  0  0  0
 14 10  1  0  0  0
 16 17  1  0  0  0
M  END
> <minimizedAffinity>
-8.18219

> <CNNscore>
0.4869016409

> <CNNaffinity>
7.0462636948

> <CNN_VS>
3.4308373928

> <CNNaffinity_variance>
0.2777272165

$$$$
[H]c1nc(N([H])c2c([H])c(OC([H])([H])[H])c(OC([H])([H])[H])c(OC([H])([H])[H])c2[H])nc(-c2c([H])c([H])c3c(c2[H])OC([H])([H])O3)c1[H]


 29 32  0  0  0  0  0  0  0  0999 V2000
   13.3581   29.7607   -3.6002 C   0  0  0  0  0  0  0  0  0  0  0  0
   13.7494   30.9865   -3.9598 N   0  0  0  0  0  0  0  0  0  0  0  0
   12.9424   31.9402   -4.4383 C   0  0  0  0  0  0  0  0  0  0  0  0
   11.5871   31.6551   -4.5807 C   0  0  0  0  0  0  0  0  0  0  0  0
   11.1379   30.4092   -4.2244 C   0  0  0  0  0  0  0  0  0  0  0  0
   12.0337   29.5175   -3.7516 N   0  0  0  0  0  0  0  0  0  0  0  0
    9.7353   30.0325   -4.3431 C   0  0  0  0  0  0  0  0  0  0  0  0
    8.8302   30.4466   -3.3736 C   0  0  0  0  0  0  0  0  0  0  0  0
    7.4943   30.1156   -3.4424 C   0  0  0  0  0  0  0  0  0  0  0  0
    7.0454   29.3532   -4.5019 C   0  0  0  0  0  0  0  0  0  0  0  0
    5.8111   28.8392   -4.8970 O   0  0  0  0  0  0  0  0  0  0  0  0
    5.9897   27.8013   -5.8423 C   0  0  0  0  0  0  0  0  0  0  0  0
    7.2398   28.1819   -6.4326 O   0  0  0  0  0  0  0  0  0  0  0  0
    7.9195   28.9251   -5.4829 C   0  0  0  0  0  0  0  0  0  0  0  0
    9.2757   29.2775   -5.3871 C   0  0  0  0  0  0  0  0  0  0  0  0
   14.1755   28.7272   -3.0918 N   0  0  0  0  0  0  0  0  0  0  0  0
   14.5336   28.8756   -2.0943 H   0  0  0  0  0  0  0  0  0  0  0  0
   15.3274   25.1123   -4.8667 C   0  0  0  0  0  0  0  0  0  0  0  0
   15.0165   26.1623   -5.6870 C   0  0  0  0  0  0  0  0  0  0  0  0
   14.6221   27.3762   -5.1081 C   0  0  0  0  0  0  0  0  0  0  0  0
   14.5343   27.5600   -3.7724 C   0  0  0  0  0  0  0  0  0  0  0  0
   14.8652   26.4472   -2.9786 C   0  0  0  0  0  0  0  0  0  0  0  0
   15.2550   25.2410   -3.4780 C   0  0  0  0  0  0  0  0  0  0  0  0
   14.8743   23.1767   -6.2826 C   0  0  0  0  0  0  0  0  0  0  0  0
   15.7225   23.8930   -5.4041 O   0  0  0  0  0  0  0  0  0  0  0  0
   15.0720   26.0860   -7.0572 O   0  0  0  0  0  0  0  0  0  0  0  0
   16.2382   26.3524   -7.8032 C   0  0  0  0  0  0  0  0  0  0  0  0
   15.5692   24.1805   -2.6777 O   0  0  0  0  0  0  0  0  0  0  0  0
   15.0045   22.9054   -2.7559 C   0  0  0  0  0  0  0  0  0  0  0  0
 24 25  1  0  0  0
 25 18  1  0  0  0
 18 19  2  0  0  0
 19 26  1  0  0  0
 26 27  1  0  0  0
 19 20  1  0  0  0
 20 21  2  0  0  0
 21 16  1  0  0  0
 16  1  1  0  0  0
  1  2  2  0  0  0
  2  3  1  0  0  0
  3  4  2  0  0  0
  4  5  1  0  0  0
  5  6  2  0  0  0
  5  7  1  0  0  0
  7  8  2  0  0  0
  8  9  1  0  0  0
  9 10  2  0  0  0
 10 11  1  0  0  0
 11 12  1  0  0  0
 12 13  1  0  0  0
 13 14  1  0  0  0
 14 15  2  0  0  0
 21 22  1  0  0  0
 22 23  2  0  0  0
 23 28  1  0  0  0
 28 29  1  0  0  0
 23 18  1  0  0  0
  6  1  1  0  0  0
 15  7  1  0  0  0
 14 10  1  0  0  0
 16 17  1  0  0  0
M  END
> <minimizedAffinity>
23.95734

> <CNNscore>
0.4472016692

> <CNNaffinity>
5.7562212944

> <CNN_VS>
2.5741918087

> <CNNaffinity_variance>
0.6384242773

$$$$
[H]c1nc(N([H])c2c([H])c(OC([H])([H])[H])c(OC([H])([H])[H])c(OC([H])([H])[H])c2[H])nc(-c2c([H])c([H])c3c(c2[H])OC([H])([H])O3)c1[H]


 29 32  0  0  0  0  0  0  0  0999 V2000
   13.2556   22.0627   -0.4606 C   0  0  0  0  0  0  0  0  0  0  0  0
   14.1107   22.3055    0.5368 N   0  0  0  0  0  0  0  0  0  0  0  0
   15.0052   23.3000    0.5558 C   0  0  0  0  0  0  0  0  0  0  0  0
   15.0672   24.1599   -0.5375 C   0  0  0  0  0  0  0  0  0  0  0  0
   14.2088   23.9504   -1.5864 C   0  0  0  0  0  0  0  0  0  0  0  0
   13.3431   22.9181   -1.5078 N   0  0  0  0  0  0  0  0  0  0  0  0
   14.2105   24.8052   -2.7664 C   0  0  0  0  0  0  0  0  0  0  0  0
   13.3145   25.8641   -2.8467 C   0  0  0  0  0  0  0  0  0  0  0  0
   13.2783   26.6997   -3.9419 C   0  0  0  0  0  0  0  0  0  0  0  0
   14.1549   26.4779   -4.9848 C   0  0  0  0  0  0  0  0  0  0  0  0
   14.4056   27.0892   -6.2125 O   0  0  0  0  0  0  0  0  0  0  0  0
   15.1349   26.2182   -7.0565 C   0  0  0  0  0  0  0  0  0  0  0  0
   15.8244   25.4150   -6.0894 O   0  0  0  0  0  0  0  0  0  0  0  0
   15.0585   25.4335   -4.9365 C   0  0  0  0  0  0  0  0  0  0  0  0
   15.0730   24.5978   -3.8077 C   0  0  0  0  0  0  0  0  0  0  0  0
   12.2979   21.0263   -0.5200 N   0  0  0  0  0  0  0  0  0  0  0  0
   12.6776   20.0682   -0.8085 H   0  0  0  0  0  0  0  0  0  0  0  0
    8.2863   21.6475    0.5120 C   0  0  0  0  0  0  0  0  0  0  0  0
    8.6032   20.5159   -0.1887 C   0  0  0  0  0  0  0  0  0  0  0  0
    9.9403   20.2977   -0.5477 C   0  0  0  0  0  0  0  0  0  0  0  0
   10.9358   21.1553   -0.2331 C   0  0  0  0  0  0  0  0  0  0  0  0
   10.5519   22.3008    0.4869 C   0  0  0  0  0  0  0  0  0  0  0  0
    9.2715   22.5718    0.8658 C   0  0  0  0  0  0  0  0  0  0  0  0
    6.4386   21.3549    2.0796 C   0  0  0  0  0  0  0  0  0  0  0  0
    6.9712   21.8981    0.8857 O   0  0  0  0  0  0  0  0  0  0  0  0
    7.6715   19.5774   -0.5598 O   0  0  0  0  0  0  0  0  0  0  0  0
    7.0690   19.5429   -1.8338 C   0  0  0  0  0  0  0  0  0  0  0  0
    8.9335   23.6947    1.5647 O   0  0  0  0  0  0  0  0  0  0  0  0
    9.8072   24.4742    2.3263 C   0  0  0  0  0  0  0  0  0  0  0  0
 24 25  1  0  0  0
 25 18  1  0  0  0
 18 19  2  0  0  0
 19 26  1  0  0  0
 26 27  1  0  0  0
 19 20  1  0  0  0
 20 21  2  0  0  0
 21 16  1  0  0  0
 16  1  1  0  0  0
  1  2  2  0  0  0
  2  3  1  0  0  0
  3  4  2  0  0  0
  4  5  1  0  0  0
  5  6  2  0  0  0
  5  7  1  0  0  0
  7  8  2  0  0  0
  8  9  1  0  0  0
  9 10  2  0  0  0
 10 11  1  0  0  0
 11 12  1  0  0  0
 12 13  1  0  0  0
 13 14  1  0  0  0
 14 15  2  0  0  0
 21 22  1  0  0  0
 22 23  2  0  0  0
 23 28  1  0  0  0
 28 29  1  0  0  0
 23 18  1  0  0  0
  6  1  1  0  0  0
 15  7  1  0  0  0
 14 10  1  0  0  0
 16 17  1  0  0  0
M  END
> <minimizedAffinity>
-8.88498

> <CNNscore>
0.4414100349

> <CNNaffinity>
6.9950499535

> <CNN_VS>
3.0876853466

> <CNNaffinity_variance>
0.3086761534

$$$$
[H]c1nc(N([H])c2c([H])c(OC([H])([H])[H])c(OC([H])([H])[H])c(OC([H])([H])[H])c2[H])nc(-c2c([H])c([H])c3c(c2[H])OC([H])([H])O3)c1[H]


 29 32  0  0  0  0  0  0  0  0999 V2000
   12.9007   25.8887   -3.3741 C   0  0  0  0  0  0  0  0  0  0  0  0
   13.9808   26.2807   -4.0558 N   0  0  0  0  0  0  0  0  0  0  0  0
   14.0135   27.2993   -4.9224 C   0  0  0  0  0  0  0  0  0  0  0  0
   12.8435   28.0200   -5.1462 C   0  0  0  0  0  0  0  0  0  0  0  0
   11.7083   27.6547   -4.4690 C   0  0  0  0  0  0  0  0  0  0  0  0
   11.7803   26.6115   -3.6159 N   0  0  0  0  0  0  0  0  0  0  0  0
   10.4444   28.3576   -4.6473 C   0  0  0  0  0  0  0  0  0  0  0  0
    9.8241   28.3472   -5.8906 C   0  0  0  0  0  0  0  0  0  0  0  0
    8.6286   28.9972   -6.1080 C   0  0  0  0  0  0  0  0  0  0  0  0
    8.0335   29.6754   -5.0635 C   0  0  0  0  0  0  0  0  0  0  0  0
    6.8671   30.4229   -4.9070 O   0  0  0  0  0  0  0  0  0  0  0  0
    6.9456   31.2195   -3.7399 C   0  0  0  0  0  0  0  0  0  0  0  0
    7.8454   30.4420   -2.9388 O   0  0  0  0  0  0  0  0  0  0  0  0
    8.6243   29.7054   -3.8146 C   0  0  0  0  0  0  0  0  0  0  0  0
    9.8428   29.0341   -3.6218 C   0  0  0  0  0  0  0  0  0  0  0  0
   12.8238   24.8214   -2.4523 N   0  0  0  0  0  0  0  0  0  0  0  0
   11.8975   24.2854   -2.4489 H   0  0  0  0  0  0  0  0  0  0  0  0
   15.6566   23.4785    0.3255 C   0  0  0  0  0  0  0  0  0  0  0  0
   16.0482   24.4142   -0.5927 C   0  0  0  0  0  0  0  0  0  0  0  0
   15.1137   24.8679   -1.5334 C   0  0  0  0  0  0  0  0  0  0  0  0
   13.8384   24.4236   -1.5767 C   0  0  0  0  0  0  0  0  0  0  0  0
   13.4921   23.4628   -0.6099 C   0  0  0  0  0  0  0  0  0  0  0  0
   14.3518   22.9806    0.3307 C   0  0  0  0  0  0  0  0  0  0  0  0
   17.7343   23.7253    1.5822 C   0  0  0  0  0  0  0  0  0  0  0  0
   16.5553   23.0046    1.2739 O   0  0  0  0  0  0  0  0  0  0  0  0
   17.3186   24.9344   -0.6389 O   0  0  0  0  0  0  0  0  0  0  0  0
   17.8561   25.5710   -1.7760 C   0  0  0  0  0  0  0  0  0  0  0  0
   13.9820   22.0469    1.2554 O   0  0  0  0  0  0  0  0  0  0  0  0
   13.4941   20.7690    0.9728 C   0  0  0  0  0  0  0  0  0  0  0  0
 24 25  1  0  0  0
 25 18  1  0  0  0
 18 19  2  0  0  0
 19 26  1  0  0  0
 26 27  1  0  0  0
 19 20  1  0  0  0
 20 21  2  0  0  0
 21 16  1  0  0  0
 16  1  1  0  0  0
  1  2  2  0  0  0
  2  3  1  0  0  0
  3  4  2  0  0  0
  4  5  1  0  0  0
  5  6  2  0  0  0
  5  7  1  0  0  0
  7  8  2  0  0  0
  8  9  1  0  0  0
  9 10  2  0  0  0
 10 11  1  0  0  0
 11 12  1  0  0  0
 12 13  1  0  0  0
 13 14  1  0  0  0
 14 15  2  0  0  0
 21 22  1  0  0  0
 22 23  2  0  0  0
 23 28  1  0  0  0
 28 29  1  0  0  0
 23 18  1  0  0  0
  6  1  1  0  0  0
 15  7  1  0  0  0
 14 10  1  0  0  0
 16 17  1  0  0  0
M  END
> <minimizedAffinity>
25.76776

> <CNNscore>
0.4308074415

> <CNNaffinity>
6.2268896103

> <CNN_VS>
2.6825904846

> <CNNaffinity_variance>
0.8185540438

$$$$
[H]c1nc(N([H])c2c([H])c(OC([H])([H])[H])c(OC([H])([H])[H])c(OC([H])([H])[H])c2[H])nc(-c2c([H])c([H])c3c(c2[H])OC([H])([H])O3)c1[H]


 29 32  0  0  0  0  0  0  0  0999 V2000
   13.7381   23.1071    0.1495 C   0  0  0  0  0  0  0  0  0  0  0  0
   14.3638   22.0323    0.6379 N   0  0  0  0  0  0  0  0  0  0  0  0
   13.7551   20.9467    1.1282 C   0  0  0  0  0  0  0  0  0  0  0  0
   12.3633   20.9129    1.1402 C   0  0  0  0  0  0  0  0  0  0  0  0
   11.6765   21.9937    0.6490 C   0  0  0  0  0  0  0  0  0  0  0  0
   12.3850   23.0405    0.1764 N   0  0  0  0  0  0  0  0  0  0  0  0
   10.2202   22.0362    0.6263 C   0  0  0  0  0  0  0  0  0  0  0  0
    9.5667   23.2456    0.8286 C   0  0  0  0  0  0  0  0  0  0  0  0
    8.1918   23.3359    0.8161 C   0  0  0  0  0  0  0  0  0  0  0  0
    7.4460   22.1952    0.5970 C   0  0  0  0  0  0  0  0  0  0  0  0
    6.0849   21.9042    0.5167 O   0  0  0  0  0  0  0  0  0  0  0  0
    5.8684   20.5144    0.6725 C   0  0  0  0  0  0  0  0  0  0  0  0
    7.1148   19.9890    0.1966 O   0  0  0  0  0  0  0  0  0  0  0  0
    8.0648   20.9766    0.3925 C   0  0  0  0  0  0  0  0  0  0  0  0
    9.4678   20.9142    0.4106 C   0  0  0  0  0  0  0  0  0  0  0  0
   14.3416   24.2708   -0.3762 N   0  0  0  0  0  0  0  0  0  0  0  0
   14.6978   24.9702    0.3513 H   0  0  0  0  0  0  0  0  0  0  0  0
   14.6600   25.3844   -4.4014 C   0  0  0  0  0  0  0  0  0  0  0  0
   15.1864   24.1796   -4.0229 C   0  0  0  0  0  0  0  0  0  0  0  0
   15.0943   23.7964   -2.6780 C   0  0  0  0  0  0  0  0  0  0  0  0
   14.5072   24.5633   -1.7331 C   0  0  0  0  0  0  0  0  0  0  0  0
   13.9843   25.7903   -2.1791 C   0  0  0  0  0  0  0  0  0  0  0  0
   14.0413   26.2213   -3.4703 C   0  0  0  0  0  0  0  0  0  0  0  0
   15.7219   26.7193   -6.1471 C   0  0  0  0  0  0  0  0  0  0  0  0
   14.7324   25.7985   -5.7263 O   0  0  0  0  0  0  0  0  0  0  0  0
   15.8041   23.3218   -4.9000 O   0  0  0  0  0  0  0  0  0  0  0  0
   15.4628   21.9597   -5.0243 C   0  0  0  0  0  0  0  0  0  0  0  0
   13.5229   27.4196   -3.8692 O   0  0  0  0  0  0  0  0  0  0  0  0
   12.1999   27.6470   -4.2552 C   0  0  0  0  0  0  0  0  0  0  0  0
 24 25  1  0  0  0
 25 18  1  0  0  0
 18 19  2  0  0  0
 19 26  1  0  0  0
 26 27  1  0  0  0
 19 20  1  0  0  0
 20 21  2  0  0  0
 21 16  1  0  0  0
 16  1  1  0  0  0
  1  2  2  0  0  0
  2  3  1  0  0  0
  3  4  2  0  0  0
  4  5  1  0  0  0
  5  6  2  0  0  0
  5  7  1  0  0  0
  7  8  2  0  0  0
  8  9  1  0  0  0
  9 10  2  0  0  0
 10 11  1  0  0  0
 11 12  1  0  0  0
 12 13  1  0  0  0
 13 14  1  0  0  0
 14 15  2  0  0  0
 21 22  1  0  0  0
 22 23  2  0  0  0
 23 28  1  0  0  0
 28 29  1  0  0  0
 23 18  1  0  0  0
  6  1  1  0  0  0
 15  7  1  0  0  0
 14 10  1  0  0  0
 16 17  1  0  0  0
M  END
> <minimizedAffinity>
-4.57083

> <CNNscore>
0.4166753292

> <CNNaffinity>
6.8927321434

> <CNN_VS>
2.8720314503

> <CNNaffinity_variance>
0.5779502988

$$$$
[H]Oc1c([H])c([H])c(C([H])([H])[C@@]([H])(C(=O)N([H])[C@]([H])(C(=O)N([H])[C@]([H])(C(=O)N([H])[C@]([H])(C(=O)N([H])[C@]([H])(C(=O)N([H])[H])C([H])([H])C([H])(C([H])([H])[H])C([H])([H])[H])C([H])([H])c2c([H])c([H])c([H])c([H])c2[H])C([H])([H])c2c([H])c([H])c([H])c([H])c2[H])C([H])([H])c2c([H])c([H])c([H])c([H])c2[H])N([H])[H])c([H])c1[H]


 63 66  0  0  0  0  0  0  0  0999 V2000
   12.0888   25.5055    0.0624 C   0  0  0  0  0  0  0  0  0  0  0  0
   10.1278   23.9718    0.5012 N   0  0  0  0  0  0  0  0  0  0  0  0
   10.9990   24.9347    0.9713 C   0  0  0  0  0  0  0  0  0  0  0  0
   10.9425   25.3748    2.1397 O   0  0  0  0  0  0  0  0  0  0  0  0
   10.2302   23.6918   -0.5194 H   0  0  0  0  0  0  0  0  0  0  0  0
    9.0498   23.2333    1.1578 C   0  0  0  0  0  0  0  0  0  0  0  0
    7.5891   21.5553   -0.0529 N   0  0  0  0  0  0  0  0  0  0  0  0
    8.7746   21.9962    0.5001 C   0  0  0  0  0  0  0  0  0  0  0  0
    9.7685   21.1576    0.4134 O   0  0  0  0  0  0  0  0  0  0  0  0
    6.6724   22.0355   -0.0849 H   0  0  0  0  0  0  0  0  0  0  0  0
    7.4861   20.1693   -0.7024 C   0  0  0  0  0  0  0  0  0  0  0  0
    8.0329   20.3506   -2.0340 C   0  0  0  0  0  0  0  0  0  0  0  0
    9.2465   20.8578   -2.4524 N   0  0  0  0  0  0  0  0  0  0  0  0
    7.2754   19.9772   -3.0582 O   0  0  0  0  0  0  0  0  0  0  0  0
    9.2803   21.8947   -2.7041 H   0  0  0  0  0  0  0  0  0  0  0  0
   10.1598   20.3548   -2.5589 H   0  0  0  0  0  0  0  0  0  0  0  0
    6.0768   19.8392   -0.5511 C   0  0  0  0  0  0  0  0  0  0  0  0
    5.7383   17.5442    0.6109 C   0  0  0  0  0  0  0  0  0  0  0  0
    5.4921   18.9823    0.4607 C   0  0  0  0  0  0  0  0  0  0  0  0
    5.8705   19.6142    1.8398 C   0  0  0  0  0  0  0  0  0  0  0  0
    7.8798   24.1172    1.4370 C   0  0  0  0  0  0  0  0  0  0  0  0
    7.6933   24.5564    2.8405 C   0  0  0  0  0  0  0  0  0  0  0  0
    7.7025   25.9216    3.1206 C   0  0  0  0  0  0  0  0  0  0  0  0
    7.4490   26.4505    4.3645 C   0  0  0  0  0  0  0  0  0  0  0  0
    7.1673   25.5462    5.3957 C   0  0  0  0  0  0  0  0  0  0  0  0
    7.1469   24.1927    5.1671 C   0  0  0  0  0  0  0  0  0  0  0  0
    7.4107   23.7003    3.8880 C   0  0  0  0  0  0  0  0  0  0  0  0
   13.2138   24.6069    0.0330 N   0  0  0  0  0  0  0  0  0  0  0  0
   14.5273   25.0144    0.4308 C   0  0  0  0  0  0  0  0  0  0  0  0
   14.6297   26.2100    0.8150 O   0  0  0  0  0  0  0  0  0  0  0  0
   13.0799   23.6368   -0.2812 H   0  0  0  0  0  0  0  0  0  0  0  0
   15.7175   24.1679    0.4128 C   0  0  0  0  0  0  0  0  0  0  0  0
   15.4043   22.8387   -0.1559 N   0  0  0  0  0  0  0  0  0  0  0  0
   15.4629   21.6785    0.6630 C   0  0  0  0  0  0  0  0  0  0  0  0
   15.7843   21.8709    1.9012 O   0  0  0  0  0  0  0  0  0  0  0  0
   15.1629   22.7621   -1.1433 H   0  0  0  0  0  0  0  0  0  0  0  0
   15.2087   20.3133    0.2620 C   0  0  0  0  0  0  0  0  0  0  0  0
   16.0523   19.4283    1.1165 N   0  0  0  0  0  0  0  0  0  0  0  0
   16.9885   19.8678    1.2743 H   0  0  0  0  0  0  0  0  0  0  0  0
   15.5095   19.3325    2.0085 H   0  0  0  0  0  0  0  0  0  0  0  0
   13.8343   19.7766    0.3548 C   0  0  0  0  0  0  0  0  0  0  0  0
   12.9928   20.1797    1.4694 C   0  0  0  0  0  0  0  0  0  0  0  0
   12.5801   19.2870    2.4290 C   0  0  0  0  0  0  0  0  0  0  0  0
   11.8037   19.6156    3.5296 C   0  0  0  0  0  0  0  0  0  0  0  0
   11.4096   20.9174    3.6895 C   0  0  0  0  0  0  0  0  0  0  0  0
   10.6381   21.2525    4.7852 O   0  0  0  0  0  0  0  0  0  0  0  0
   11.8148   21.8410    2.7299 C   0  0  0  0  0  0  0  0  0  0  0  0
   12.5816   21.5063    1.6478 C   0  0  0  0  0  0  0  0  0  0  0  0
    9.6256   21.2321    4.7883 H   0  0  0  0  0  0  0  0  0  0  0  0
   16.9456   24.7126   -0.2000 C   0  0  0  0  0  0  0  0  0  0  0  0
   16.8561   25.2740   -1.5414 C   0  0  0  0  0  0  0  0  0  0  0  0
   16.7084   24.4538   -2.6348 C   0  0  0  0  0  0  0  0  0  0  0  0
   16.6121   24.9475   -3.9314 C   0  0  0  0  0  0  0  0  0  0  0  0
   16.6651   26.2894   -4.1326 C   0  0  0  0  0  0  0  0  0  0  0  0
   16.8130   27.1472   -3.0500 C   0  0  0  0  0  0  0  0  0  0  0  0
   16.9095   26.6406   -1.7457 C   0  0  0  0  0  0  0  0  0  0  0  0
   11.4453   25.3729   -1.3188 C   0  0  0  0  0  0  0  0  0  0  0  0
   12.2732   25.6792   -2.4489 C   0  0  0  0  0  0  0  0  0  0  0  0
   13.1330   24.7694   -3.0030 C   0  0  0  0  0  0  0  0  0  0  0  0
   13.9399   25.0459   -4.0779 C   0  0  0  0  0  0  0  0  0  0  0  0
   13.9023   26.3170   -4.6599 C   0  0  0  0  0  0  0  0  0  0  0  0
   13.0554   27.2381   -4.1277 C   0  0  0  0  0  0  0  0  0  0  0  0
   12.2414   26.9355   -3.0311 C   0  0  0  0  0  0  0  0  0  0  0  0
 18 19  1  0  0  0
 19 20  1  0  0  0
 19 17  1  0  0  0
 17 11  1  0  0  0
 11  7  1  0  0  0
  7  8  1  0  0  0
  8  9  2  0  0  0
  8  6  1  0  0  0
  6 21  1  0  0  0
 21 22  1  0  0  0
 22 23  2  0  0  0
 23 24  1  0  0  0
 24 25  2  0  0  0
 25 26  1  0  0  0
 26 27  2  0  0  0
  6  2  1  0  0  0
  2  3  1  0  0  0
  3  4  2  0  0  0
  3  1  1  0  0  0
  1 57  1  0  0  0
 57 58  1  0  0  0
 58 59  2  0  0  0
 59 60  1  0  0  0
 60 61  2  0  0  0
 61 62  1  0  0  0
 62 63  2  0  0  0
  1 28  1  0  0  0
 28 29  1  0  0  0
 29 30  2  0  0  0
 29 32  1  0  0  0
 32 50  1  0  0  0
 50 51  1  0  0  0
 51 52  2  0  0  0
 52 53  1  0  0  0
 53 54  2  0  0  0
 54 55  1  0  0  0
 55 56  2  0  0  0
 32 33  1  0  0  0
 33 34  1  0  0  0
 34 35  2  0  0  0
 34 37  1  0  0  0
 37 38  1  0  0  0
 37 41  1  0  0  0
 41 42  1  0  0  0
 42 43  2  0  0  0
 43 44  1  0  0  0
 44 45  2  0  0  0
 45 46  1  0  0  0
 45 47  1  0  0  0
 47 48  2  0  0  0
 11 12  1  0  0  0
 12 13  1  0  0  0
 12 14  2  0  0  0
 27 22  1  0  0  0
 63 58  1  0  0  0
 56 51  1  0  0  0
 48 42  1  0  0  0
  7 10  1  0  0  0
  2  5  1  0  0  0
 28 31  1  0  0  0
 33 36  1  0  0  0
 38 39  1  0  0  0
 38 40  1  0  0  0
 46 49  1  0  0  0
 13 15  1  0  0  0
 13 16  1  0  0  0
M  END
> <minimizedAffinity>
-1.52257

> <CNNscore>
0.4998638034

> <CNNaffinity>
8.3412456512

> <CNN_VS>
4.1694869995

> <CNNaffinity_variance>
0.2305572778

$$$$
[H]Oc1c([H])c([H])c(C([H])([H])[C@@]([H])(C(=O)N([H])[C@]([H])(C(=O)N([H])[C@]([H])(C(=O)N([H])[C@]([H])(C(=O)N([H])[C@]([H])(C(=O)N([H])[H])C([H])([H])C([H])(C([H])([H])[H])C([H])([H])[H])C([H])([H])c2c([H])c([H])c([H])c([H])c2[H])C([H])([H])c2c([H])c([H])c([H])c([H])c2[H])C([H])([H])c2c([H])c([H])c([H])c([H])c2[H])N([H])[H])c([H])c1[H]


 63 66  0  0  0  0  0  0  0  0999 V2000
   11.9368   25.3350    0.3246 C   0  0  0  0  0  0  0  0  0  0  0  0
   10.0290   23.7629    0.8530 N   0  0  0  0  0  0  0  0  0  0  0  0
   10.8226   24.8247    1.2400 C   0  0  0  0  0  0  0  0  0  0  0  0
   10.6744   25.4059    2.3365 O   0  0  0  0  0  0  0  0  0  0  0  0
   10.2063   23.3616   -0.1155 H   0  0  0  0  0  0  0  0  0  0  0  0
    8.9500   23.0551    1.5411 C   0  0  0  0  0  0  0  0  0  0  0  0
    7.7676   21.2224    0.2533 N   0  0  0  0  0  0  0  0  0  0  0  0
    8.7813   21.7279    1.0424 C   0  0  0  0  0  0  0  0  0  0  0  0
    9.6982   20.8657    1.3806 O   0  0  0  0  0  0  0  0  0  0  0  0
    6.9322   21.7094   -0.1168 H   0  0  0  0  0  0  0  0  0  0  0  0
    7.7510   19.7464   -0.1643 C   0  0  0  0  0  0  0  0  0  0  0  0
    7.7736   19.7788   -1.6146 C   0  0  0  0  0  0  0  0  0  0  0  0
    7.3853   18.8379   -2.5468 N   0  0  0  0  0  0  0  0  0  0  0  0
    8.2355   20.8819   -2.1909 O   0  0  0  0  0  0  0  0  0  0  0  0
    8.1410   18.1844   -2.9231 H   0  0  0  0  0  0  0  0  0  0  0  0
    6.4299   18.6720   -2.9447 H   0  0  0  0  0  0  0  0  0  0  0  0
    6.5755   19.2251    0.5172 C   0  0  0  0  0  0  0  0  0  0  0  0
    6.2627   20.5030    2.7536 C   0  0  0  0  0  0  0  0  0  0  0  0
    5.7691   19.9158    1.5034 C   0  0  0  0  0  0  0  0  0  0  0  0
    5.0615   21.0865    0.7462 C   0  0  0  0  0  0  0  0  0  0  0  0
    7.7208   23.8973    1.6308 C   0  0  0  0  0  0  0  0  0  0  0  0
    7.4516   24.5506    2.9339 C   0  0  0  0  0  0  0  0  0  0  0  0
    7.5295   25.9398    3.0140 C   0  0  0  0  0  0  0  0  0  0  0  0
    7.2124   26.6616    4.1409 C   0  0  0  0  0  0  0  0  0  0  0  0
    6.7886   25.9381    5.2623 C   0  0  0  0  0  0  0  0  0  0  0  0
    6.6961   24.5687    5.2302 C   0  0  0  0  0  0  0  0  0  0  0  0
    7.0288   23.8773    4.0644 C   0  0  0  0  0  0  0  0  0  0  0  0
   13.0827   24.4690    0.4283 N   0  0  0  0  0  0  0  0  0  0  0  0
   14.3977   24.9705    0.6905 C   0  0  0  0  0  0  0  0  0  0  0  0
   14.4821   26.2197    0.8317 O   0  0  0  0  0  0  0  0  0  0  0  0
   12.9633   23.4539    0.3133 H   0  0  0  0  0  0  0  0  0  0  0  0
   15.6078   24.1590    0.7929 C   0  0  0  0  0  0  0  0  0  0  0  0
   15.3372   22.7638    0.3823 N   0  0  0  0  0  0  0  0  0  0  0  0
   15.9561   21.6836    1.0681 C   0  0  0  0  0  0  0  0  0  0  0  0
   16.7330   22.0037    2.0518 O   0  0  0  0  0  0  0  0  0  0  0  0
   14.7165   22.5867   -0.4066 H   0  0  0  0  0  0  0  0  0  0  0  0
   15.8159   20.2736    0.7827 C   0  0  0  0  0  0  0  0  0  0  0  0
   14.9518   19.6826    1.8453 N   0  0  0  0  0  0  0  0  0  0  0  0
   15.1782   20.1117    2.7722 H   0  0  0  0  0  0  0  0  0  0  0  0
   13.9736   19.9048    1.5397 H   0  0  0  0  0  0  0  0  0  0  0  0
   15.2224   19.8521   -0.5040 C   0  0  0  0  0  0  0  0  0  0  0  0
   13.9651   20.4447   -0.9293 C   0  0  0  0  0  0  0  0  0  0  0  0
   12.7667   20.0996   -0.3525 C   0  0  0  0  0  0  0  0  0  0  0  0
   11.5405   20.6500   -0.6927 C   0  0  0  0  0  0  0  0  0  0  0  0
   11.4999   21.6071   -1.6714 C   0  0  0  0  0  0  0  0  0  0  0  0
   10.2819   22.1618   -2.0138 O   0  0  0  0  0  0  0  0  0  0  0  0
   12.7014   21.9736   -2.2716 C   0  0  0  0  0  0  0  0  0  0  0  0
   13.9061   21.4246   -1.9278 C   0  0  0  0  0  0  0  0  0  0  0  0
    9.6761   21.7888   -2.7345 H   0  0  0  0  0  0  0  0  0  0  0  0
   16.8340   24.6584    0.1389 C   0  0  0  0  0  0  0  0  0  0  0  0
   16.7515   25.0735   -1.2552 C   0  0  0  0  0  0  0  0  0  0  0  0
   16.8635   26.4002   -1.5980 C   0  0  0  0  0  0  0  0  0  0  0  0
   16.7975   26.8394   -2.9159 C   0  0  0  0  0  0  0  0  0  0  0  0
   16.6158   25.9289   -3.9070 C   0  0  0  0  0  0  0  0  0  0  0  0
   16.4994   24.5800   -3.5961 C   0  0  0  0  0  0  0  0  0  0  0  0
   16.5670   24.1459   -2.2640 C   0  0  0  0  0  0  0  0  0  0  0  0
   11.3563   25.0525   -1.0619 C   0  0  0  0  0  0  0  0  0  0  0  0
   12.1318   25.4866   -2.1873 C   0  0  0  0  0  0  0  0  0  0  0  0
   13.0794   24.6964   -2.7804 C   0  0  0  0  0  0  0  0  0  0  0  0
   13.8380   25.0967   -3.8515 C   0  0  0  0  0  0  0  0  0  0  0  0
   13.6542   26.3752   -4.3878 C   0  0  0  0  0  0  0  0  0  0  0  0
   12.7179   27.1787   -3.8163 C   0  0  0  0  0  0  0  0  0  0  0  0
   11.9553   26.7510   -2.7243 C   0  0  0  0  0  0  0  0  0  0  0  0
 18 19  1  0  0  0
 19 20  1  0  0  0
 19 17  1  0  0  0
 17 11  1  0  0  0
 11  7  1  0  0  0
  7  8  1  0  0  0
  8  9  2  0  0  0
  8  6  1  0  0  0
  6 21  1  0  0  0
 21 22  1  0  0  0
 22 23  2  0  0  0
 23 24  1  0  0  0
 24 25  2  0  0  0
 25 26  1  0  0  0
 26 27  2  0  0  0
  6  2  1  0  0  0
  2  3  1  0  0  0
  3  4  2  0  0  0
  3  1  1  0  0  0
  1 57  1  0  0  0
 57 58  1  0  0  0
 58 59  2  0  0  0
 59 60  1  0  0  0
 60 61  2  0  0  0
 61 62  1  0  0  0
 62 63  2  0  0  0
  1 28  1  0  0  0
 28 29  1  0  0  0
 29 30  2  0  0  0
 29 32  1  0  0  0
 32 50  1  0  0  0
 50 51  1  0  0  0
 51 52  2  0  0  0
 52 53  1  0  0  0
 53 54  2  0  0  0
 54 55  1  0  0  0
 55 56  2  0  0  0
 32 33  1  0  0  0
 33 34  1  0  0  0
 34 35  2  0  0  0
 34 37  1  0  0  0
 37 38  1  0  0  0
 37 41  1  0  0  0
 41 42  1  0  0  0
 42 43  2  0  0  0
 43 44  1  0  0  0
 44 45  2  0  0  0
 45 46  1  0  0  0
 45 47  1  0  0  0
 47 48  2  0  0  0
 11 12  1  0  0  0
 12 13  1  0  0  0
 12 14  2  0  0  0
 27 22  1  0  0  0
 63 58  1  0  0  0
 56 51  1  0  0  0
 48 42  1  0  0  0
  7 10  1  0  0  0
  2  5  1  0  0  0
 28 31  1  0  0  0
 33 36  1  0  0  0
 38 39  1  0  0  0
 38 40  1  0  0  0
 46 49  1  0  0  0
 13 15  1  0  0  0
 13 16  1  0  0  0
M  END
> <minimizedAffinity>
-0.80321

> <CNNscore>
0.4663871527

> <CNNaffinity>
8.2726078033

> <CNN_VS>
3.8582379818

> <CNNaffinity_variance>
0.3262801766

$$$$
[H]Oc1c([H])c([H])c(C([H])([H])[C@@]([H])(C(=O)N([H])[C@]([H])(C(=O)N([H])[C@]([H])(C(=O)N([H])[C@]([H])(C(=O)N([H])[C@]([H])(C(=O)N([H])[H])C([H])([H])C([H])(C([H])([H])[H])C([H])([H])[H])C([H])([H])c2c([H])c([H])c([H])c([H])c2[H])C([H])([H])c2c([H])c([H])c([H])c([H])c2[H])C([H])([H])c2c([H])c([H])c([H])c([H])c2[H])N([H])[H])c([H])c1[H]


 63 66  0  0  0  0  0  0  0  0999 V2000
   11.3522   24.9203    0.5122 C   0  0  0  0  0  0  0  0  0  0  0  0
   10.5437   23.5665    2.4880 N   0  0  0  0  0  0  0  0  0  0  0  0
   10.2722   24.1364    1.2597 C   0  0  0  0  0  0  0  0  0  0  0  0
    9.1525   24.0443    0.7123 O   0  0  0  0  0  0  0  0  0  0  0  0
   11.5379   23.6653    2.8516 H   0  0  0  0  0  0  0  0  0  0  0  0
    9.6985   22.8245    3.4227 C   0  0  0  0  0  0  0  0  0  0  0  0
    7.3934   22.5807    2.4018 N   0  0  0  0  0  0  0  0  0  0  0  0
    8.6489   22.1263    2.7521 C   0  0  0  0  0  0  0  0  0  0  0  0
    8.8958   20.8874    2.4315 O   0  0  0  0  0  0  0  0  0  0  0  0
    6.9726   23.5117    2.5694 H   0  0  0  0  0  0  0  0  0  0  0  0
    6.3869   21.6613    1.6982 C   0  0  0  0  0  0  0  0  0  0  0  0
    5.9530   20.7396    2.7312 C   0  0  0  0  0  0  0  0  0  0  0  0
    5.9730   19.3603    2.7795 N   0  0  0  0  0  0  0  0  0  0  0  0
    5.4453   21.2642    3.8399 O   0  0  0  0  0  0  0  0  0  0  0  0
    5.0863   18.8494    2.4755 H   0  0  0  0  0  0  0  0  0  0  0  0
    6.7558   18.7311    3.0794 H   0  0  0  0  0  0  0  0  0  0  0  0
    7.1432   21.1531    0.5635 C   0  0  0  0  0  0  0  0  0  0  0  0
    6.3358   19.1738   -0.9070 C   0  0  0  0  0  0  0  0  0  0  0  0
    6.6004   20.5949   -0.6587 C   0  0  0  0  0  0  0  0  0  0  0  0
    5.2363   21.3195   -0.9013 C   0  0  0  0  0  0  0  0  0  0  0  0
    9.3015   23.6733    4.5846 C   0  0  0  0  0  0  0  0  0  0  0  0
    8.4958   24.8813    4.2859 C   0  0  0  0  0  0  0  0  0  0  0  0
    7.1290   24.8571    4.5570 C   0  0  0  0  0  0  0  0  0  0  0  0
    6.2989   25.9435    4.4088 C   0  0  0  0  0  0  0  0  0  0  0  0
    6.8821   27.1339    3.9578 C   0  0  0  0  0  0  0  0  0  0  0  0
    8.2243   27.2053    3.6783 C   0  0  0  0  0  0  0  0  0  0  0  0
    9.0291   26.0769    3.8430 C   0  0  0  0  0  0  0  0  0  0  0  0
   12.6147   24.2375    0.6303 N   0  0  0  0  0  0  0  0  0  0  0  0
   13.8624   24.9389    0.6597 C   0  0  0  0  0  0  0  0  0  0  0  0
   13.7796   26.1938    0.5825 O   0  0  0  0  0  0  0  0  0  0  0  0
   12.6319   23.2114    0.6983 H   0  0  0  0  0  0  0  0  0  0  0  0
   15.1802   24.3172    0.7605 C   0  0  0  0  0  0  0  0  0  0  0  0
   15.1688   22.9678    0.1543 N   0  0  0  0  0  0  0  0  0  0  0  0
   15.7906   21.8783    0.8224 C   0  0  0  0  0  0  0  0  0  0  0  0
   16.3333   22.1461    1.9658 O   0  0  0  0  0  0  0  0  0  0  0  0
   14.7256   22.8318   -0.7535 H   0  0  0  0  0  0  0  0  0  0  0  0
   15.8863   20.5117    0.3615 C   0  0  0  0  0  0  0  0  0  0  0  0
   15.6500   19.6227    1.5358 N   0  0  0  0  0  0  0  0  0  0  0  0
   16.1023   20.0264    2.3885 H   0  0  0  0  0  0  0  0  0  0  0  0
   14.6062   19.5837    1.6278 H   0  0  0  0  0  0  0  0  0  0  0  0
   14.9675   20.0395   -0.6961 C   0  0  0  0  0  0  0  0  0  0  0  0
   13.5714   20.4416   -0.6497 C   0  0  0  0  0  0  0  0  0  0  0  0
   12.8990   20.8652   -1.7705 C   0  0  0  0  0  0  0  0  0  0  0  0
   11.5623   21.2322   -1.7963 C   0  0  0  0  0  0  0  0  0  0  0  0
   10.8438   21.1757   -0.6318 C   0  0  0  0  0  0  0  0  0  0  0  0
    9.5107   21.5374   -0.6506 O   0  0  0  0  0  0  0  0  0  0  0  0
   11.5031   20.7499    0.5180 C   0  0  0  0  0  0  0  0  0  0  0  0
   12.8225   20.3892    0.5323 C   0  0  0  0  0  0  0  0  0  0  0  0
    9.1810   22.4810   -0.4879 H   0  0  0  0  0  0  0  0  0  0  0  0
   16.3469   25.0855    0.2820 C   0  0  0  0  0  0  0  0  0  0  0  0
   16.4714   25.3304   -1.1488 C   0  0  0  0  0  0  0  0  0  0  0  0
   16.6234   26.6095   -1.6291 C   0  0  0  0  0  0  0  0  0  0  0  0
   16.7525   26.8877   -2.9856 C   0  0  0  0  0  0  0  0  0  0  0  0
   16.7285   25.8619   -3.8752 C   0  0  0  0  0  0  0  0  0  0  0  0
   16.5771   24.5568   -3.4241 C   0  0  0  0  0  0  0  0  0  0  0  0
   16.4474   24.2854   -2.0541 C   0  0  0  0  0  0  0  0  0  0  0  0
   10.9328   24.7189   -0.9449 C   0  0  0  0  0  0  0  0  0  0  0  0
   11.8743   25.1206   -1.9492 C   0  0  0  0  0  0  0  0  0  0  0  0
   11.8998   26.3845   -2.4745 C   0  0  0  0  0  0  0  0  0  0  0  0
   12.7860   26.7854   -3.4424 C   0  0  0  0  0  0  0  0  0  0  0  0
   13.7259   25.8755   -3.9369 C   0  0  0  0  0  0  0  0  0  0  0  0
   13.7210   24.6137   -3.4301 C   0  0  0  0  0  0  0  0  0  0  0  0
   12.8083   24.2254   -2.4437 C   0  0  0  0  0  0  0  0  0  0  0  0
 18 19  1  0  0  0
 19 20  1  0  0  0
 19 17  1  0  0  0
 17 11  1  0  0  0
 11  7  1  0  0  0
  7  8  1  0  0  0
  8  9  2  0  0  0
  8  6  1  0  0  0
  6 21  1  0  0  0
 21 22  1  0  0  0
 22 23  2  0  0  0
 23 24  1  0  0  0
 24 25  2  0  0  0
 25 26  1  0  0  0
 26 27  2  0  0  0
  6  2  1  0  0  0
  2  3  1  0  0  0
  3  4  2  0  0  0
  3  1  1  0  0  0
  1 57  1  0  0  0
 57 58  1  0  0  0
 58 59  2  0  0  0
 59 60  1  0  0  0
 60 61  2  0  0  0
 61 62  1  0  0  0
 62 63  2  0  0  0
  1 28  1  0  0  0
 28 29  1  0  0  0
 29 30  2  0  0  0
 29 32  1  0  0  0
 32 50  1  0  0  0
 50 51  1  0  0  0
 51 52  2  0  0  0
 52 53  1  0  0  0
 53 54  2  0  0  0
 54 55  1  0  0  0
 55 56  2  0  0  0
 32 33  1  0  0  0
 33 34  1  0  0  0
 34 35  2  0  0  0
 34 37  1  0  0  0
 37 38  1  0  0  0
 37 41  1  0  0  0
 41 42  1  0  0  0
 42 43  2  0  0  0
 43 44  1  0  0  0
 44 45  2  0  0  0
 45 46  1  0  0  0
 45 47  1  0  0  0
 47 48  2  0  0  0
 11 12  1  0  0  0
 12 13  1  0  0  0
 12 14  2  0  0  0
 27 22  1  0  0  0
 63 58  1  0  0  0
 56 51  1  0  0  0
 48 42  1  0  0  0
  7 10  1  0  0  0
  2  5  1  0  0  0
 28 31  1  0  0  0
 33 36  1  0  0  0
 38 39  1  0  0  0
 38 40  1  0  0  0
 46 49  1  0  0  0
 13 15  1  0  0  0
 13 16  1  0  0  0
M  END
> <minimizedAffinity>
-3.05365

> <CNNscore>
0.4264360368

> <CNNaffinity>
7.9687857628

> <CNN_VS>
3.3981773853

> <CNNaffinity_variance>
0.4744116366

$$$$
[H]Oc1c([H])c([H])c(C([H])([H])[C@@]([H])(C(=O)N([H])[C@]([H])(C(=O)N([H])[C@]([H])(C(=O)N([H])[C@]([H])(C(=O)N([H])[C@]([H])(C(=O)N([H])[H])C([H])([H])C([H])(C([H])([H])[H])C([H])([H])[H])C([H])([H])c2c([H])c([H])c([H])c([H])c2[H])C([H])([H])c2c([H])c([H])c([H])c([H])c2[H])C([H])([H])c2c([H])c([H])c([H])c([H])c2[H])N([H])[H])c([H])c1[H]


 63 66  0  0  0  0  0  0  0  0999 V2000
   10.0531   24.5348    1.2624 C   0  0  0  0  0  0  0  0  0  0  0  0
   11.2275   24.3787   -0.9707 N   0  0  0  0  0  0  0  0  0  0  0  0
   11.2393   24.8169    0.3389 C   0  0  0  0  0  0  0  0  0  0  0  0
   12.1988   25.4555    0.8220 O   0  0  0  0  0  0  0  0  0  0  0  0
   10.3839   23.8083   -1.2763 H   0  0  0  0  0  0  0  0  0  0  0  0
   12.1856   24.5521   -2.0618 C   0  0  0  0  0  0  0  0  0  0  0  0
   14.3847   24.5132   -0.8056 N   0  0  0  0  0  0  0  0  0  0  0  0
   13.4736   24.0353   -1.7262 C   0  0  0  0  0  0  0  0  0  0  0  0
   13.8552   22.9739   -2.3791 O   0  0  0  0  0  0  0  0  0  0  0  0
   14.3091   25.3438   -0.1923 H   0  0  0  0  0  0  0  0  0  0  0  0
   15.7404   23.8245   -0.6033 C   0  0  0  0  0  0  0  0  0  0  0  0
   15.7354   23.4139    0.7883 C   0  0  0  0  0  0  0  0  0  0  0  0
   16.5601   22.5497    1.4797 N   0  0  0  0  0  0  0  0  0  0  0  0
   14.7979   23.9331    1.5718 O   0  0  0  0  0  0  0  0  0  0  0  0
   16.2382   21.5357    1.5686 H   0  0  0  0  0  0  0  0  0  0  0  0
   17.4794   22.7556    1.9390 H   0  0  0  0  0  0  0  0  0  0  0  0
   16.6912   24.8346   -1.0433 C   0  0  0  0  0  0  0  0  0  0  0  0
   17.4235   26.8260   -2.5366 C   0  0  0  0  0  0  0  0  0  0  0  0
   16.5937   25.6552   -2.2338 C   0  0  0  0  0  0  0  0  0  0  0  0
   16.7824   24.6877   -3.4474 C   0  0  0  0  0  0  0  0  0  0  0  0
   12.1431   25.9423   -2.6038 C   0  0  0  0  0  0  0  0  0  0  0  0
   13.1543   26.2911   -3.6302 C   0  0  0  0  0  0  0  0  0  0  0  0
   13.6161   27.6044   -3.6944 C   0  0  0  0  0  0  0  0  0  0  0  0
   14.6162   28.0248   -4.5396 C   0  0  0  0  0  0  0  0  0  0  0  0
   15.1903   27.0600   -5.3763 C   0  0  0  0  0  0  0  0  0  0  0  0
   14.7681   25.7539   -5.3480 C   0  0  0  0  0  0  0  0  0  0  0  0
   13.7492   25.3722   -4.4738 C   0  0  0  0  0  0  0  0  0  0  0  0
   10.3355   23.3786    2.0732 N   0  0  0  0  0  0  0  0  0  0  0  0
    9.3189   22.4442    2.4512 C   0  0  0  0  0  0  0  0  0  0  0  0
    8.1627   22.6987    2.0201 O   0  0  0  0  0  0  0  0  0  0  0  0
   11.2971   23.2079    2.3956 H   0  0  0  0  0  0  0  0  0  0  0  0
    9.5243   21.2609    3.2825 C   0  0  0  0  0  0  0  0  0  0  0  0
    8.3816   20.3298    3.1568 N   0  0  0  0  0  0  0  0  0  0  0  0
    7.2968   20.4012    4.0723 C   0  0  0  0  0  0  0  0  0  0  0  0
    7.3769   21.3194    4.9800 O   0  0  0  0  0  0  0  0  0  0  0  0
    8.3888   19.6272    2.4184 H   0  0  0  0  0  0  0  0  0  0  0  0
    6.1224   19.5589    4.1014 C   0  0  0  0  0  0  0  0  0  0  0  0
    5.4551   19.7620    5.4200 N   0  0  0  0  0  0  0  0  0  0  0  0
    6.1732   19.8571    6.1750 H   0  0  0  0  0  0  0  0  0  0  0  0
    4.8972   20.6413    5.2974 H   0  0  0  0  0  0  0  0  0  0  0  0
    5.0704   19.7500    3.0806 C   0  0  0  0  0  0  0  0  0  0  0  0
    5.4362   19.7129    1.6743 C   0  0  0  0  0  0  0  0  0  0  0  0
    5.7255   18.5348    1.0290 C   0  0  0  0  0  0  0  0  0  0  0  0
    6.0509   18.4311   -0.3147 C   0  0  0  0  0  0  0  0  0  0  0  0
    6.0925   19.5730   -1.0697 C   0  0  0  0  0  0  0  0  0  0  0  0
    6.4134   19.4770   -2.4099 O   0  0  0  0  0  0  0  0  0  0  0  0
    5.8036   20.7797   -0.4384 C   0  0  0  0  0  0  0  0  0  0  0  0
    5.4829   20.8708    0.8882 C   0  0  0  0  0  0  0  0  0  0  0  0
    7.3591   19.5325   -2.7677 H   0  0  0  0  0  0  0  0  0  0  0  0
   10.8001   20.5303    3.1444 C   0  0  0  0  0  0  0  0  0  0  0  0
   11.4618   20.5380    1.8464 C   0  0  0  0  0  0  0  0  0  0  0  0
   10.7587   20.2495    0.7009 C   0  0  0  0  0  0  0  0  0  0  0  0
   11.3488   20.2522   -0.5585 C   0  0  0  0  0  0  0  0  0  0  0  0
   12.6691   20.5503   -0.6684 C   0  0  0  0  0  0  0  0  0  0  0  0
   13.4095   20.8473    0.4689 C   0  0  0  0  0  0  0  0  0  0  0  0
   12.8062   20.8421    1.7351 C   0  0  0  0  0  0  0  0  0  0  0  0
   10.1214   25.7177    2.2296 C   0  0  0  0  0  0  0  0  0  0  0  0
    9.0265   25.8689    3.1432 C   0  0  0  0  0  0  0  0  0  0  0  0
    9.1033   25.4919    4.4570 C   0  0  0  0  0  0  0  0  0  0  0  0
    8.0642   25.6196    5.3442 C   0  0  0  0  0  0  0  0  0  0  0  0
    6.8499   26.1616    4.9113 C   0  0  0  0  0  0  0  0  0  0  0  0
    6.7493   26.5444    3.6104 C   0  0  0  0  0  0  0  0  0  0  0  0
    7.8210   26.4052    2.7222 C   0  0  0  0  0  0  0  0  0  0  0  0
 18 19  1  0  0  0
 19 20  1  0  0  0
 19 17  1  0  0  0
 17 11  1  0  0  0
 11  7  1  0  0  0
  7  8  1  0  0  0
  8  9  2  0  0  0
  8  6  1  0  0  0
  6 21  1  0  0  0
 21 22  1  0  0  0
 22 23  2  0  0  0
 23 24  1  0  0  0
 24 25  2  0  0  0
 25 26  1  0  0  0
 26 27  2  0  0  0
  6  2  1  0  0  0
  2  3  1  0  0  0
  3  4  2  0  0  0
  3  1  1  0  0  0
  1 57  1  0  0  0
 57 58  1  0  0  0
 58 59  2  0  0  0
 59 60  1  0  0  0
 60 61  2  0  0  0
 61 62  1  0  0  0
 62 63  2  0  0  0
  1 28  1  0  0  0
 28 29  1  0  0  0
 29 30  2  0  0  0
 29 32  1  0  0  0
 32 50  1  0  0  0
 50 51  1  0  0  0
 51 52  2  0  0  0
 52 53  1  0  0  0
 53 54  2  0  0  0
 54 55  1  0  0  0
 55 56  2  0  0  0
 32 33  1  0  0  0
 33 34  1  0  0  0
 34 35  2  0  0  0
 34 37  1  0  0  0
 37 38  1  0  0  0
 37 41  1  0  0  0
 41 42  1  0  0  0
 42 43  2  0  0  0
 43 44  1  0  0  0
 44 45  2  0  0  0
 45 46  1  0  0  0
 45 47  1  0  0  0
 47 48  2  0  0  0
 11 12  1  0  0  0
 12 13  1  0  0  0
 12 14  2  0  0  0
 27 22  1  0  0  0
 63 58  1  0  0  0
 56 51  1  0  0  0
 48 42  1  0  0  0
  7 10  1  0  0  0
  2  5  1  0  0  0
 28 31  1  0  0  0
 33 36  1  0  0  0
 38 39  1  0  0  0
 38 40  1  0  0  0
 46 49  1  0  0  0
 13 15  1  0  0  0
 13 16  1  0  0  0
M  END
> <minimizedAffinity>
-4.02201

> <CNNscore>
0.4224624038

> <CNNaffinity>
7.8877077103

> <CNN_VS>
3.3322598934

> <CNNaffinity_variance>
0.3692022562

$$$$
[H]Oc1c([H])c([H])c(C([H])([H])[C@@]([H])(C(=O)N([H])[C@]([H])(C(=O)N([H])[C@]([H])(C(=O)N([H])[C@]([H])(C(=O)N([H])[C@]([H])(C(=O)N([H])[H])C([H])([H])C([H])(C([H])([H])[H])C([H])([H])[H])C([H])([H])c2c([H])c([H])c([H])c([H])c2[H])C([H])([H])c2c([H])c([H])c([H])c([H])c2[H])C([H])([H])c2c([H])c([H])c([H])c([H])c2[H])N([H])[H])c([H])c1[H]


 63 66  0  0  0  0  0  0  0  0999 V2000
   12.3209   24.6524   -0.6069 C   0  0  0  0  0  0  0  0  0  0  0  0
   11.1059   24.4328    1.5990 N   0  0  0  0  0  0  0  0  0  0  0  0
   11.0893   24.8419    0.2801 C   0  0  0  0  0  0  0  0  0  0  0  0
   10.0885   25.3792   -0.2411 O   0  0  0  0  0  0  0  0  0  0  0  0
   11.9899   23.9491    1.9384 H   0  0  0  0  0  0  0  0  0  0  0  0
   10.1067   24.5385    2.6616 C   0  0  0  0  0  0  0  0  0  0  0  0
    9.5249   22.9132    4.5150 N   0  0  0  0  0  0  0  0  0  0  0  0
    9.7664   23.2611    3.2011 C   0  0  0  0  0  0  0  0  0  0  0  0
    9.6791   22.2808    2.3466 O   0  0  0  0  0  0  0  0  0  0  0  0
    9.5558   23.5125    5.3587 H   0  0  0  0  0  0  0  0  0  0  0  0
    9.1925   21.4666    4.9023 C   0  0  0  0  0  0  0  0  0  0  0  0
   10.3965   20.7205    4.5879 C   0  0  0  0  0  0  0  0  0  0  0  0
   11.7097   21.1294    4.4710 N   0  0  0  0  0  0  0  0  0  0  0  0
   10.2648   19.4177    4.3698 O   0  0  0  0  0  0  0  0  0  0  0  0
   12.0574   21.3770    3.4925 H   0  0  0  0  0  0  0  0  0  0  0  0
   12.4283   21.2334    5.2268 H   0  0  0  0  0  0  0  0  0  0  0  0
    7.9736   21.1977    4.1542 C   0  0  0  0  0  0  0  0  0  0  0  0
    5.8041   21.8385    5.4250 C   0  0  0  0  0  0  0  0  0  0  0  0
    6.6679   20.8961    4.7059 C   0  0  0  0  0  0  0  0  0  0  0  0
    5.8032   20.3658    3.5160 C   0  0  0  0  0  0  0  0  0  0  0  0
    8.9707   25.4155    2.2512 C   0  0  0  0  0  0  0  0  0  0  0  0
    8.1158   25.9539    3.3360 C   0  0  0  0  0  0  0  0  0  0  0  0
    6.7855   25.5441    3.4045 C   0  0  0  0  0  0  0  0  0  0  0  0
    5.9243   25.9022    4.4151 C   0  0  0  0  0  0  0  0  0  0  0  0
    6.4348   26.7276    5.4244 C   0  0  0  0  0  0  0  0  0  0  0  0
    7.7389   27.1561    5.3991 C   0  0  0  0  0  0  0  0  0  0  0  0
    8.5774   26.7678    4.3531 C   0  0  0  0  0  0  0  0  0  0  0  0
   12.5581   23.2468   -0.8117 N   0  0  0  0  0  0  0  0  0  0  0  0
   11.4973   22.2855   -0.8121 C   0  0  0  0  0  0  0  0  0  0  0  0
   10.3422   22.7543   -0.6286 O   0  0  0  0  0  0  0  0  0  0  0  0
   13.5182   22.9116   -0.9654 H   0  0  0  0  0  0  0  0  0  0  0  0
   11.6604   20.8457   -0.9958 C   0  0  0  0  0  0  0  0  0  0  0  0
   13.0254   20.4219   -0.6143 N   0  0  0  0  0  0  0  0  0  0  0  0
   13.5813   20.8337    0.6272 C   0  0  0  0  0  0  0  0  0  0  0  0
   12.8230   21.5676    1.3755 O   0  0  0  0  0  0  0  0  0  0  0  0
   13.5678   19.8465   -1.2575 H   0  0  0  0  0  0  0  0  0  0  0  0
   14.8981   20.5271    1.1385 C   0  0  0  0  0  0  0  0  0  0  0  0
   15.0922   19.0523    1.0275 N   0  0  0  0  0  0  0  0  0  0  0  0
   14.2017   18.5544    1.2594 H   0  0  0  0  0  0  0  0  0  0  0  0
   15.3768   18.9009    0.0297 H   0  0  0  0  0  0  0  0  0  0  0  0
   16.0821   21.1413    0.5010 C   0  0  0  0  0  0  0  0  0  0  0  0
   15.9955   22.5113    0.0230 C   0  0  0  0  0  0  0  0  0  0  0  0
   15.9521   23.5808    0.8845 C   0  0  0  0  0  0  0  0  0  0  0  0
   15.8997   24.9089    0.4905 C   0  0  0  0  0  0  0  0  0  0  0  0
   15.8894   25.1962   -0.8486 C   0  0  0  0  0  0  0  0  0  0  0  0
   15.8401   26.5175   -1.2485 O   0  0  0  0  0  0  0  0  0  0  0  0
   15.9323   24.1292   -1.7418 C   0  0  0  0  0  0  0  0  0  0  0  0
   15.9846   22.8221   -1.3424 C   0  0  0  0  0  0  0  0  0  0  0  0
   14.9787   27.0245   -1.4117 H   0  0  0  0  0  0  0  0  0  0  0  0
   10.6556   19.9515   -0.3864 C   0  0  0  0  0  0  0  0  0  0  0  0
    9.2592   20.1249   -0.7640 C   0  0  0  0  0  0  0  0  0  0  0  0
    8.8654   19.9816   -2.0734 C   0  0  0  0  0  0  0  0  0  0  0  0
    7.5428   20.1315   -2.4764 C   0  0  0  0  0  0  0  0  0  0  0  0
    6.5992   20.4307   -1.5468 C   0  0  0  0  0  0  0  0  0  0  0  0
    6.9622   20.5819   -0.2145 C   0  0  0  0  0  0  0  0  0  0  0  0
    8.2986   20.4291    0.1831 C   0  0  0  0  0  0  0  0  0  0  0  0
   11.8163   25.1654   -1.9565 C   0  0  0  0  0  0  0  0  0  0  0  0
   12.8118   25.5523   -2.9134 C   0  0  0  0  0  0  0  0  0  0  0  0
   13.7657   24.6872   -3.3779 C   0  0  0  0  0  0  0  0  0  0  0  0
   14.7321   25.0406   -4.2857 C   0  0  0  0  0  0  0  0  0  0  0  0
   14.7682   26.3479   -4.7814 C   0  0  0  0  0  0  0  0  0  0  0  0
   13.8303   27.2257   -4.3356 C   0  0  0  0  0  0  0  0  0  0  0  0
   12.8539   26.8449   -3.4093 C   0  0  0  0  0  0  0  0  0  0  0  0
 18 19  1  0  0  0
 19 20  1  0  0  0
 19 17  1  0  0  0
 17 11  1  0  0  0
 11  7  1  0  0  0
  7  8  1  0  0  0
  8  9  2  0  0  0
  8  6  1  0  0  0
  6 21  1  0  0  0
 21 22  1  0  0  0
 22 23  2  0  0  0
 23 24  1  0  0  0
 24 25  2  0  0  0
 25 26  1  0  0  0
 26 27  2  0  0  0
  6  2  1  0  0  0
  2  3  1  0  0  0
  3  4  2  0  0  0
  3  1  1  0  0  0
  1 57  1  0  0  0
 57 58  1  0  0  0
 58 59  2  0  0  0
 59 60  1  0  0  0
 60 61  2  0  0  0
 61 62  1  0  0  0
 62 63  2  0  0  0
  1 28  1  0  0  0
 28 29  1  0  0  0
 29 30  2  0  0  0
 29 32  1  0  0  0
 32 50  1  0  0  0
 50 51  1  0  0  0
 51 52  2  0  0  0
 52 53  1  0  0  0
 53 54  2  0  0  0
 54 55  1  0  0  0
 55 56  2  0  0  0
 32 33  1  0  0  0
 33 34  1  0  0  0
 34 35  2  0  0  0
 34 37  1  0  0  0
 37 38  1  0  0  0
 37 41  1  0  0  0
 41 42  1  0  0  0
 42 43  2  0  0  0
 43 44  1  0  0  0
 44 45  2  0  0  0
 45 46  1  0  0  0
 45 47  1  0  0  0
 47 48  2  0  0  0
 11 12  1  0  0  0
 12 13  1  0  0  0
 12 14  2  0  0  0
 27 22  1  0  0  0
 63 58  1  0  0  0
 56 51  1  0  0  0
 48 42  1  0  0  0
  7 10  1  0  0  0
  2  5  1  0  0  0
 28 31  1  0  0  0
 33 36  1  0  0  0
 38 39  1  0  0  0
 38 40  1  0  0  0
 46 49  1  0  0  0
 13 15  1  0  0  0
 13 16  1  0  0  0
M  END
> <minimizedAffinity>
-0.95376

> <CNNscore>
0.3837396801

> <CNNaffinity>
7.8470182419

> <CNN_VS>
3.0112123489

> <CNNaffinity_variance>
0.3145482838

$$$$
[H]Oc1c([H])c([H])c(C([H])([H])[C@@]([H])(C(=O)N([H])[C@]([H])(C(=O)N([H])[C@]([H])(C(=O)N([H])[C@]([H])(C(=O)N([H])[C@]([H])(C(=O)N([H])[H])C([H])([H])C([H])(C([H])([H])[H])C([H])([H])[H])C([H])([H])c2c([H])c([H])c([H])c([H])c2[H])C([H])([H])c2c([H])c([H])c([H])c([H])c2[H])C([H])([H])c2c([H])c([H])c([H])c([H])c2[H])N([H])[H])c([H])c1[H]


 63 66  0  0  0  0  0  0  0  0999 V2000
   12.1039   25.0768   -0.1307 C   0  0  0  0  0  0  0  0  0  0  0  0
   10.0447   23.6137   -0.0348 N   0  0  0  0  0  0  0  0  0  0  0  0
   10.8437   24.5647    0.5688 C   0  0  0  0  0  0  0  0  0  0  0  0
   10.5832   25.0405    1.6947 O   0  0  0  0  0  0  0  0  0  0  0  0
   10.3279   23.3008   -1.0107 H   0  0  0  0  0  0  0  0  0  0  0  0
    8.8380   22.9261    0.4233 C   0  0  0  0  0  0  0  0  0  0  0  0
    8.8968   23.1557    2.9450 N   0  0  0  0  0  0  0  0  0  0  0  0
    8.3922   23.4185    1.6872 C   0  0  0  0  0  0  0  0  0  0  0  0
    7.3632   24.2179    1.6624 O   0  0  0  0  0  0  0  0  0  0  0  0
    9.6880   22.5424    3.2092 H   0  0  0  0  0  0  0  0  0  0  0  0
    8.2584   23.7692    4.1978 C   0  0  0  0  0  0  0  0  0  0  0  0
    7.3540   22.7442    4.6839 C   0  0  0  0  0  0  0  0  0  0  0  0
    7.5591   21.4032    4.9383 N   0  0  0  0  0  0  0  0  0  0  0  0
    6.1051   23.1101    4.9458 O   0  0  0  0  0  0  0  0  0  0  0  0
    7.3182   20.7168    4.1570 H   0  0  0  0  0  0  0  0  0  0  0  0
    7.9274   20.9557    5.8116 H   0  0  0  0  0  0  0  0  0  0  0  0
    7.7117   25.0253    3.7066 C   0  0  0  0  0  0  0  0  0  0  0  0
    7.8805   27.6087    3.5335 C   0  0  0  0  0  0  0  0  0  0  0  0
    7.9250   26.3424    4.2723 C   0  0  0  0  0  0  0  0  0  0  0  0
    6.8791   26.4972    5.4242 C   0  0  0  0  0  0  0  0  0  0  0  0
    8.9761   21.4455    0.2932 C   0  0  0  0  0  0  0  0  0  0  0  0
    7.8515   20.7227   -0.3474 C   0  0  0  0  0  0  0  0  0  0  0  0
    8.0407   19.3959   -0.7295 C   0  0  0  0  0  0  0  0  0  0  0  0
    7.0470   18.5981   -1.2466 C   0  0  0  0  0  0  0  0  0  0  0  0
    5.7782   19.1729   -1.3891 C   0  0  0  0  0  0  0  0  0  0  0  0
    5.5444   20.4761   -1.0261 C   0  0  0  0  0  0  0  0  0  0  0  0
    6.5834   21.2491   -0.5056 C   0  0  0  0  0  0  0  0  0  0  0  0
   13.2397   24.2955    0.2857 N   0  0  0  0  0  0  0  0  0  0  0  0
   14.5282   24.8790    0.5071 C   0  0  0  0  0  0  0  0  0  0  0  0
   14.5981   26.1230    0.3199 O   0  0  0  0  0  0  0  0  0  0  0  0
   13.1323   23.2834    0.4335 H   0  0  0  0  0  0  0  0  0  0  0  0
   15.7279   24.1515    0.9128 C   0  0  0  0  0  0  0  0  0  0  0  0
   15.4413   22.7066    1.0494 N   0  0  0  0  0  0  0  0  0  0  0  0
   14.7686   22.0095    0.0095 C   0  0  0  0  0  0  0  0  0  0  0  0
   14.4524   22.7078   -1.0326 O   0  0  0  0  0  0  0  0  0  0  0  0
   15.7161   22.2214    1.9027 H   0  0  0  0  0  0  0  0  0  0  0  0
   14.3967   20.6128   -0.0065 C   0  0  0  0  0  0  0  0  0  0  0  0
   15.2027   19.9200    1.0401 N   0  0  0  0  0  0  0  0  0  0  0  0
   16.1748   20.3063    1.0589 H   0  0  0  0  0  0  0  0  0  0  0  0
   14.6885   20.1103    1.9339 H   0  0  0  0  0  0  0  0  0  0  0  0
   12.9901   20.2363    0.2492 C   0  0  0  0  0  0  0  0  0  0  0  0
   12.4508   20.3900    1.5903 C   0  0  0  0  0  0  0  0  0  0  0  0
   12.0703   21.6140    2.0853 C   0  0  0  0  0  0  0  0  0  0  0  0
   11.5225   21.8205    3.3420 C   0  0  0  0  0  0  0  0  0  0  0  0
   11.3399   20.7403    4.1637 C   0  0  0  0  0  0  0  0  0  0  0  0
   10.7921   20.9382    5.4164 O   0  0  0  0  0  0  0  0  0  0  0  0
   11.7183   19.4890    3.6850 C   0  0  0  0  0  0  0  0  0  0  0  0
   12.2573   19.2960    2.4427 C   0  0  0  0  0  0  0  0  0  0  0  0
   11.3396   21.1316    6.2461 H   0  0  0  0  0  0  0  0  0  0  0  0
   16.9619   24.3586    0.1285 C   0  0  0  0  0  0  0  0  0  0  0  0
   16.8435   24.9395   -1.2023 C   0  0  0  0  0  0  0  0  0  0  0  0
   16.9890   26.2935   -1.3902 C   0  0  0  0  0  0  0  0  0  0  0  0
   16.8907   26.8887   -2.6434 C   0  0  0  0  0  0  0  0  0  0  0  0
   16.6418   26.1089   -3.7269 C   0  0  0  0  0  0  0  0  0  0  0  0
   16.4899   24.7366   -3.5731 C   0  0  0  0  0  0  0  0  0  0  0  0
   16.5905   24.1449   -2.3054 C   0  0  0  0  0  0  0  0  0  0  0  0
   11.8498   24.6574   -1.5794 C   0  0  0  0  0  0  0  0  0  0  0  0
   12.5002   25.4286   -2.5985 C   0  0  0  0  0  0  0  0  0  0  0  0
   13.3643   24.8756   -3.5049 C   0  0  0  0  0  0  0  0  0  0  0  0
   14.0036   25.5977   -4.4810 C   0  0  0  0  0  0  0  0  0  0  0  0
   13.7787   26.9745   -4.5797 C   0  0  0  0  0  0  0  0  0  0  0  0
   12.9236   27.5471   -3.6909 C   0  0  0  0  0  0  0  0  0  0  0  0
   12.2823   26.7924   -2.7030 C   0  0  0  0  0  0  0  0  0  0  0  0
 18 19  1  0  0  0
 19 20  1  0  0  0
 19 17  1  0  0  0
 17 11  1  0  0  0
 11  7  1  0  0  0
  7  8  1  0  0  0
  8  9  2  0  0  0
  8  6  1  0  0  0
  6 21  1  0  0  0
 21 22  1  0  0  0
 22 23  2  0  0  0
 23 24  1  0  0  0
 24 25  2  0  0  0
 25 26  1  0  0  0
 26 27  2  0  0  0
  6  2  1  0  0  0
  2  3  1  0  0  0
  3  4  2  0  0  0
  3  1  1  0  0  0
  1 57  1  0  0  0
 57 58  1  0  0  0
 58 59  2  0  0  0
 59 60  1  0  0  0
 60 61  2  0  0  0
 61 62  1  0  0  0
 62 63  2  0  0  0
  1 28  1  0  0  0
 28 29  1  0  0  0
 29 30  2  0  0  0
 29 32  1  0  0  0
 32 50  1  0  0  0
 50 51  1  0  0  0
 51 52  2  0  0  0
 52 53  1  0  0  0
 53 54  2  0  0  0
 54 55  1  0  0  0
 55 56  2  0  0  0
 32 33  1  0  0  0
 33 34  1  0  0  0
 34 35  2  0  0  0
 34 37  1  0  0  0
 37 38  1  0  0  0
 37 41  1  0  0  0
 41 42  1  0  0  0
 42 43  2  0  0  0
 43 44  1  0  0  0
 44 45  2  0  0  0
 45 46  1  0  0  0
 45 47  1  0  0  0
 47 48  2  0  0  0
 11 12  1  0  0  0
 12 13  1  0  0  0
 12 14  2  0  0  0
 27 22  1  0  0  0
 63 58  1  0  0  0
 56 51  1  0  0  0
 48 42  1  0  0  0
  7 10  1  0  0  0
  2  5  1  0  0  0
 28 31  1  0  0  0
 33 36  1  0  0  0
 38 39  1  0  0  0
 38 40  1  0  0  0
 46 49  1  0  0  0
 13 15  1  0  0  0
 13 16  1  0  0  0
M  END
> <minimizedAffinity>
-4.05783

> <CNNscore>
0.3775748610

> <CNNaffinity>
8.0597963333

> <CNN_VS>
3.0431764126

> <CNNaffinity_variance>
0.4704504907

$$$$
[H]Oc1c([H])c([H])c(C([H])([H])[C@@]([H])(C(=O)N([H])[C@]([H])(C(=O)N([H])[C@]([H])(C(=O)N([H])[C@]([H])(C(=O)N([H])[C@]([H])(C(=O)N([H])[H])C([H])([H])C([H])(C([H])([H])[H])C([H])([H])[H])C([H])([H])c2c([H])c([H])c([H])c([H])c2[H])C([H])([H])c2c([H])c([H])c([H])c([H])c2[H])C([H])([H])c2c([H])c([H])c([H])c([H])c2[H])N([H])[H])c([H])c1[H]


 63 66  0  0  0  0  0  0  0  0999 V2000
   14.0002   21.6920   -1.3585 C   0  0  0  0  0  0  0  0  0  0  0  0
   12.2932   20.6363    0.1784 N   0  0  0  0  0  0  0  0  0  0  0  0
   13.6083   20.7353   -0.2312 C   0  0  0  0  0  0  0  0  0  0  0  0
   14.5229   20.0588    0.2863 O   0  0  0  0  0  0  0  0  0  0  0  0
   11.5949   21.2831   -0.2955 H   0  0  0  0  0  0  0  0  0  0  0  0
   11.6479   19.7830    1.1755 C   0  0  0  0  0  0  0  0  0  0  0  0
    9.3380   20.7856    1.4482 N   0  0  0  0  0  0  0  0  0  0  0  0
   10.2254   19.8044    1.0538 C   0  0  0  0  0  0  0  0  0  0  0  0
    9.6793   18.7554    0.5063 O   0  0  0  0  0  0  0  0  0  0  0  0
    9.5370   21.6871    1.9169 H   0  0  0  0  0  0  0  0  0  0  0  0
    7.8268   20.6117    1.2500 C   0  0  0  0  0  0  0  0  0  0  0  0
    7.5595   21.2064   -0.0462 C   0  0  0  0  0  0  0  0  0  0  0  0
    6.4981   21.9688   -0.4903 N   0  0  0  0  0  0  0  0  0  0  0  0
    8.4622   21.0149   -1.0005 O   0  0  0  0  0  0  0  0  0  0  0  0
    5.7003   21.4550   -0.9794 H   0  0  0  0  0  0  0  0  0  0  0  0
    6.3637   23.0053   -0.4115 H   0  0  0  0  0  0  0  0  0  0  0  0
    7.2657   21.2265    2.4438 C   0  0  0  0  0  0  0  0  0  0  0  0
    5.6491   21.3167    4.4712 C   0  0  0  0  0  0  0  0  0  0  0  0
    6.3155   20.6289    3.3604 C   0  0  0  0  0  0  0  0  0  0  0  0
    5.1614   20.0515    2.4776 C   0  0  0  0  0  0  0  0  0  0  0  0
   12.2064   20.0253    2.5384 C   0  0  0  0  0  0  0  0  0  0  0  0
   11.2479   20.4424    3.5895 C   0  0  0  0  0  0  0  0  0  0  0  0
   10.9112   21.7910    3.6900 C   0  0  0  0  0  0  0  0  0  0  0  0
    9.9675   22.2824    4.5614 C   0  0  0  0  0  0  0  0  0  0  0  0
    9.3191   21.3559    5.3869 C   0  0  0  0  0  0  0  0  0  0  0  0
    9.6176   20.0174    5.3231 C   0  0  0  0  0  0  0  0  0  0  0  0
   10.5831   19.5633    4.4233 C   0  0  0  0  0  0  0  0  0  0  0  0
   13.3283   22.9530   -1.1782 N   0  0  0  0  0  0  0  0  0  0  0  0
   11.9113   23.0915   -1.3276 C   0  0  0  0  0  0  0  0  0  0  0  0
   11.2921   22.0338   -1.6201 O   0  0  0  0  0  0  0  0  0  0  0  0
   13.8753   23.7884   -0.9320 H   0  0  0  0  0  0  0  0  0  0  0  0
   11.1624   24.3365   -1.1776 C   0  0  0  0  0  0  0  0  0  0  0  0
   11.2901   25.1722   -2.3916 N   0  0  0  0  0  0  0  0  0  0  0  0
   12.5356   25.7740   -2.7178 C   0  0  0  0  0  0  0  0  0  0  0  0
   13.5153   25.5304   -1.9088 O   0  0  0  0  0  0  0  0  0  0  0  0
   10.4727   25.3248   -2.9811 H   0  0  0  0  0  0  0  0  0  0  0  0
   12.8226   26.6292   -3.8473 C   0  0  0  0  0  0  0  0  0  0  0  0
   11.9780   27.8513   -3.7130 N   0  0  0  0  0  0  0  0  0  0  0  0
   11.0310   27.5952   -3.3495 H   0  0  0  0  0  0  0  0  0  0  0  0
   12.5042   28.4595   -3.0401 H   0  0  0  0  0  0  0  0  0  0  0  0
   14.2044   27.1117   -4.0559 C   0  0  0  0  0  0  0  0  0  0  0  0
   14.8876   26.7819   -5.2958 C   0  0  0  0  0  0  0  0  0  0  0  0
   14.7910   25.5377   -5.8707 C   0  0  0  0  0  0  0  0  0  0  0  0
   15.3930   25.1720   -7.0648 C   0  0  0  0  0  0  0  0  0  0  0  0
   16.1418   26.1031   -7.7342 C   0  0  0  0  0  0  0  0  0  0  0  0
   16.7424   25.7466   -8.9260 O   0  0  0  0  0  0  0  0  0  0  0  0
   16.2552   27.3714   -7.1715 C   0  0  0  0  0  0  0  0  0  0  0  0
   15.6564   27.7221   -5.9928 C   0  0  0  0  0  0  0  0  0  0  0  0
   17.6727   25.3518   -8.9917 H   0  0  0  0  0  0  0  0  0  0  0  0
    9.7485   24.2484   -0.7608 C   0  0  0  0  0  0  0  0  0  0  0  0
    9.4200   24.5389    0.6285 C   0  0  0  0  0  0  0  0  0  0  0  0
   10.4066   24.8738    1.5255 C   0  0  0  0  0  0  0  0  0  0  0  0
   10.1368   25.1652    2.8584 C   0  0  0  0  0  0  0  0  0  0  0  0
    8.8526   25.1192    3.2975 C   0  0  0  0  0  0  0  0  0  0  0  0
    7.8309   24.7850    2.4176 C   0  0  0  0  0  0  0  0  0  0  0  0
    8.1121   24.4924    1.0750 C   0  0  0  0  0  0  0  0  0  0  0  0
   15.4662   21.9788   -1.0299 C   0  0  0  0  0  0  0  0  0  0  0  0
   15.9398   23.3060   -1.2954 C   0  0  0  0  0  0  0  0  0  0  0  0
   16.0584   24.2572   -0.3180 C   0  0  0  0  0  0  0  0  0  0  0  0
   16.5003   25.5348   -0.5533 C   0  0  0  0  0  0  0  0  0  0  0  0
   16.8567   25.9136   -1.8516 C   0  0  0  0  0  0  0  0  0  0  0  0
   16.7482   24.9858   -2.8397 C   0  0  0  0  0  0  0  0  0  0  0  0
   16.2950   23.6885   -2.5782 C   0  0  0  0  0  0  0  0  0  0  0  0
 18 19  1  0  0  0
 19 20  1  0  0  0
 19 17  1  0  0  0
 17 11  1  0  0  0
 11  7  1  0  0  0
  7  8  1  0  0  0
  8  9  2  0  0  0
  8  6  1  0  0  0
  6 21  1  0  0  0
 21 22  1  0  0  0
 22 23  2  0  0  0
 23 24  1  0  0  0
 24 25  2  0  0  0
 25 26  1  0  0  0
 26 27  2  0  0  0
  6  2  1  0  0  0
  2  3  1  0  0  0
  3  4  2  0  0  0
  3  1  1  0  0  0
  1 57  1  0  0  0
 57 58  1  0  0  0
 58 59  2  0  0  0
 59 60  1  0  0  0
 60 61  2  0  0  0
 61 62  1  0  0  0
 62 63  2  0  0  0
  1 28  1  0  0  0
 28 29  1  0  0  0
 29 30  2  0  0  0
 29 32  1  0  0  0
 32 50  1  0  0  0
 50 51  1  0  0  0
 51 52  2  0  0  0
 52 53  1  0  0  0
 53 54  2  0  0  0
 54 55  1  0  0  0
 55 56  2  0  0  0
 32 33  1  0  0  0
 33 34  1  0  0  0
 34 35  2  0  0  0
 34 37  1  0  0  0
 37 38  1  0  0  0
 37 41  1  0  0  0
 41 42  1  0  0  0
 42 43  2  0  0  0
 43 44  1  0  0  0
 44 45  2  0  0  0
 45 46  1  0  0  0
 45 47  1  0  0  0
 47 48  2  0  0  0
 11 12  1  0  0  0
 12 13  1  0  0  0
 12 14  2  0  0  0
 27 22  1  0  0  0
 63 58  1  0  0  0
 56 51  1  0  0  0
 48 42  1  0  0  0
  7 10  1  0  0  0
  2  5  1  0  0  0
 28 31  1  0  0  0
 33 36  1  0  0  0
 38 39  1  0  0  0
 38 40  1  0  0  0
 46 49  1  0  0  0
 13 15  1  0  0  0
 13 16  1  0  0  0
M  END
> <minimizedAffinity>
-0.02941

> <CNNscore>
0.3613226712

> <CNNaffinity>
7.9951987267

> <CNN_VS>
2.8888466358

> <CNNaffinity_variance>
0.2487156838

$$$$
[H]Oc1c([H])c([H])c(C([H])([H])[C@@]([H])(C(=O)N([H])[C@]([H])(C(=O)N([H])[C@]([H])(C(=O)N([H])[C@]([H])(C(=O)N([H])[C@]([H])(C(=O)N([H])[H])C([H])([H])C([H])(C([H])([H])[H])C([H])([H])[H])C([H])([H])c2c([H])c([H])c([H])c([H])c2[H])C([H])([H])c2c([H])c([H])c([H])c([H])c2[H])C([H])([H])c2c([H])c([H])c([H])c([H])c2[H])N([H])[H])c([H])c1[H]


 63 66  0  0  0  0  0  0  0  0999 V2000
   10.3777   25.1003    0.6645 C   0  0  0  0  0  0  0  0  0  0  0  0
    9.9224   24.0726    2.9287 N   0  0  0  0  0  0  0  0  0  0  0  0
    9.4397   24.4774    1.6997 C   0  0  0  0  0  0  0  0  0  0  0  0
    8.2368   24.3601    1.3818 O   0  0  0  0  0  0  0  0  0  0  0  0
   10.9682   24.1766    3.0894 H   0  0  0  0  0  0  0  0  0  0  0  0
    9.2504   23.5067    4.0978 C   0  0  0  0  0  0  0  0  0  0  0  0
    6.8515   22.9705    3.4869 N   0  0  0  0  0  0  0  0  0  0  0  0
    8.1719   22.6473    3.7277 C   0  0  0  0  0  0  0  0  0  0  0  0
    8.4601   21.3820    3.6078 O   0  0  0  0  0  0  0  0  0  0  0  0
    6.3925   23.8970    3.5401 H   0  0  0  0  0  0  0  0  0  0  0  0
    5.8268   21.8898    3.1190 C   0  0  0  0  0  0  0  0  0  0  0  0
    5.6934   21.0908    4.3227 C   0  0  0  0  0  0  0  0  0  0  0  0
    5.9703   19.7596    4.5603 N   0  0  0  0  0  0  0  0  0  0  0  0
    5.2330   21.6998    5.4086 O   0  0  0  0  0  0  0  0  0  0  0  0
    5.1621   19.0690    4.4623 H   0  0  0  0  0  0  0  0  0  0  0  0
    6.8846   19.3232    4.8290 H   0  0  0  0  0  0  0  0  0  0  0  0
    6.3994   21.2866    1.9249 C   0  0  0  0  0  0  0  0  0  0  0  0
    5.1219   20.8760   -0.2959 C   0  0  0  0  0  0  0  0  0  0  0  0
    5.7155   20.4363    0.9712 C   0  0  0  0  0  0  0  0  0  0  0  0
    6.7286   19.3095    0.5859 C   0  0  0  0  0  0  0  0  0  0  0  0
    8.9487   24.5601    5.1116 C   0  0  0  0  0  0  0  0  0  0  0  0
    7.9684   25.6017    4.7222 C   0  0  0  0  0  0  0  0  0  0  0  0
    8.3961   26.6533    3.9140 C   0  0  0  0  0  0  0  0  0  0  0  0
    7.5606   27.6248    3.4144 C   0  0  0  0  0  0  0  0  0  0  0  0
    6.2043   27.5326    3.7500 C   0  0  0  0  0  0  0  0  0  0  0  0
    5.7370   26.5141    4.5431 C   0  0  0  0  0  0  0  0  0  0  0  0
    6.6217   25.5498    5.0284 C   0  0  0  0  0  0  0  0  0  0  0  0
   11.6969   24.5409    0.8084 N   0  0  0  0  0  0  0  0  0  0  0  0
   12.8570   25.1668    0.2498 C   0  0  0  0  0  0  0  0  0  0  0  0
   12.6455   26.2436   -0.3693 O   0  0  0  0  0  0  0  0  0  0  0  0
   11.8214   23.6630    1.3296 H   0  0  0  0  0  0  0  0  0  0  0  0
   14.2213   24.6530    0.3392 C   0  0  0  0  0  0  0  0  0  0  0  0
   14.2437   23.1901    0.1202 N   0  0  0  0  0  0  0  0  0  0  0  0
   15.2548   22.3924    0.7213 C   0  0  0  0  0  0  0  0  0  0  0  0
   16.1121   23.0201    1.4592 O   0  0  0  0  0  0  0  0  0  0  0  0
   13.5376   22.7638   -0.4787 H   0  0  0  0  0  0  0  0  0  0  0  0
   15.4307   20.9634    0.5929 C   0  0  0  0  0  0  0  0  0  0  0  0
   16.2541   20.5052    1.7492 N   0  0  0  0  0  0  0  0  0  0  0  0
   16.9991   21.2087    1.9606 H   0  0  0  0  0  0  0  0  0  0  0  0
   15.5686   20.4123    2.5372 H   0  0  0  0  0  0  0  0  0  0  0  0
   14.2398   20.0877    0.5706 C   0  0  0  0  0  0  0  0  0  0  0  0
   13.3173   20.1218    1.6934 C   0  0  0  0  0  0  0  0  0  0  0  0
   12.5648   21.2344    1.9829 C   0  0  0  0  0  0  0  0  0  0  0  0
   11.6477   21.3182    3.0192 C   0  0  0  0  0  0  0  0  0  0  0  0
   11.4646   20.2247    3.8233 C   0  0  0  0  0  0  0  0  0  0  0  0
   10.5504   20.3001    4.8562 O   0  0  0  0  0  0  0  0  0  0  0  0
   12.2160   19.0850    3.5504 C   0  0  0  0  0  0  0  0  0  0  0  0
   13.1179   19.0126    2.5246 C   0  0  0  0  0  0  0  0  0  0  0  0
   10.7830   20.6084    5.7924 H   0  0  0  0  0  0  0  0  0  0  0  0
   15.2637   25.3104   -0.4743 C   0  0  0  0  0  0  0  0  0  0  0  0
   15.2317   25.1221   -1.9187 C   0  0  0  0  0  0  0  0  0  0  0  0
   15.4453   26.1823   -2.7674 C   0  0  0  0  0  0  0  0  0  0  0  0
   15.4305   26.0461   -4.1514 C   0  0  0  0  0  0  0  0  0  0  0  0
   15.1968   24.8224   -4.6919 C   0  0  0  0  0  0  0  0  0  0  0  0
   14.9776   23.7291   -3.8634 C   0  0  0  0  0  0  0  0  0  0  0  0
   14.9941   23.8757   -2.4686 C   0  0  0  0  0  0  0  0  0  0  0  0
    9.8413   24.5084   -0.6398 C   0  0  0  0  0  0  0  0  0  0  0  0
   10.1702   23.1393   -0.9110 C   0  0  0  0  0  0  0  0  0  0  0  0
   11.3106   22.7706   -1.5726 C   0  0  0  0  0  0  0  0  0  0  0  0
   11.6384   21.4674   -1.8499 C   0  0  0  0  0  0  0  0  0  0  0  0
   10.7807   20.4392   -1.4460 C   0  0  0  0  0  0  0  0  0  0  0  0
    9.6417   20.7802   -0.7863 C   0  0  0  0  0  0  0  0  0  0  0  0
    9.3262   22.1155   -0.5139 C   0  0  0  0  0  0  0  0  0  0  0  0
 18 19  1  0  0  0
 19 20  1  0  0  0
 19 17  1  0  0  0
 17 11  1  0  0  0
 11  7  1  0  0  0
  7  8  1  0  0  0
  8  9  2  0  0  0
  8  6  1  0  0  0
  6 21  1  0  0  0
 21 22  1  0  0  0
 22 23  2  0  0  0
 23 24  1  0  0  0
 24 25  2  0  0  0
 25 26  1  0  0  0
 26 27  2  0  0  0
  6  2  1  0  0  0
  2  3  1  0  0  0
  3  4  2  0  0  0
  3  1  1  0  0  0
  1 57  1  0  0  0
 57 58  1  0  0  0
 58 59  2  0  0  0
 59 60  1  0  0  0
 60 61  2  0  0  0
 61 62  1  0  0  0
 62 63  2  0  0  0
  1 28  1  0  0  0
 28 29  1  0  0  0
 29 30  2  0  0  0
 29 32  1  0  0  0
 32 50  1  0  0  0
 50 51  1  0  0  0
 51 52  2  0  0  0
 52 53  1  0  0  0
 53 54  2  0  0  0
 54 55  1  0  0  0
 55 56  2  0  0  0
 32 33  1  0  0  0
 33 34  1  0  0  0
 34 35  2  0  0  0
 34 37  1  0  0  0
 37 38  1  0  0  0
 37 41  1  0  0  0
 41 42  1  0  0  0
 42 43  2  0  0  0
 43 44  1  0  0  0
 44 45  2  0  0  0
 45 46  1  0  0  0
 45 47  1  0  0  0
 47 48  2  0  0  0
 11 12  1  0  0  0
 12 13  1  0  0  0
 12 14  2  0  0  0
 27 22  1  0  0  0
 63 58  1  0  0  0
 56 51  1  0  0  0
 48 42  1  0  0  0
  7 10  1  0  0  0
  2  5  1  0  0  0
 28 31  1  0  0  0
 33 36  1  0  0  0
 38 39  1  0  0  0
 38 40  1  0  0  0
 46 49  1  0  0  0
 13 15  1  0  0  0
 13 16  1  0  0  0
M  END
> <minimizedAffinity>
-1.84163

> <CNNscore>
0.3470315337

> <CNNaffinity>
7.5299453735

> <CNN_VS>
2.6131284237

> <CNNaffinity_variance>
0.2552224100

$$$$
[H]Oc1c([H])c([H])c(C([H])([H])[C@@]([H])(C(=O)N([H])[C@]([H])(C(=O)N([H])[C@]([H])(C(=O)N([H])[C@]([H])(C(=O)N([H])[C@]([H])(C(=O)N([H])[H])C([H])([H])C([H])(C([H])([H])[H])C([H])([H])[H])C([H])([H])c2c([H])c([H])c([H])c([H])c2[H])C([H])([H])c2c([H])c([H])c([H])c([H])c2[H])C([H])([H])c2c([H])c([H])c([H])c([H])c2[H])N([H])[H])c([H])c1[H]


 63 66  0  0  0  0  0  0  0  0999 V2000
   10.9784   23.6580   -1.5313 C   0  0  0  0  0  0  0  0  0  0  0  0
   12.5334   23.0195    0.3567 N   0  0  0  0  0  0  0  0  0  0  0  0
   12.1006   22.8053   -0.9371 C   0  0  0  0  0  0  0  0  0  0  0  0
   12.5925   21.9197   -1.6690 O   0  0  0  0  0  0  0  0  0  0  0  0
   12.0808   23.8234    0.8853 H   0  0  0  0  0  0  0  0  0  0  0  0
   13.5315   22.3305    1.1739 C   0  0  0  0  0  0  0  0  0  0  0  0
   15.3075   23.6634   -0.0442 N   0  0  0  0  0  0  0  0  0  0  0  0
   14.8624   22.6252    0.7493 C   0  0  0  0  0  0  0  0  0  0  0  0
   15.7898   21.8027    1.1518 O   0  0  0  0  0  0  0  0  0  0  0  0
   14.7571   24.4186   -0.4900 H   0  0  0  0  0  0  0  0  0  0  0  0
   16.7906   23.7983   -0.4124 C   0  0  0  0  0  0  0  0  0  0  0  0
   17.3995   24.4141    0.7516 C   0  0  0  0  0  0  0  0  0  0  0  0
   16.9448   25.4129    1.5887 N   0  0  0  0  0  0  0  0  0  0  0  0
   18.5978   23.9738    1.1154 O   0  0  0  0  0  0  0  0  0  0  0  0
   17.2499   26.4115    1.3662 H   0  0  0  0  0  0  0  0  0  0  0  0
   16.3271   25.3249    2.4309 H   0  0  0  0  0  0  0  0  0  0  0  0
   16.7522   24.5336   -1.6677 C   0  0  0  0  0  0  0  0  0  0  0  0
   17.2377   26.6291   -3.1187 C   0  0  0  0  0  0  0  0  0  0  0  0
   16.9637   25.9564   -1.8445 C   0  0  0  0  0  0  0  0  0  0  0  0
   15.6930   26.6615   -1.2678 C   0  0  0  0  0  0  0  0  0  0  0  0
   13.1881   20.8880    1.3459 C   0  0  0  0  0  0  0  0  0  0  0  0
   12.3863   20.5292    2.5399 C   0  0  0  0  0  0  0  0  0  0  0  0
   11.5326   21.4868    3.0843 C   0  0  0  0  0  0  0  0  0  0  0  0
   10.6744   21.2423    4.1307 C   0  0  0  0  0  0  0  0  0  0  0  0
   10.6746   19.9483    4.6656 C   0  0  0  0  0  0  0  0  0  0  0  0
   11.4981   18.9721    4.1619 C   0  0  0  0  0  0  0  0  0  0  0  0
   12.3535   19.2656    3.0988 C   0  0  0  0  0  0  0  0  0  0  0  0
    9.8746   23.7164   -0.6082 N   0  0  0  0  0  0  0  0  0  0  0  0
    9.3384   22.5450    0.0162 C   0  0  0  0  0  0  0  0  0  0  0  0
    9.9028   21.4614   -0.2915 O   0  0  0  0  0  0  0  0  0  0  0  0
    9.4508   24.6257   -0.3814 H   0  0  0  0  0  0  0  0  0  0  0  0
    8.2132   22.5224    0.9472 C   0  0  0  0  0  0  0  0  0  0  0  0
    8.2172   23.7308    1.8005 N   0  0  0  0  0  0  0  0  0  0  0  0
    7.8127   23.6474    3.1605 C   0  0  0  0  0  0  0  0  0  0  0  0
    7.4686   22.4735    3.5815 O   0  0  0  0  0  0  0  0  0  0  0  0
    8.4966   24.6250    1.3988 H   0  0  0  0  0  0  0  0  0  0  0  0
    7.7395   24.7284    4.1172 C   0  0  0  0  0  0  0  0  0  0  0  0
    8.7783   25.7316    3.7437 N   0  0  0  0  0  0  0  0  0  0  0  0
    9.6454   25.2460    3.4167 H   0  0  0  0  0  0  0  0  0  0  0  0
    8.3337   26.2955    2.9796 H   0  0  0  0  0  0  0  0  0  0  0  0
    6.4771   25.4847    4.2581 C   0  0  0  0  0  0  0  0  0  0  0  0
    6.3829   26.8151    3.6800 C   0  0  0  0  0  0  0  0  0  0  0  0
    6.0432   27.9129    4.4332 C   0  0  0  0  0  0  0  0  0  0  0  0
    5.9662   29.2091    3.9474 C   0  0  0  0  0  0  0  0  0  0  0  0
    6.2446   29.4319    2.6251 C   0  0  0  0  0  0  0  0  0  0  0  0
    6.1725   30.7213    2.1348 O   0  0  0  0  0  0  0  0  0  0  0  0
    6.5910   28.3351    1.8408 C   0  0  0  0  0  0  0  0  0  0  0  0
    6.6647   27.0600    2.3304 C   0  0  0  0  0  0  0  0  0  0  0  0
    5.3317   31.1290    1.7443 H   0  0  0  0  0  0  0  0  0  0  0  0
    6.8634   22.2864    0.3969 C   0  0  0  0  0  0  0  0  0  0  0  0
    6.4429   20.9103    0.1688 C   0  0  0  0  0  0  0  0  0  0  0  0
    6.5890   20.3300   -1.0689 C   0  0  0  0  0  0  0  0  0  0  0  0
    6.2077   19.0180   -1.3287 C   0  0  0  0  0  0  0  0  0  0  0  0
    5.6699   18.2761   -0.3265 C   0  0  0  0  0  0  0  0  0  0  0  0
    5.5086   18.8309    0.9368 C   0  0  0  0  0  0  0  0  0  0  0  0
    5.8958   20.1550    1.1898 C   0  0  0  0  0  0  0  0  0  0  0  0
   11.5952   25.0571   -1.4935 C   0  0  0  0  0  0  0  0  0  0  0  0
   12.5131   25.3867   -2.5448 C   0  0  0  0  0  0  0  0  0  0  0  0
   13.4853   24.5238   -2.9742 C   0  0  0  0  0  0  0  0  0  0  0  0
   14.3786   24.8239   -3.9715 C   0  0  0  0  0  0  0  0  0  0  0  0
   14.3157   26.0706   -4.6021 C   0  0  0  0  0  0  0  0  0  0  0  0
   13.3578   26.9450   -4.1936 C   0  0  0  0  0  0  0  0  0  0  0  0
   12.4568   26.6191   -3.1743 C   0  0  0  0  0  0  0  0  0  0  0  0
 18 19  1  0  0  0
 19 20  1  0  0  0
 19 17  1  0  0  0
 17 11  1  0  0  0
 11  7  1  0  0  0
  7  8  1  0  0  0
  8  9  2  0  0  0
  8  6  1  0  0  0
  6 21  1  0  0  0
 21 22  1  0  0  0
 22 23  2  0  0  0
 23 24  1  0  0  0
 24 25  2  0  0  0
 25 26  1  0  0  0
 26 27  2  0  0  0
  6  2  1  0  0  0
  2  3  1  0  0  0
  3  4  2  0  0  0
  3  1  1  0  0  0
  1 57  1  0  0  0
 57 58  1  0  0  0
 58 59  2  0  0  0
 59 60  1  0  0  0
 60 61  2  0  0  0
 61 62  1  0  0  0
 62 63  2  0  0  0
  1 28  1  0  0  0
 28 29  1  0  0  0
 29 30  2  0  0  0
 29 32  1  0  0  0
 32 50  1  0  0  0
 50 51  1  0  0  0
 51 52  2  0  0  0
 52 53  1  0  0  0
 53 54  2  0  0  0
 54 55  1  0  0  0
 55 56  2  0  0  0
 32 33  1  0  0  0
 33 34  1  0  0  0
 34 35  2  0  0  0
 34 37  1  0  0  0
 37 38  1  0  0  0
 37 41  1  0  0  0
 41 42  1  0  0  0
 42 43  2  0  0  0
 43 44  1  0  0  0
 44 45  2  0  0  0
 45 46  1  0  0  0
 45 47  1  0  0  0
 47 48  2  0  0  0
 11 12  1  0  0  0
 12 13  1  0  0  0
 12 14  2  0  0  0
 27 22  1  0  0  0
 63 58  1  0  0  0
 56 51  1  0  0  0
 48 42  1  0  0  0
  7 10  1  0  0  0
  2  5  1  0  0  0
 28 31  1  0  0  0
 33 36  1  0  0  0
 38 39  1  0  0  0
 38 40  1  0  0  0
 46 49  1  0  0  0
 13 15  1  0  0  0
 13 16  1  0  0  0
M  END
> <minimizedAffinity>
-3.50650

> <CNNscore>
0.3069885373

> <CNNaffinity>
7.8070869446

> <CNN_VS>
2.3966863155

> <CNNaffinity_variance>
0.3128606677

$$$$
[H]OC(=O)c1c([H])c([H])c(-c2nc([C@]3([H])C([H])([H])N([C@@](c4nc([H])c([H])c([H])c4[H])(c4c([H])c([H])c([H])c([H])c4[H])C([H])([H])[H])C([H])([H])C3([H])[H])no2)c([H])c1[H]


 34 38  0  0  0  0  0  0  0  0999 V2000
   11.6540   23.3177    1.1298 N   0  0  0  0  0  0  0  0  0  0  0  0
   11.2120   23.9708   -0.0422 C   0  0  0  0  0  0  0  0  0  0  0  0
   11.8217   25.3716    0.1537 C   0  0  0  0  0  0  0  0  0  0  0  0
   13.1528   25.0957    0.7890 C   0  0  0  0  0  0  0  0  0  0  0  0
   13.0477   23.6575    1.2367 C   0  0  0  0  0  0  0  0  0  0  0  0
   14.1819   25.2648   -0.2958 C   0  0  0  0  0  0  0  0  0  0  0  0
   15.5257   25.2977   -0.1178 N   0  0  0  0  0  0  0  0  0  0  0  0
   16.1112   25.4569   -1.2658 O   0  0  0  0  0  0  0  0  0  0  0  0
   15.1997   25.5307   -2.2013 C   0  0  0  0  0  0  0  0  0  0  0  0
   13.9952   25.4134   -1.6172 N   0  0  0  0  0  0  0  0  0  0  0  0
   15.3982   25.7095   -3.6456 C   0  0  0  0  0  0  0  0  0  0  0  0
   15.6673   26.9546   -4.1743 C   0  0  0  0  0  0  0  0  0  0  0  0
   15.8597   27.1630   -5.5235 C   0  0  0  0  0  0  0  0  0  0  0  0
   15.7865   26.0970   -6.4138 C   0  0  0  0  0  0  0  0  0  0  0  0
   15.5168   24.8567   -5.8735 C   0  0  0  0  0  0  0  0  0  0  0  0
   15.3264   24.6596   -4.5259 C   0  0  0  0  0  0  0  0  0  0  0  0
   15.9853   26.3074   -7.8308 C   0  0  0  0  0  0  0  0  0  0  0  0
   15.4505   25.4494   -8.7537 O   0  0  0  0  0  0  0  0  0  0  0  0
   16.6582   27.2911   -8.2160 O   0  0  0  0  0  0  0  0  0  0  0  0
   15.1632   24.4993   -8.5975 H   0  0  0  0  0  0  0  0  0  0  0  0
   10.1755   21.5357    0.4264 C   0  0  0  0  0  0  0  0  0  0  0  0
   11.3860   21.9101    1.2474 C   0  0  0  0  0  0  0  0  0  0  0  0
   12.5590   21.1929    0.7031 C   0  0  0  0  0  0  0  0  0  0  0  0
   12.5143   20.6820   -0.5591 C   0  0  0  0  0  0  0  0  0  0  0  0
   13.5829   19.9965   -1.1264 C   0  0  0  0  0  0  0  0  0  0  0  0
   14.7307   19.8245   -0.3908 C   0  0  0  0  0  0  0  0  0  0  0  0
   14.7464   20.3545    0.8875 C   0  0  0  0  0  0  0  0  0  0  0  0
   13.6964   21.0104    1.4027 N   0  0  0  0  0  0  0  0  0  0  0  0
   11.1009   21.5214    2.6692 C   0  0  0  0  0  0  0  0  0  0  0  0
   11.6155   20.3600    3.2081 C   0  0  0  0  0  0  0  0  0  0  0  0
   11.3750   19.9803    4.5086 C   0  0  0  0  0  0  0  0  0  0  0  0
   10.5948   20.7765    5.3155 C   0  0  0  0  0  0  0  0  0  0  0  0
   10.0586   21.9462    4.8229 C   0  0  0  0  0  0  0  0  0  0  0  0
   10.3248   22.2914    3.5102 C   0  0  0  0  0  0  0  0  0  0  0  0
 22 21  1  0  0  0
 22  1  1  0  0  0
  1  2  1  0  0  0
  2  3  1  0  0  0
  3  4  1  0  0  0
  4  5  1  0  0  0
  4  6  1  0  0  0
  6  7  2  0  0  0
  7  8  1  0  0  0
  8  9  1  0  0  0
  9 10  2  0  0  0
  9 11  1  0  0  0
 11 12  2  0  0  0
 12 13  1  0  0  0
 13 14  2  0  0  0
 14 15  1  0  0  0
 15 16  2  0  0  0
 14 17  1  0  0  0
 17 18  1  0  0  0
 17 19  2  0  0  0
 22 23  1  0  0  0
 23 24  2  0  0  0
 24 25  1  0  0  0
 25 26  2  0  0  0
 26 27  1  0  0  0
 27 28  2  0  0  0
 22 29  1  0  0  0
 29 30  2  0  0  0
 30 31  1  0  0  0
 31 32  2  0  0  0
 32 33  1  0  0  0
 33 34  2  0  0  0
  5  1  1  0  0  0
 10  6  1  0  0  0
 16 11  1  0  0  0
 28 23  1  0  0  0
 34 29  1  0  0  0
 18 20  1  0  0  0
M  END
> <minimizedAffinity>
-5.78840

> <CNNscore>
0.5309666991

> <CNNaffinity>
7.4775056839

> <CNN_VS>
3.9703063965

> <CNNaffinity_variance>
0.3811005950

$$$$
[H]OC(=O)c1c([H])c([H])c(-c2nc([C@]3([H])C([H])([H])N([C@@](c4nc([H])c([H])c([H])c4[H])(c4c([H])c([H])c([H])c([H])c4[H])C([H])([H])[H])C([H])([H])C3([H])[H])no2)c([H])c1[H]


 34 38  0  0  0  0  0  0  0  0999 V2000
   12.7556   20.9442    0.2477 N   0  0  0  0  0  0  0  0  0  0  0  0
   14.0881   21.3716    0.4400 C   0  0  0  0  0  0  0  0  0  0  0  0
   14.8426   20.4171   -0.5046 C   0  0  0  0  0  0  0  0  0  0  0  0
   13.9216   20.2778   -1.6810 C   0  0  0  0  0  0  0  0  0  0  0  0
   12.6086   20.8288   -1.1787 C   0  0  0  0  0  0  0  0  0  0  0  0
   14.5003   21.1345   -2.7745 C   0  0  0  0  0  0  0  0  0  0  0  0
   15.1715   20.6860   -3.8639 N   0  0  0  0  0  0  0  0  0  0  0  0
   15.5292   21.6953   -4.5984 O   0  0  0  0  0  0  0  0  0  0  0  0
   15.1172   22.8002   -4.0323 C   0  0  0  0  0  0  0  0  0  0  0  0
   14.4760   22.4713   -2.8981 N   0  0  0  0  0  0  0  0  0  0  0  0
   15.2947   24.1796   -4.5050 C   0  0  0  0  0  0  0  0  0  0  0  0
   15.4260   25.2225   -3.6120 C   0  0  0  0  0  0  0  0  0  0  0  0
   15.5942   26.5298   -4.0161 C   0  0  0  0  0  0  0  0  0  0  0  0
   15.6376   26.8436   -5.3704 C   0  0  0  0  0  0  0  0  0  0  0  0
   15.5052   25.7925   -6.2539 C   0  0  0  0  0  0  0  0  0  0  0  0
   15.3377   24.4918   -5.8403 C   0  0  0  0  0  0  0  0  0  0  0  0
   15.8119   28.2128   -5.8027 C   0  0  0  0  0  0  0  0  0  0  0  0
   16.5139   28.5100   -6.9397 O   0  0  0  0  0  0  0  0  0  0  0  0
   15.3116   29.1385   -5.1234 O   0  0  0  0  0  0  0  0  0  0  0  0
   17.1958   27.9298   -7.3957 H   0  0  0  0  0  0  0  0  0  0  0  0
   11.8865   21.6848    2.3814 C   0  0  0  0  0  0  0  0  0  0  0  0
   11.7150   21.7074    0.8815 C   0  0  0  0  0  0  0  0  0  0  0  0
   11.8506   23.1048    0.4173 C   0  0  0  0  0  0  0  0  0  0  0  0
   11.8174   23.3813   -0.9163 C   0  0  0  0  0  0  0  0  0  0  0  0
   11.9414   24.6733   -1.4152 C   0  0  0  0  0  0  0  0  0  0  0  0
   12.1038   25.7154   -0.5344 C   0  0  0  0  0  0  0  0  0  0  0  0
   12.1335   25.4037    0.8135 C   0  0  0  0  0  0  0  0  0  0  0  0
   12.0108   24.1449    1.2593 N   0  0  0  0  0  0  0  0  0  0  0  0
   10.3569   21.1445    0.5773 C   0  0  0  0  0  0  0  0  0  0  0  0
    9.2202   21.6719    1.1549 C   0  0  0  0  0  0  0  0  0  0  0  0
    7.9625   21.1799    0.8918 C   0  0  0  0  0  0  0  0  0  0  0  0
    7.8145   20.1232    0.0228 C   0  0  0  0  0  0  0  0  0  0  0  0
    8.9198   19.5625   -0.5792 C   0  0  0  0  0  0  0  0  0  0  0  0
   10.1659   20.0870   -0.2876 C   0  0  0  0  0  0  0  0  0  0  0  0
 22 21  1  0  0  0
 22  1  1  0  0  0
  1  2  1  0  0  0
  2  3  1  0  0  0
  3  4  1  0  0  0
  4  5  1  0  0  0
  4  6  1  0  0  0
  6  7  2  0  0  0
  7  8  1  0  0  0
  8  9  1  0  0  0
  9 10  2  0  0  0
  9 11  1  0  0  0
 11 12  2  0  0  0
 12 13  1  0  0  0
 13 14  2  0  0  0
 14 15  1  0  0  0
 15 16  2  0  0  0
 14 17  1  0  0  0
 17 18  1  0  0  0
 17 19  2  0  0  0
 22 23  1  0  0  0
 23 24  2  0  0  0
 24 25  1  0  0  0
 25 26  2  0  0  0
 26 27  1  0  0  0
 27 28  2  0  0  0
 22 29  1  0  0  0
 29 30  2  0  0  0
 30 31  1  0  0  0
 31 32  2  0  0  0
 32 33  1  0  0  0
 33 34  2  0  0  0
  5  1  1  0  0  0
 10  6  1  0  0  0
 16 11  1  0  0  0
 28 23  1  0  0  0
 34 29  1  0  0  0
 18 20  1  0  0  0
M  END
> <minimizedAffinity>
-2.59265

> <CNNscore>
0.5289083123

> <CNNaffinity>
7.3739585876

> <CNN_VS>
3.9001479149

> <CNNaffinity_variance>
0.2469773293

$$$$
[H]OC(=O)c1c([H])c([H])c(-c2nc([C@]3([H])C([H])([H])N([C@@](c4nc([H])c([H])c([H])c4[H])(c4c([H])c([H])c([H])c([H])c4[H])C([H])([H])[H])C([H])([H])C3([H])[H])no2)c([H])c1[H]


 34 38  0  0  0  0  0  0  0  0999 V2000
   15.5249   23.9837   -2.8310 N   0  0  0  0  0  0  0  0  0  0  0  0
   14.9724   22.7079   -3.0814 C   0  0  0  0  0  0  0  0  0  0  0  0
   15.3369   21.9688   -1.7802 C   0  0  0  0  0  0  0  0  0  0  0  0
   15.1756   23.0160   -0.7178 C   0  0  0  0  0  0  0  0  0  0  0  0
   15.1063   24.3095   -1.4937 C   0  0  0  0  0  0  0  0  0  0  0  0
   13.8749   22.7162   -0.0229 C   0  0  0  0  0  0  0  0  0  0  0  0
   13.6613   22.7574    1.3155 N   0  0  0  0  0  0  0  0  0  0  0  0
   12.4271   22.4423    1.5673 O   0  0  0  0  0  0  0  0  0  0  0  0
   11.8133   22.1931    0.4393 C   0  0  0  0  0  0  0  0  0  0  0  0
   12.6972   22.3582   -0.5594 N   0  0  0  0  0  0  0  0  0  0  0  0
   10.4123   21.7995    0.2395 C   0  0  0  0  0  0  0  0  0  0  0  0
    9.3873   22.5047    0.8347 C   0  0  0  0  0  0  0  0  0  0  0  0
    8.0607   22.1669    0.6715 C   0  0  0  0  0  0  0  0  0  0  0  0
    7.7077   21.0777   -0.1182 C   0  0  0  0  0  0  0  0  0  0  0  0
    8.7414   20.3802   -0.7081 C   0  0  0  0  0  0  0  0  0  0  0  0
   10.0617   20.7254   -0.5388 C   0  0  0  0  0  0  0  0  0  0  0  0
    6.3185   20.7156   -0.2930 C   0  0  0  0  0  0  0  0  0  0  0  0
    5.9596   19.4412   -0.6409 O   0  0  0  0  0  0  0  0  0  0  0  0
    5.4325   21.5844   -0.1229 O   0  0  0  0  0  0  0  0  0  0  0  0
    6.5396   18.7525   -1.0868 H   0  0  0  0  0  0  0  0  0  0  0  0
   15.3020   24.4588   -5.1933 C   0  0  0  0  0  0  0  0  0  0  0  0
   15.2653   25.0206   -3.7924 C   0  0  0  0  0  0  0  0  0  0  0  0
   13.9025   25.5313   -3.5301 C   0  0  0  0  0  0  0  0  0  0  0  0
   13.4389   26.6095   -4.2220 C   0  0  0  0  0  0  0  0  0  0  0  0
   12.1685   27.1377   -4.0196 C   0  0  0  0  0  0  0  0  0  0  0  0
   11.3447   26.5542   -3.0875 C   0  0  0  0  0  0  0  0  0  0  0  0
   11.8430   25.4611   -2.4008 C   0  0  0  0  0  0  0  0  0  0  0  0
   13.0743   24.9782   -2.6220 N   0  0  0  0  0  0  0  0  0  0  0  0
   16.2962   26.1094   -3.7189 C   0  0  0  0  0  0  0  0  0  0  0  0
   17.0463   26.3058   -2.5775 C   0  0  0  0  0  0  0  0  0  0  0  0
   18.0009   27.2923   -2.4825 C   0  0  0  0  0  0  0  0  0  0  0  0
   18.2290   28.1224   -3.5560 C   0  0  0  0  0  0  0  0  0  0  0  0
   17.5053   27.9655   -4.7180 C   0  0  0  0  0  0  0  0  0  0  0  0
   16.5554   26.9617   -4.7720 C   0  0  0  0  0  0  0  0  0  0  0  0
 22 21  1  0  0  0
 22  1  1  0  0  0
  1  2  1  0  0  0
  2  3  1  0  0  0
  3  4  1  0  0  0
  4  5  1  0  0  0
  4  6  1  0  0  0
  6  7  2  0  0  0
  7  8  1  0  0  0
  8  9  1  0  0  0
  9 10  2  0  0  0
  9 11  1  0  0  0
 11 12  2  0  0  0
 12 13  1  0  0  0
 13 14  2  0  0  0
 14 15  1  0  0  0
 15 16  2  0  0  0
 14 17  1  0  0  0
 17 18  1  0  0  0
 17 19  2  0  0  0
 22 23  1  0  0  0
 23 24  2  0  0  0
 24 25  1  0  0  0
 25 26  2  0  0  0
 26 27  1  0  0  0
 27 28  2  0  0  0
 22 29  1  0  0  0
 29 30  2  0  0  0
 30 31  1  0  0  0
 31 32  2  0  0  0
 32 33  1  0  0  0
 33 34  2  0  0  0
  5  1  1  0  0  0
 10  6  1  0  0  0
 16 11  1  0  0  0
 28 23  1  0  0  0
 34 29  1  0  0  0
 18 20  1  0  0  0
M  END
> <minimizedAffinity>
-1.27610

> <CNNscore>
0.5218253136

> <CNNaffinity>
7.7336740494

> <CNN_VS>
4.0356268883

> <CNNaffinity_variance>
1.0654332638

$$$$
[H]OC(=O)c1c([H])c([H])c(-c2nc([C@]3([H])C([H])([H])N([C@@](c4nc([H])c([H])c([H])c4[H])(c4c([H])c([H])c([H])c([H])c4[H])C([H])([H])[H])C([H])([H])C3([H])[H])no2)c([H])c1[H]


 34 38  0  0  0  0  0  0  0  0999 V2000
   15.3902   24.7800   -3.3583 N   0  0  0  0  0  0  0  0  0  0  0  0
   14.5797   23.7130   -3.8056 C   0  0  0  0  0  0  0  0  0  0  0  0
   14.9114   22.6327   -2.7591 C   0  0  0  0  0  0  0  0  0  0  0  0
   15.0550   23.4060   -1.4812 C   0  0  0  0  0  0  0  0  0  0  0  0
   15.1676   24.8407   -1.9384 C   0  0  0  0  0  0  0  0  0  0  0  0
   13.7903   23.1706   -0.7005 C   0  0  0  0  0  0  0  0  0  0  0  0
   13.5183   23.6555    0.5363 N   0  0  0  0  0  0  0  0  0  0  0  0
   12.3397   23.2574    0.9083 O   0  0  0  0  0  0  0  0  0  0  0  0
   11.8194   22.5236   -0.0415 C   0  0  0  0  0  0  0  0  0  0  0  0
   12.7064   22.4586   -1.0488 N   0  0  0  0  0  0  0  0  0  0  0  0
   10.5070   21.8640   -0.0589 C   0  0  0  0  0  0  0  0  0  0  0  0
    9.5919   22.0820    0.9498 C   0  0  0  0  0  0  0  0  0  0  0  0
    8.3508   21.4821    0.9691 C   0  0  0  0  0  0  0  0  0  0  0  0
    7.9752   20.6177   -0.0537 C   0  0  0  0  0  0  0  0  0  0  0  0
    8.8986   20.4074   -1.0568 C   0  0  0  0  0  0  0  0  0  0  0  0
   10.1343   21.0109   -1.0666 C   0  0  0  0  0  0  0  0  0  0  0  0
    6.6757   19.9828   -0.0399 C   0  0  0  0  0  0  0  0  0  0  0  0
    5.8764   19.9867   -1.1513 O   0  0  0  0  0  0  0  0  0  0  0  0
    6.2786   19.4220    1.0072 O   0  0  0  0  0  0  0  0  0  0  0  0
    5.9246   20.6251   -1.9257 H   0  0  0  0  0  0  0  0  0  0  0  0
   14.0209   26.7681   -3.5281 C   0  0  0  0  0  0  0  0  0  0  0  0
   15.2499   26.0459   -4.0254 C   0  0  0  0  0  0  0  0  0  0  0  0
   16.4382   26.8566   -3.6828 C   0  0  0  0  0  0  0  0  0  0  0  0
   16.7165   27.9842   -4.3950 C   0  0  0  0  0  0  0  0  0  0  0  0
   17.8189   28.7870   -4.1232 C   0  0  0  0  0  0  0  0  0  0  0  0
   18.6635   28.4349   -3.0982 C   0  0  0  0  0  0  0  0  0  0  0  0
   18.3550   27.2850   -2.3928 C   0  0  0  0  0  0  0  0  0  0  0  0
   17.2825   26.5342   -2.6830 N   0  0  0  0  0  0  0  0  0  0  0  0
   15.0981   25.8720   -5.5088 C   0  0  0  0  0  0  0  0  0  0  0  0
   15.8470   24.9404   -6.1983 C   0  0  0  0  0  0  0  0  0  0  0  0
   15.7265   24.7557   -7.5564 C   0  0  0  0  0  0  0  0  0  0  0  0
   14.8306   25.5195   -8.2690 C   0  0  0  0  0  0  0  0  0  0  0  0
   14.0600   26.4629   -7.6250 C   0  0  0  0  0  0  0  0  0  0  0  0
   14.2120   26.6168   -6.2589 C   0  0  0  0  0  0  0  0  0  0  0  0
 22 21  1  0  0  0
 22  1  1  0  0  0
  1  2  1  0  0  0
  2  3  1  0  0  0
  3  4  1  0  0  0
  4  5  1  0  0  0
  4  6  1  0  0  0
  6  7  2  0  0  0
  7  8  1  0  0  0
  8  9  1  0  0  0
  9 10  2  0  0  0
  9 11  1  0  0  0
 11 12  2  0  0  0
 12 13  1  0  0  0
 13 14  2  0  0  0
 14 15  1  0  0  0
 15 16  2  0  0  0
 14 17  1  0  0  0
 17 18  1  0  0  0
 17 19  2  0  0  0
 22 23  1  0  0  0
 23 24  2  0  0  0
 24 25  1  0  0  0
 25 26  2  0  0  0
 26 27  1  0  0  0
 27 28  2  0  0  0
 22 29  1  0  0  0
 29 30  2  0  0  0
 30 31  1  0  0  0
 31 32  2  0  0  0
 32 33  1  0  0  0
 33 34  2  0  0  0
  5  1  1  0  0  0
 10  6  1  0  0  0
 16 11  1  0  0  0
 28 23  1  0  0  0
 34 29  1  0  0  0
 18 20  1  0  0  0
M  END
> <minimizedAffinity>
-0.73410

> <CNNscore>
0.5032773018

> <CNNaffinity>
7.5206880569

> <CNN_VS>
3.7849915028

> <CNNaffinity_variance>
0.9194847941

$$$$
[H]OC(=O)c1c([H])c([H])c(-c2nc([C@]3([H])C([H])([H])N([C@@](c4nc([H])c([H])c([H])c4[H])(c4c([H])c([H])c([H])c([H])c4[H])C([H])([H])[H])C([H])([H])C3([H])[H])no2)c([H])c1[H]


 34 38  0  0  0  0  0  0  0  0999 V2000
   15.3113   24.9091   -3.4263 N   0  0  0  0  0  0  0  0  0  0  0  0
   14.3497   23.9212   -3.7338 C   0  0  0  0  0  0  0  0  0  0  0  0
   14.6914   22.8425   -2.6888 C   0  0  0  0  0  0  0  0  0  0  0  0
   15.0625   23.6328   -1.4685 C   0  0  0  0  0  0  0  0  0  0  0  0
   15.2652   25.0339   -1.9939 C   0  0  0  0  0  0  0  0  0  0  0  0
   13.8815   23.5548   -0.5392 C   0  0  0  0  0  0  0  0  0  0  0  0
   12.9028   24.4855   -0.4184 N   0  0  0  0  0  0  0  0  0  0  0  0
   12.0435   24.0975    0.4744 O   0  0  0  0  0  0  0  0  0  0  0  0
   12.4196   22.9387    0.9510 C   0  0  0  0  0  0  0  0  0  0  0  0
   13.5595   22.5859    0.3330 N   0  0  0  0  0  0  0  0  0  0  0  0
   11.7556   22.1241    1.9772 C   0  0  0  0  0  0  0  0  0  0  0  0
   12.3080   20.9341    2.4030 C   0  0  0  0  0  0  0  0  0  0  0  0
   11.7157   20.1419    3.3633 C   0  0  0  0  0  0  0  0  0  0  0  0
   10.5135   20.5288    3.9460 C   0  0  0  0  0  0  0  0  0  0  0  0
    9.9708   21.7205    3.5121 C   0  0  0  0  0  0  0  0  0  0  0  0
   10.5697   22.5035    2.5533 C   0  0  0  0  0  0  0  0  0  0  0  0
    9.8848   19.7025    4.9528 C   0  0  0  0  0  0  0  0  0  0  0  0
   10.4811   18.5525    5.3952 O   0  0  0  0  0  0  0  0  0  0  0  0
    8.7771   20.0475    5.4248 O   0  0  0  0  0  0  0  0  0  0  0  0
   11.1825   18.0150    4.9169 H   0  0  0  0  0  0  0  0  0  0  0  0
   14.0112   26.9366   -3.6616 C   0  0  0  0  0  0  0  0  0  0  0  0
   15.2223   26.1630   -4.1242 C   0  0  0  0  0  0  0  0  0  0  0  0
   16.4321   26.9420   -3.7831 C   0  0  0  0  0  0  0  0  0  0  0  0
   16.7553   28.0452   -4.5143 C   0  0  0  0  0  0  0  0  0  0  0  0
   17.8797   28.8176   -4.2447 C   0  0  0  0  0  0  0  0  0  0  0  0
   18.7001   28.4597   -3.2022 C   0  0  0  0  0  0  0  0  0  0  0  0
   18.3461   27.3350   -2.4778 C   0  0  0  0  0  0  0  0  0  0  0  0
   17.2534   26.6133   -2.7663 N   0  0  0  0  0  0  0  0  0  0  0  0
   15.0853   25.9595   -5.6053 C   0  0  0  0  0  0  0  0  0  0  0  0
   14.1507   26.6617   -6.3384 C   0  0  0  0  0  0  0  0  0  0  0  0
   14.0052   26.4995   -7.6970 C   0  0  0  0  0  0  0  0  0  0  0  0
   14.8134   25.6084   -8.3652 C   0  0  0  0  0  0  0  0  0  0  0  0
   15.7618   24.8838   -7.6767 C   0  0  0  0  0  0  0  0  0  0  0  0
   15.8756   25.0769   -6.3118 C   0  0  0  0  0  0  0  0  0  0  0  0
 22 21  1  0  0  0
 22  1  1  0  0  0
  1  2  1  0  0  0
  2  3  1  0  0  0
  3  4  1  0  0  0
  4  5  1  0  0  0
  4  6  1  0  0  0
  6  7  2  0  0  0
  7  8  1  0  0  0
  8  9  1  0  0  0
  9 10  2  0  0  0
  9 11  1  0  0  0
 11 12  2  0  0  0
 12 13  1  0  0  0
 13 14  2  0  0  0
 14 15  1  0  0  0
 15 16  2  0  0  0
 14 17  1  0  0  0
 17 18  1  0  0  0
 17 19  2  0  0  0
 22 23  1  0  0  0
 23 24  2  0  0  0
 24 25  1  0  0  0
 25 26  2  0  0  0
 26 27  1  0  0  0
 27 28  2  0  0  0
 22 29  1  0  0  0
 29 30  2  0  0  0
 30 31  1  0  0  0
 31 32  2  0  0  0
 32 33  1  0  0  0
 33 34  2  0  0  0
  5  1  1  0  0  0
 10  6  1  0  0  0
 16 11  1  0  0  0
 28 23  1  0  0  0
 34 29  1  0  0  0
 18 20  1  0  0  0
M  END
> <minimizedAffinity>
-1.10023

> <CNNscore>
0.5030075312

> <CNNaffinity>
7.3363060951

> <CNN_VS>
3.6902172565

> <CNNaffinity_variance>
0.6942949891

$$$$
[H]OC(=O)c1c([H])c([H])c(-c2nc([C@]3([H])C([H])([H])N([C@@](c4nc([H])c([H])c([H])c4[H])(c4c([H])c([H])c([H])c([H])c4[H])C([H])([H])[H])C([H])([H])C3([H])[H])no2)c([H])c1[H]


 34 38  0  0  0  0  0  0  0  0999 V2000
   10.1839   23.0931   -0.4352 N   0  0  0  0  0  0  0  0  0  0  0  0
   10.7060   23.5378   -1.6702 C   0  0  0  0  0  0  0  0  0  0  0  0
   11.0878   24.9890   -1.3229 C   0  0  0  0  0  0  0  0  0  0  0  0
   11.5987   24.8963    0.0849 C   0  0  0  0  0  0  0  0  0  0  0  0
   11.1370   23.5351    0.5475 C   0  0  0  0  0  0  0  0  0  0  0  0
   13.0990   24.9721   -0.0042 C   0  0  0  0  0  0  0  0  0  0  0  0
   13.9755   24.4295    0.8766 N   0  0  0  0  0  0  0  0  0  0  0  0
   15.1894   24.6866    0.4941 O   0  0  0  0  0  0  0  0  0  0  0  0
   15.1480   25.3827   -0.6127 C   0  0  0  0  0  0  0  0  0  0  0  0
   13.8575   25.5697   -0.9373 N   0  0  0  0  0  0  0  0  0  0  0  0
   16.2759   25.8949   -1.4020 C   0  0  0  0  0  0  0  0  0  0  0  0
   16.0669   26.7556   -2.4592 C   0  0  0  0  0  0  0  0  0  0  0  0
   17.0987   27.2577   -3.2235 C   0  0  0  0  0  0  0  0  0  0  0  0
   18.4140   26.9024   -2.9438 C   0  0  0  0  0  0  0  0  0  0  0  0
   18.6105   26.0411   -1.8843 C   0  0  0  0  0  0  0  0  0  0  0  0
   17.5742   25.5458   -1.1283 C   0  0  0  0  0  0  0  0  0  0  0  0
   19.5019   27.4232   -3.7419 C   0  0  0  0  0  0  0  0  0  0  0  0
   20.7900   27.0076   -3.5364 O   0  0  0  0  0  0  0  0  0  0  0  0
   19.2581   28.2679   -4.6339 O   0  0  0  0  0  0  0  0  0  0  0  0
   21.1623   26.5900   -2.7019 H   0  0  0  0  0  0  0  0  0  0  0  0
    8.3770   21.5572    0.0468 C   0  0  0  0  0  0  0  0  0  0  0  0
    9.8332   21.7033   -0.3239 C   0  0  0  0  0  0  0  0  0  0  0  0
   10.0400   21.0904   -1.6537 C   0  0  0  0  0  0  0  0  0  0  0  0
    9.0512   21.1529   -2.5890 C   0  0  0  0  0  0  0  0  0  0  0  0
    9.1841   20.5948   -3.8557 C   0  0  0  0  0  0  0  0  0  0  0  0
   10.3550   19.9545   -4.1826 C   0  0  0  0  0  0  0  0  0  0  0  0
   11.3408   19.9073   -3.2125 C   0  0  0  0  0  0  0  0  0  0  0  0
   11.1780   20.4569   -2.0003 N   0  0  0  0  0  0  0  0  0  0  0  0
   10.6379   21.0166    0.7414 C   0  0  0  0  0  0  0  0  0  0  0  0
   10.1144   19.9639    1.4637 C   0  0  0  0  0  0  0  0  0  0  0  0
   10.8294   19.3128    2.4425 C   0  0  0  0  0  0  0  0  0  0  0  0
   12.1155   19.7132    2.7243 C   0  0  0  0  0  0  0  0  0  0  0  0
   12.6822   20.7596    2.0299 C   0  0  0  0  0  0  0  0  0  0  0  0
   11.9294   21.3870    1.0538 C   0  0  0  0  0  0  0  0  0  0  0  0
 22 21  1  0  0  0
 22  1  1  0  0  0
  1  2  1  0  0  0
  2  3  1  0  0  0
  3  4  1  0  0  0
  4  5  1  0  0  0
  4  6  1  0  0  0
  6  7  2  0  0  0
  7  8  1  0  0  0
  8  9  1  0  0  0
  9 10  2  0  0  0
  9 11  1  0  0  0
 11 12  2  0  0  0
 12 13  1  0  0  0
 13 14  2  0  0  0
 14 15  1  0  0  0
 15 16  2  0  0  0
 14 17  1  0  0  0
 17 18  1  0  0  0
 17 19  2  0  0  0
 22 23  1  0  0  0
 23 24  2  0  0  0
 24 25  1  0  0  0
 25 26  2  0  0  0
 26 27  1  0  0  0
 27 28  2  0  0  0
 22 29  1  0  0  0
 29 30  2  0  0  0
 30 31  1  0  0  0
 31 32  2  0  0  0
 32 33  1  0  0  0
 33 34  2  0  0  0
  5  1  1  0  0  0
 10  6  1  0  0  0
 16 11  1  0  0  0
 28 23  1  0  0  0
 34 29  1  0  0  0
 18 20  1  0  0  0
M  END
> <minimizedAffinity>
20.07170

> <CNNscore>
0.5027297139

> <CNNaffinity>
7.3273458481

> <CNN_VS>
3.6836745739

> <CNNaffinity_variance>
2.1595847607

$$$$
[H]OC(=O)c1c([H])c([H])c(-c2nc([C@]3([H])C([H])([H])N([C@@](c4nc([H])c([H])c([H])c4[H])(c4c([H])c([H])c([H])c([H])c4[H])C([H])([H])[H])C([H])([H])C3([H])[H])no2)c([H])c1[H]


 34 38  0  0  0  0  0  0  0  0999 V2000
   15.6161   24.2451   -3.6725 N   0  0  0  0  0  0  0  0  0  0  0  0
   15.0673   23.0662   -4.2243 C   0  0  0  0  0  0  0  0  0  0  0  0
   15.3789   22.0477   -3.1117 C   0  0  0  0  0  0  0  0  0  0  0  0
   15.1827   22.8302   -1.8465 C   0  0  0  0  0  0  0  0  0  0  0  0
   15.1490   24.2663   -2.3121 C   0  0  0  0  0  0  0  0  0  0  0  0
   13.8553   22.3985   -1.2842 C   0  0  0  0  0  0  0  0  0  0  0  0
   13.1842   21.2666   -1.6113 N   0  0  0  0  0  0  0  0  0  0  0  0
   12.0752   21.2104   -0.9384 O   0  0  0  0  0  0  0  0  0  0  0  0
   11.9875   22.2687   -0.1744 C   0  0  0  0  0  0  0  0  0  0  0  0
   13.0845   23.0182   -0.3760 N   0  0  0  0  0  0  0  0  0  0  0  0
   10.9083   22.6259    0.7559 C   0  0  0  0  0  0  0  0  0  0  0  0
   10.7680   23.9193    1.2140 C   0  0  0  0  0  0  0  0  0  0  0  0
    9.7689   24.2938    2.0869 C   0  0  0  0  0  0  0  0  0  0  0  0
    8.8495   23.3549    2.5429 C   0  0  0  0  0  0  0  0  0  0  0  0
    8.9999   22.0649    2.0779 C   0  0  0  0  0  0  0  0  0  0  0  0
   10.0004   21.7017    1.2072 C   0  0  0  0  0  0  0  0  0  0  0  0
    7.7995   23.7393    3.4602 C   0  0  0  0  0  0  0  0  0  0  0  0
    8.0210   24.6752    4.4345 O   0  0  0  0  0  0  0  0  0  0  0  0
    6.6712   23.2052    3.3589 O   0  0  0  0  0  0  0  0  0  0  0  0
    8.9094   24.9506    4.8144 H   0  0  0  0  0  0  0  0  0  0  0  0
   15.4078   25.2301   -5.8731 C   0  0  0  0  0  0  0  0  0  0  0  0
   15.3979   25.4755   -4.3834 C   0  0  0  0  0  0  0  0  0  0  0  0
   14.0584   25.9718   -4.0011 C   0  0  0  0  0  0  0  0  0  0  0  0
   13.4340   25.4587   -2.9043 C   0  0  0  0  0  0  0  0  0  0  0  0
   12.1744   25.8821   -2.4947 C   0  0  0  0  0  0  0  0  0  0  0  0
   11.5296   26.8550   -3.2199 C   0  0  0  0  0  0  0  0  0  0  0  0
   12.1886   27.3570   -4.3283 C   0  0  0  0  0  0  0  0  0  0  0  0
   13.4041   26.9247   -4.6943 N   0  0  0  0  0  0  0  0  0  0  0  0
   16.4737   26.4799   -4.0875 C   0  0  0  0  0  0  0  0  0  0  0  0
   16.8596   27.4107   -5.0302 C   0  0  0  0  0  0  0  0  0  0  0  0
   17.8391   28.3457   -4.7860 C   0  0  0  0  0  0  0  0  0  0  0  0
   18.4673   28.3676   -3.5619 C   0  0  0  0  0  0  0  0  0  0  0  0
   18.1166   27.4584   -2.5879 C   0  0  0  0  0  0  0  0  0  0  0  0
   17.1271   26.5353   -2.8739 C   0  0  0  0  0  0  0  0  0  0  0  0
 22 21  1  0  0  0
 22  1  1  0  0  0
  1  2  1  0  0  0
  2  3  1  0  0  0
  3  4  1  0  0  0
  4  5  1  0  0  0
  4  6  1  0  0  0
  6  7  2  0  0  0
  7  8  1  0  0  0
  8  9  1  0  0  0
  9 10  2  0  0  0
  9 11  1  0  0  0
 11 12  2  0  0  0
 12 13  1  0  0  0
 13 14  2  0  0  0
 14 15  1  0  0  0
 15 16  2  0  0  0
 14 17  1  0  0  0
 17 18  1  0  0  0
 17 19  2  0  0  0
 22 23  1  0  0  0
 23 24  2  0  0  0
 24 25  1  0  0  0
 25 26  2  0  0  0
 26 27  1  0  0  0
 27 28  2  0  0  0
 22 29  1  0  0  0
 29 30  2  0  0  0
 30 31  1  0  0  0
 31 32  2  0  0  0
 32 33  1  0  0  0
 33 34  2  0  0  0
  5  1  1  0  0  0
 10  6  1  0  0  0
 16 11  1  0  0  0
 28 23  1  0  0  0
 34 29  1  0  0  0
 18 20  1  0  0  0
M  END
> <minimizedAffinity>
-1.25073

> <CNNscore>
0.4835647345

> <CNNaffinity>
7.2842087746

> <CNN_VS>
3.5223865509

> <CNNaffinity_variance>
0.4176853299

$$$$
[H]OC(=O)c1c([H])c([H])c(-c2nc([C@]3([H])C([H])([H])N([C@@](c4nc([H])c([H])c([H])c4[H])(c4c([H])c([H])c([H])c([H])c4[H])C([H])([H])[H])C([H])([H])C3([H])[H])no2)c([H])c1[H]


 34 38  0  0  0  0  0  0  0  0999 V2000
   12.2743   22.3502    1.5688 N   0  0  0  0  0  0  0  0  0  0  0  0
   12.9185   23.5956    1.3977 C   0  0  0  0  0  0  0  0  0  0  0  0
   14.3580   23.1427    1.0894 C   0  0  0  0  0  0  0  0  0  0  0  0
   14.1729   21.9090    0.2555 C   0  0  0  0  0  0  0  0  0  0  0  0
   12.7205   21.5500    0.4596 C   0  0  0  0  0  0  0  0  0  0  0  0
   14.4489   22.3152   -1.1669 C   0  0  0  0  0  0  0  0  0  0  0  0
   14.5146   21.4800   -2.2331 N   0  0  0  0  0  0  0  0  0  0  0  0
   14.7702   22.1657   -3.3057 O   0  0  0  0  0  0  0  0  0  0  0  0
   14.8764   23.4299   -2.9868 C   0  0  0  0  0  0  0  0  0  0  0  0
   14.6798   23.5417   -1.6622 N   0  0  0  0  0  0  0  0  0  0  0  0
   15.1585   24.5660   -3.8741 C   0  0  0  0  0  0  0  0  0  0  0  0
   15.4629   25.8084   -3.3581 C   0  0  0  0  0  0  0  0  0  0  0  0
   15.7336   26.8987   -4.1573 C   0  0  0  0  0  0  0  0  0  0  0  0
   15.7071   26.7749   -5.5424 C   0  0  0  0  0  0  0  0  0  0  0  0
   15.4014   25.5279   -6.0467 C   0  0  0  0  0  0  0  0  0  0  0  0
   15.1329   24.4466   -5.2405 C   0  0  0  0  0  0  0  0  0  0  0  0
   15.9880   27.9142   -6.3879 C   0  0  0  0  0  0  0  0  0  0  0  0
   15.8557   29.1927   -5.9167 O   0  0  0  0  0  0  0  0  0  0  0  0
   16.3577   27.7244   -7.5695 O   0  0  0  0  0  0  0  0  0  0  0  0
   15.3041   29.4912   -5.1317 H   0  0  0  0  0  0  0  0  0  0  0  0
   10.3339   23.7773    1.8012 C   0  0  0  0  0  0  0  0  0  0  0  0
   10.8475   22.3587    1.7453 C   0  0  0  0  0  0  0  0  0  0  0  0
   10.2552   21.6941    0.5645 C   0  0  0  0  0  0  0  0  0  0  0  0
    9.8999   20.3807    0.6342 C   0  0  0  0  0  0  0  0  0  0  0  0
    9.3405   19.6995   -0.4413 C   0  0  0  0  0  0  0  0  0  0  0  0
    9.1358   20.3714   -1.6223 C   0  0  0  0  0  0  0  0  0  0  0  0
    9.5063   21.7041   -1.6628 C   0  0  0  0  0  0  0  0  0  0  0  0
   10.0436   22.3294   -0.6052 N   0  0  0  0  0  0  0  0  0  0  0  0
   10.4478   21.6864    3.0267 C   0  0  0  0  0  0  0  0  0  0  0  0
   11.3465   20.9211    3.7413 C   0  0  0  0  0  0  0  0  0  0  0  0
   11.0102   20.2969    4.9205 C   0  0  0  0  0  0  0  0  0  0  0  0
    9.7350   20.4303    5.4201 C   0  0  0  0  0  0  0  0  0  0  0  0
    8.8019   21.1845    4.7425 C   0  0  0  0  0  0  0  0  0  0  0  0
    9.1808   21.7954    3.5610 C   0  0  0  0  0  0  0  0  0  0  0  0
 22 21  1  0  0  0
 22  1  1  0  0  0
  1  2  1  0  0  0
  2  3  1  0  0  0
  3  4  1  0  0  0
  4  5  1  0  0  0
  4  6  1  0  0  0
  6  7  2  0  0  0
  7  8  1  0  0  0
  8  9  1  0  0  0
  9 10  2  0  0  0
  9 11  1  0  0  0
 11 12  2  0  0  0
 12 13  1  0  0  0
 13 14  2  0  0  0
 14 15  1  0  0  0
 15 16  2  0  0  0
 14 17  1  0  0  0
 17 18  1  0  0  0
 17 19  2  0  0  0
 22 23  1  0  0  0
 23 24  2  0  0  0
 24 25  1  0  0  0
 25 26  2  0  0  0
 26 27  1  0  0  0
 27 28  2  0  0  0
 22 29  1  0  0  0
 29 30  2  0  0  0
 30 31  1  0  0  0
 31 32  2  0  0  0
 32 33  1  0  0  0
 33 34  2  0  0  0
  5  1  1  0  0  0
 10  6  1  0  0  0
 16 11  1  0  0  0
 28 23  1  0  0  0
 34 29  1  0  0  0
 18 20  1  0  0  0
M  END
> <minimizedAffinity>
-6.68677

> <CNNscore>
0.4783497453

> <CNNaffinity>
7.2392358780

> <CNN_VS>
3.4628865719

> <CNNaffinity_variance>
0.1530877799

$$$$
[H]OC(=O)c1c([H])c([H])c(-c2nc([C@]3([H])C([H])([H])N([C@@](c4nc([H])c([H])c([H])c4[H])(c4c([H])c([H])c([H])c([H])c4[H])C([H])([H])[H])C([H])([H])C3([H])[H])no2)c([H])c1[H]


 34 38  0  0  0  0  0  0  0  0999 V2000
   14.6172   21.6632   -1.7582 N   0  0  0  0  0  0  0  0  0  0  0  0
   15.9058   22.1637   -2.0487 C   0  0  0  0  0  0  0  0  0  0  0  0
   15.8734   22.1842   -3.5884 C   0  0  0  0  0  0  0  0  0  0  0  0
   14.4668   22.5958   -3.9103 C   0  0  0  0  0  0  0  0  0  0  0  0
   13.7307   22.4169   -2.6040 C   0  0  0  0  0  0  0  0  0  0  0  0
   14.5325   24.0435   -4.3157 C   0  0  0  0  0  0  0  0  0  0  0  0
   15.4103   24.5825   -5.1974 N   0  0  0  0  0  0  0  0  0  0  0  0
   15.1842   25.8562   -5.3104 O   0  0  0  0  0  0  0  0  0  0  0  0
   14.1842   26.1811   -4.5322 C   0  0  0  0  0  0  0  0  0  0  0  0
   13.7666   25.0677   -3.9063 N   0  0  0  0  0  0  0  0  0  0  0  0
   13.5836   27.5073   -4.3370 C   0  0  0  0  0  0  0  0  0  0  0  0
   12.2247   27.6479   -4.1477 C   0  0  0  0  0  0  0  0  0  0  0  0
   11.6237   28.8746   -3.9612 C   0  0  0  0  0  0  0  0  0  0  0  0
   12.3892   30.0358   -3.9582 C   0  0  0  0  0  0  0  0  0  0  0  0
   13.7469   29.8826   -4.1485 C   0  0  0  0  0  0  0  0  0  0  0  0
   14.3365   28.6542   -4.3337 C   0  0  0  0  0  0  0  0  0  0  0  0
   11.7662   31.3267   -3.7650 C   0  0  0  0  0  0  0  0  0  0  0  0
   11.6645   31.8818   -2.5178 O   0  0  0  0  0  0  0  0  0  0  0  0
   11.3136   31.9434   -4.7567 O   0  0  0  0  0  0  0  0  0  0  0  0
   11.7024   31.3978   -1.6381 H   0  0  0  0  0  0  0  0  0  0  0  0
   14.9285   20.5089    0.3459 C   0  0  0  0  0  0  0  0  0  0  0  0
   14.2147   21.6248   -0.3785 C   0  0  0  0  0  0  0  0  0  0  0  0
   14.6173   22.9101    0.2321 C   0  0  0  0  0  0  0  0  0  0  0  0
   15.9070   23.0959    0.6300 C   0  0  0  0  0  0  0  0  0  0  0  0
   16.3466   24.2799    1.2119 C   0  0  0  0  0  0  0  0  0  0  0  0
   15.4506   25.3054    1.3953 C   0  0  0  0  0  0  0  0  0  0  0  0
   14.1483   25.0873    0.9813 C   0  0  0  0  0  0  0  0  0  0  0  0
   13.7593   23.9317    0.4234 N   0  0  0  0  0  0  0  0  0  0  0  0
   12.7404   21.3766   -0.2423 C   0  0  0  0  0  0  0  0  0  0  0  0
   12.1867   20.1609   -0.5883 C   0  0  0  0  0  0  0  0  0  0  0  0
   10.8403   19.9031   -0.4704 C   0  0  0  0  0  0  0  0  0  0  0  0
   10.0006   20.8823    0.0088 C   0  0  0  0  0  0  0  0  0  0  0  0
   10.5063   22.1127    0.3676 C   0  0  0  0  0  0  0  0  0  0  0  0
   11.8655   22.3308    0.2337 C   0  0  0  0  0  0  0  0  0  0  0  0
 22 21  1  0  0  0
 22  1  1  0  0  0
  1  2  1  0  0  0
  2  3  1  0  0  0
  3  4  1  0  0  0
  4  5  1  0  0  0
  4  6  1  0  0  0
  6  7  2  0  0  0
  7  8  1  0  0  0
  8  9  1  0  0  0
  9 10  2  0  0  0
  9 11  1  0  0  0
 11 12  2  0  0  0
 12 13  1  0  0  0
 13 14  2  0  0  0
 14 15  1  0  0  0
 15 16  2  0  0  0
 14 17  1  0  0  0
 17 18  1  0  0  0
 17 19  2  0  0  0
 22 23  1  0  0  0
 23 24  2  0  0  0
 24 25  1  0  0  0
 25 26  2  0  0  0
 26 27  1  0  0  0
 27 28  2  0  0  0
 22 29  1  0  0  0
 29 30  2  0  0  0
 30 31  1  0  0  0
 31 32  2  0  0  0
 32 33  1  0  0  0
 33 34  2  0  0  0
  5  1  1  0  0  0
 10  6  1  0  0  0
 16 11  1  0  0  0
 28 23  1  0  0  0
 34 29  1  0  0  0
 18 20  1  0  0  0
M  END
> <minimizedAffinity>
14.19805

> <CNNscore>
0.4656124413

> <CNNaffinity>
7.2979087830

> <CNN_VS>
3.3979971409

> <CNNaffinity_variance>
1.5571420193

$$$$
[H]OC(=O)[C@]1([H])[C@]([H])(O[H])[C@@]([H])(O[H])C(=O)[C@@]([H])(O[H])[C@@]2([H])N(C(=O)[C@]1([H])O[H])[C@@]([H])(C([H])([H])C([H])([H])C([H])([H])[C@]([H])(N([H])[H])C([H])([H])[H])/C(=C(/[H])C([H])([H])[H])C([H])([H])C2([H])[H]


 37 38  0  0  0  0  0  0  0  0999 V2000
   10.6067   24.2245    0.8142 C   0  0  0  0  0  0  0  0  0  0  0  0
   10.8430   22.8478    1.2865 C   0  0  0  0  0  0  0  0  0  0  0  0
   12.0942   22.5201    1.7194 O   0  0  0  0  0  0  0  0  0  0  0  0
   10.4066   21.7883    0.2723 C   0  0  0  0  0  0  0  0  0  0  0  0
    9.0204   21.6669    0.2141 O   0  0  0  0  0  0  0  0  0  0  0  0
   10.9678   22.0891   -1.0764 C   0  0  0  0  0  0  0  0  0  0  0  0
   10.1928   22.2867   -1.9933 O   0  0  0  0  0  0  0  0  0  0  0  0
   12.4325   22.1531   -1.3279 C   0  0  0  0  0  0  0  0  0  0  0  0
   12.7042   21.2658   -2.3655 O   0  0  0  0  0  0  0  0  0  0  0  0
   12.8824   23.5739   -1.6636 C   0  0  0  0  0  0  0  0  0  0  0  0
   13.4402   23.6086   -3.0298 C   0  0  0  0  0  0  0  0  0  0  0  0
   14.9452   23.5073   -3.1467 C   0  0  0  0  0  0  0  0  0  0  0  0
   15.4494   24.4864   -2.1423 C   0  0  0  0  0  0  0  0  0  0  0  0
   16.0377   25.5821   -2.5695 C   0  0  0  0  0  0  0  0  0  0  0  0
   16.5326   26.5448   -1.5283 C   0  0  0  0  0  0  0  0  0  0  0  0
   15.1800   24.1560   -0.7560 C   0  0  0  0  0  0  0  0  0  0  0  0
   13.6754   24.1409   -0.6067 N   0  0  0  0  0  0  0  0  0  0  0  0
   13.0851   24.6755    0.5425 C   0  0  0  0  0  0  0  0  0  0  0  0
   13.8640   24.7299    1.5668 O   0  0  0  0  0  0  0  0  0  0  0  0
   11.7233   25.1768    0.7393 C   0  0  0  0  0  0  0  0  0  0  0  0
   11.6541   25.9993    1.9023 O   0  0  0  0  0  0  0  0  0  0  0  0
   12.1653   22.2490    2.6634 H   0  0  0  0  0  0  0  0  0  0  0  0
    8.6883   21.3834   -0.6523 H   0  0  0  0  0  0  0  0  0  0  0  0
   12.9926   20.3785   -2.0449 H   0  0  0  0  0  0  0  0  0  0  0  0
   12.5965   26.3455    2.0004 H   0  0  0  0  0  0  0  0  0  0  0  0
    9.7387   25.6627    2.5813 O   0  0  0  0  0  0  0  0  0  0  0  0
    9.5146   24.8678    1.6414 C   0  0  0  0  0  0  0  0  0  0  0  0
    8.1686   24.5866    1.3750 O   0  0  0  0  0  0  0  0  0  0  0  0
    7.6523   24.2036    2.1800 H   0  0  0  0  0  0  0  0  0  0  0  0
   15.7346   22.9182   -0.2109 C   0  0  0  0  0  0  0  0  0  0  0  0
   15.4258   21.6037   -0.8150 C   0  0  0  0  0  0  0  0  0  0  0  0
   15.2000   20.4293    0.0497 C   0  0  0  0  0  0  0  0  0  0  0  0
   13.7783   20.5463    0.6521 C   0  0  0  0  0  0  0  0  0  0  0  0
   12.8757   19.5215    0.0301 C   0  0  0  0  0  0  0  0  0  0  0  0
   13.8550   20.4508    2.0839 N   0  0  0  0  0  0  0  0  0  0  0  0
   13.6363   19.5105    2.4567 H   0  0  0  0  0  0  0  0  0  0  0  0
   14.7984   20.8106    2.3848 H   0  0  0  0  0  0  0  0  0  0  0  0
 26 27  2  0  0  0
 27 28  1  0  0  0
 27  1  1  0  0  0
  1  2  1  0  0  0
  2  3  1  0  0  0
  2  4  1  0  0  0
  4  5  1  0  0  0
  4  6  1  0  0  0
  6  7  2  0  0  0
  6  8  1  0  0  0
  8  9  1  0  0  0
  8 10  1  0  0  0
 10 11  1  0  0  0
 11 12  1  0  0  0
 12 13  1  0  0  0
 13 14  2  0  0  0
 14 15  1  0  0  0
 13 16  1  0  0  0
 16 30  1  0  0  0
 30 31  1  0  0  0
 31 32  1  0  0  0
 32 33  1  0  0  0
 33 34  1  0  0  0
 33 35  1  0  0  0
 10 17  1  0  0  0
 17 18  1  0  0  0
 18 19  2  0  0  0
 18 20  1  0  0  0
 20 21  1  0  0  0
 20  1  1  0  0  0
 17 16  1  0  0  0
 28 29  1  0  0  0
  3 22  1  0  0  0
  5 23  1  0  0  0
  9 24  1  0  0  0
 35 36  1  0  0  0
 35 37  1  0  0  0
 21 25  1  0  0  0
M  END
> <minimizedAffinity>
1.16957

> <CNNscore>
0.5537978411

> <CNNaffinity>
6.7488489151

> <CNN_VS>
3.7374980450

> <CNNaffinity_variance>
0.7419276834

$$$$
[H]OC(=O)[C@]1([H])[C@]([H])(O[H])[C@@]([H])(O[H])C(=O)[C@@]([H])(O[H])[C@@]2([H])N(C(=O)[C@]1([H])O[H])[C@@]([H])(C([H])([H])C([H])([H])C([H])([H])[C@]([H])(N([H])[H])C([H])([H])[H])/C(=C(/[H])C([H])([H])[H])C([H])([H])C2([H])[H]


 37 38  0  0  0  0  0  0  0  0999 V2000
   12.6846   21.8296   -0.5175 C   0  0  0  0  0  0  0  0  0  0  0  0
   12.2739   22.6379   -1.6803 C   0  0  0  0  0  0  0  0  0  0  0  0
   13.2349   23.0308   -2.5647 O   0  0  0  0  0  0  0  0  0  0  0  0
   11.4653   23.8762   -1.2877 C   0  0  0  0  0  0  0  0  0  0  0  0
   10.1696   23.5466   -0.8976 O   0  0  0  0  0  0  0  0  0  0  0  0
   12.1624   24.6402   -0.2131 C   0  0  0  0  0  0  0  0  0  0  0  0
   11.5944   24.7863    0.8530 O   0  0  0  0  0  0  0  0  0  0  0  0
   13.5177   25.2218   -0.4072 C   0  0  0  0  0  0  0  0  0  0  0  0
   13.4216   26.5792   -0.1140 O   0  0  0  0  0  0  0  0  0  0  0  0
   14.5580   24.5244    0.4676 C   0  0  0  0  0  0  0  0  0  0  0  0
   15.1366   25.4931    1.4192 C   0  0  0  0  0  0  0  0  0  0  0  0
   16.4497   26.1293    1.0194 C   0  0  0  0  0  0  0  0  0  0  0  0
   17.2846   24.9780    0.5730 C   0  0  0  0  0  0  0  0  0  0  0  0
   18.3112   24.6192    1.3121 C   0  0  0  0  0  0  0  0  0  0  0  0
   19.1289   23.4550    0.8304 C   0  0  0  0  0  0  0  0  0  0  0  0
   16.8349   24.3090   -0.6327 C   0  0  0  0  0  0  0  0  0  0  0  0
   15.4698   23.7392   -0.3194 N   0  0  0  0  0  0  0  0  0  0  0  0
   15.1205   22.4704   -0.7918 C   0  0  0  0  0  0  0  0  0  0  0  0
   15.7973   22.0767   -1.8144 O   0  0  0  0  0  0  0  0  0  0  0  0
   14.1072   21.5396   -0.2906 C   0  0  0  0  0  0  0  0  0  0  0  0
   14.3512   20.2216   -0.7775 O   0  0  0  0  0  0  0  0  0  0  0  0
   13.1373   22.6923   -3.4843 H   0  0  0  0  0  0  0  0  0  0  0  0
    9.7870   24.1611   -0.2515 H   0  0  0  0  0  0  0  0  0  0  0  0
   13.2784   27.1351   -0.9164 H   0  0  0  0  0  0  0  0  0  0  0  0
   15.3445   20.2172   -0.9529 H   0  0  0  0  0  0  0  0  0  0  0  0
   12.4251   19.4473   -0.0681 O   0  0  0  0  0  0  0  0  0  0  0  0
   11.9468   20.5081   -0.5278 C   0  0  0  0  0  0  0  0  0  0  0  0
   10.6585   20.4230   -1.0709 O   0  0  0  0  0  0  0  0  0  0  0  0
   10.5685   19.7351   -1.8325 H   0  0  0  0  0  0  0  0  0  0  0  0
   16.7675   25.0761   -1.8752 C   0  0  0  0  0  0  0  0  0  0  0  0
   15.5740   25.8785   -2.2217 C   0  0  0  0  0  0  0  0  0  0  0  0
   15.6759   26.9570   -3.2240 C   0  0  0  0  0  0  0  0  0  0  0  0
   16.1656   26.3296   -4.5522 C   0  0  0  0  0  0  0  0  0  0  0  0
   15.0923   25.4527   -5.1274 C   0  0  0  0  0  0  0  0  0  0  0  0
   16.5960   27.3709   -5.4442 N   0  0  0  0  0  0  0  0  0  0  0  0
   15.8901   27.6394   -6.1517 H   0  0  0  0  0  0  0  0  0  0  0  0
   16.9327   28.1813   -4.8613 H   0  0  0  0  0  0  0  0  0  0  0  0
 26 27  2  0  0  0
 27 28  1  0  0  0
 27  1  1  0  0  0
  1  2  1  0  0  0
  2  3  1  0  0  0
  2  4  1  0  0  0
  4  5  1  0  0  0
  4  6  1  0  0  0
  6  7  2  0  0  0
  6  8  1  0  0  0
  8  9  1  0  0  0
  8 10  1  0  0  0
 10 11  1  0  0  0
 11 12  1  0  0  0
 12 13  1  0  0  0
 13 14  2  0  0  0
 14 15  1  0  0  0
 13 16  1  0  0  0
 16 30  1  0  0  0
 30 31  1  0  0  0
 31 32  1  0  0  0
 32 33  1  0  0  0
 33 34  1  0  0  0
 33 35  1  0  0  0
 10 17  1  0  0  0
 17 18  1  0  0  0
 18 19  2  0  0  0
 18 20  1  0  0  0
 20 21  1  0  0  0
 20  1  1  0  0  0
 17 16  1  0  0  0
 28 29  1  0  0  0
  3 22  1  0  0  0
  5 23  1  0  0  0
  9 24  1  0  0  0
 35 36  1  0  0  0
 35 37  1  0  0  0
 21 25  1  0  0  0
M  END
> <minimizedAffinity>
6.95751

> <CNNscore>
0.4761044979

> <CNNaffinity>
6.7612481117

> <CNN_VS>
3.2190606594

> <CNNaffinity_variance>
1.5111587048

$$$$
[H]OC(=O)[C@]1([H])[C@]([H])(O[H])[C@@]([H])(O[H])C(=O)[C@@]([H])(O[H])[C@@]2([H])N(C(=O)[C@]1([H])O[H])[C@@]([H])(C([H])([H])C([H])([H])C([H])([H])[C@]([H])(N([H])[H])C([H])([H])[H])/C(=C(/[H])C([H])([H])[H])C([H])([H])C2([H])[H]


 37 38  0  0  0  0  0  0  0  0999 V2000
   14.7272   25.3887   -4.5584 C   0  0  0  0  0  0  0  0  0  0  0  0
   14.8610   26.5689   -3.6846 C   0  0  0  0  0  0  0  0  0  0  0  0
   15.5448   26.4299   -2.5128 O   0  0  0  0  0  0  0  0  0  0  0  0
   13.5174   27.2285   -3.3667 C   0  0  0  0  0  0  0  0  0  0  0  0
   13.0155   27.9339   -4.4577 O   0  0  0  0  0  0  0  0  0  0  0  0
   12.5319   26.2132   -2.8953 C   0  0  0  0  0  0  0  0  0  0  0  0
   11.5130   26.0541   -3.5411 O   0  0  0  0  0  0  0  0  0  0  0  0
   12.7584   25.3991   -1.6711 C   0  0  0  0  0  0  0  0  0  0  0  0
   11.6520   25.5895   -0.8479 O   0  0  0  0  0  0  0  0  0  0  0  0
   12.9674   23.9241   -2.0089 C   0  0  0  0  0  0  0  0  0  0  0  0
   11.8934   23.1173   -1.3969 C   0  0  0  0  0  0  0  0  0  0  0  0
   12.2109   22.4695   -0.0670 C   0  0  0  0  0  0  0  0  0  0  0  0
   13.5444   21.8399   -0.2842 C   0  0  0  0  0  0  0  0  0  0  0  0
   13.6238   20.5279   -0.3224 C   0  0  0  0  0  0  0  0  0  0  0  0
   14.9838   19.9298   -0.5431 C   0  0  0  0  0  0  0  0  0  0  0  0
   14.6438   22.7609   -0.4997 C   0  0  0  0  0  0  0  0  0  0  0  0
   14.3249   23.5144   -1.7712 N   0  0  0  0  0  0  0  0  0  0  0  0
   15.3432   23.7952   -2.6873 C   0  0  0  0  0  0  0  0  0  0  0  0
   16.5292   23.7912   -2.1850 O   0  0  0  0  0  0  0  0  0  0  0  0
   15.2493   24.0872   -4.1192 C   0  0  0  0  0  0  0  0  0  0  0  0
   16.5137   23.9051   -4.7530 O   0  0  0  0  0  0  0  0  0  0  0  0
   16.3576   26.9784   -2.4216 H   0  0  0  0  0  0  0  0  0  0  0  0
   12.0467   27.9794   -4.4823 H   0  0  0  0  0  0  0  0  0  0  0  0
   11.7939   26.2945   -0.1726 H   0  0  0  0  0  0  0  0  0  0  0  0
   16.9793   23.2363   -4.1584 H   0  0  0  0  0  0  0  0  0  0  0  0
   15.2251   24.9209   -6.8988 O   0  0  0  0  0  0  0  0  0  0  0  0
   15.3293   25.6864   -5.9147 C   0  0  0  0  0  0  0  0  0  0  0  0
   16.0491   26.8698   -6.1234 O   0  0  0  0  0  0  0  0  0  0  0  0
   17.0140   26.7219   -6.4524 H   0  0  0  0  0  0  0  0  0  0  0  0
   14.9771   23.7128    0.5584 C   0  0  0  0  0  0  0  0  0  0  0  0
   16.2816   23.6659    1.2544 C   0  0  0  0  0  0  0  0  0  0  0  0
   17.3502   24.6137    0.8832 C   0  0  0  0  0  0  0  0  0  0  0  0
   18.7065   23.9870    1.2899 C   0  0  0  0  0  0  0  0  0  0  0  0
   19.6306   23.9615    0.1079 C   0  0  0  0  0  0  0  0  0  0  0  0
   19.2407   24.6934    2.4216 N   0  0  0  0  0  0  0  0  0  0  0  0
   19.9548   25.4019    2.1785 H   0  0  0  0  0  0  0  0  0  0  0  0
   18.4329   25.0861    2.9721 H   0  0  0  0  0  0  0  0  0  0  0  0
 26 27  2  0  0  0
 27 28  1  0  0  0
 27  1  1  0  0  0
  1  2  1  0  0  0
  2  3  1  0  0  0
  2  4  1  0  0  0
  4  5  1  0  0  0
  4  6  1  0  0  0
  6  7  2  0  0  0
  6  8  1  0  0  0
  8  9  1  0  0  0
  8 10  1  0  0  0
 10 11  1  0  0  0
 11 12  1  0  0  0
 12 13  1  0  0  0
 13 14  2  0  0  0
 14 15  1  0  0  0
 13 16  1  0  0  0
 16 30  1  0  0  0
 30 31  1  0  0  0
 31 32  1  0  0  0
 32 33  1  0  0  0
 33 34  1  0  0  0
 33 35  1  0  0  0
 10 17  1  0  0  0
 17 18  1  0  0  0
 18 19  2  0  0  0
 18 20  1  0  0  0
 20 21  1  0  0  0
 20  1  1  0  0  0
 17 16  1  0  0  0
 28 29  1  0  0  0
  3 22  1  0  0  0
  5 23  1  0  0  0
  9 24  1  0  0  0
 35 36  1  0  0  0
 35 37  1  0  0  0
 21 25  1  0  0  0
M  END
> <minimizedAffinity>
4.22567

> <CNNscore>
0.4655086398

> <CNNaffinity>
6.4318070412

> <CNN_VS>
2.9940617085

> <CNNaffinity_variance>
0.7859532237

$$$$
[H]OC(=O)[C@]1([H])[C@]([H])(O[H])[C@@]([H])(O[H])C(=O)[C@@]([H])(O[H])[C@@]2([H])N(C(=O)[C@]1([H])O[H])[C@@]([H])(C([H])([H])C([H])([H])C([H])([H])[C@]([H])(N([H])[H])C([H])([H])[H])/C(=C(/[H])C([H])([H])[H])C([H])([H])C2([H])[H]


 37 38  0  0  0  0  0  0  0  0999 V2000
   16.5940   26.6290   -3.4734 C   0  0  0  0  0  0  0  0  0  0  0  0
   15.3353   26.9695   -4.1618 C   0  0  0  0  0  0  0  0  0  0  0  0
   14.1630   26.7937   -3.4872 O   0  0  0  0  0  0  0  0  0  0  0  0
   15.1985   26.2850   -5.5234 C   0  0  0  0  0  0  0  0  0  0  0  0
   16.0279   26.8646   -6.4803 O   0  0  0  0  0  0  0  0  0  0  0  0
   15.4683   24.8228   -5.4061 C   0  0  0  0  0  0  0  0  0  0  0  0
   16.3943   24.3538   -6.0410 O   0  0  0  0  0  0  0  0  0  0  0  0
   14.6455   23.9327   -4.5440 C   0  0  0  0  0  0  0  0  0  0  0  0
   14.1781   22.9025   -5.3552 O   0  0  0  0  0  0  0  0  0  0  0  0
   15.4485   23.4016   -3.3580 C   0  0  0  0  0  0  0  0  0  0  0  0
   15.5411   21.9306   -3.4396 C   0  0  0  0  0  0  0  0  0  0  0  0
   14.5349   21.1454   -2.6272 C   0  0  0  0  0  0  0  0  0  0  0  0
   14.5750   21.7921   -1.2848 C   0  0  0  0  0  0  0  0  0  0  0  0
   15.0914   21.1230   -0.2775 C   0  0  0  0  0  0  0  0  0  0  0  0
   15.1146   21.8070    1.0595 C   0  0  0  0  0  0  0  0  0  0  0  0
   14.0843   23.1559   -1.2320 C   0  0  0  0  0  0  0  0  0  0  0  0
   14.9990   23.9720   -2.1171 N   0  0  0  0  0  0  0  0  0  0  0  0
   15.3917   25.2532   -1.7180 C   0  0  0  0  0  0  0  0  0  0  0  0
   14.6049   25.8111   -0.8645 O   0  0  0  0  0  0  0  0  0  0  0  0
   16.5586   26.0367   -2.1290 C   0  0  0  0  0  0  0  0  0  0  0  0
   16.8106   27.0881   -1.1990 O   0  0  0  0  0  0  0  0  0  0  0  0
   13.6323   27.6078   -3.3281 H   0  0  0  0  0  0  0  0  0  0  0  0
   16.3171   26.2490   -7.1723 H   0  0  0  0  0  0  0  0  0  0  0  0
   13.2739   23.0746   -5.7100 H   0  0  0  0  0  0  0  0  0  0  0  0
   16.4118   26.7410   -0.3399 H   0  0  0  0  0  0  0  0  0  0  0  0
   18.7062   27.8270   -3.6926 O   0  0  0  0  0  0  0  0  0  0  0  0
   17.4876   27.8489   -3.4099 C   0  0  0  0  0  0  0  0  0  0  0  0
   16.9643   29.0879   -3.0190 O   0  0  0  0  0  0  0  0  0  0  0  0
   17.4369   29.5053   -2.2044 H   0  0  0  0  0  0  0  0  0  0  0  0
   12.6937   23.4141   -1.6014 C   0  0  0  0  0  0  0  0  0  0  0  0
   11.5721   22.7971   -0.8601 C   0  0  0  0  0  0  0  0  0  0  0  0
   10.8018   21.6959   -1.4700 C   0  0  0  0  0  0  0  0  0  0  0  0
   10.6491   20.5765   -0.4111 C   0  0  0  0  0  0  0  0  0  0  0  0
   11.5124   20.8794    0.7783 C   0  0  0  0  0  0  0  0  0  0  0  0
    9.2593   20.4115   -0.0852 N   0  0  0  0  0  0  0  0  0  0  0  0
    8.9694   20.8928    0.7839 H   0  0  0  0  0  0  0  0  0  0  0  0
    8.6912   20.6910   -0.9272 H   0  0  0  0  0  0  0  0  0  0  0  0
 26 27  2  0  0  0
 27 28  1  0  0  0
 27  1  1  0  0  0
  1  2  1  0  0  0
  2  3  1  0  0  0
  2  4  1  0  0  0
  4  5  1  0  0  0
  4  6  1  0  0  0
  6  7  2  0  0  0
  6  8  1  0  0  0
  8  9  1  0  0  0
  8 10  1  0  0  0
 10 11  1  0  0  0
 11 12  1  0  0  0
 12 13  1  0  0  0
 13 14  2  0  0  0
 14 15  1  0  0  0
 13 16  1  0  0  0
 16 30  1  0  0  0
 30 31  1  0  0  0
 31 32  1  0  0  0
 32 33  1  0  0  0
 33 34  1  0  0  0
 33 35  1  0  0  0
 10 17  1  0  0  0
 17 18  1  0  0  0
 18 19  2  0  0  0
 18 20  1  0  0  0
 20 21  1  0  0  0
 20  1  1  0  0  0
 17 16  1  0  0  0
 28 29  1  0  0  0
  3 22  1  0  0  0
  5 23  1  0  0  0
  9 24  1  0  0  0
 35 36  1  0  0  0
 35 37  1  0  0  0
 21 25  1  0  0  0
M  END
> <minimizedAffinity>
1.25987

> <CNNscore>
0.4450172782

> <CNNaffinity>
6.3622102737

> <CNN_VS>
2.8312935829

> <CNNaffinity_variance>
0.8050157428

$$$$
[H]OC(=O)[C@]1([H])[C@]([H])(O[H])[C@@]([H])(O[H])C(=O)[C@@]([H])(O[H])[C@@]2([H])N(C(=O)[C@]1([H])O[H])[C@@]([H])(C([H])([H])C([H])([H])C([H])([H])[C@]([H])(N([H])[H])C([H])([H])[H])/C(=C(/[H])C([H])([H])[H])C([H])([H])C2([H])[H]


 37 38  0  0  0  0  0  0  0  0999 V2000
   14.6502   25.4154   -3.8828 C   0  0  0  0  0  0  0  0  0  0  0  0
   14.3612   26.5015   -2.9282 C   0  0  0  0  0  0  0  0  0  0  0  0
   14.7600   26.3454   -1.6333 O   0  0  0  0  0  0  0  0  0  0  0  0
   12.8857   26.9066   -2.9176 C   0  0  0  0  0  0  0  0  0  0  0  0
   12.5412   27.6383   -4.0514 O   0  0  0  0  0  0  0  0  0  0  0  0
   12.0120   25.7059   -2.7780 C   0  0  0  0  0  0  0  0  0  0  0  0
   11.2207   25.4607   -3.6692 O   0  0  0  0  0  0  0  0  0  0  0  0
   12.0811   24.8104   -1.5922 C   0  0  0  0  0  0  0  0  0  0  0  0
   10.7949   24.7373   -1.0647 O   0  0  0  0  0  0  0  0  0  0  0  0
   12.6221   23.4305   -1.9622 C   0  0  0  0  0  0  0  0  0  0  0  0
   11.5936   22.4058   -1.6955 C   0  0  0  0  0  0  0  0  0  0  0  0
   11.6950   21.6764   -0.3739 C   0  0  0  0  0  0  0  0  0  0  0  0
   13.1316   21.2883   -0.2879 C   0  0  0  0  0  0  0  0  0  0  0  0
   13.4486   20.0164   -0.3906 C   0  0  0  0  0  0  0  0  0  0  0  0
   14.9059   19.6638   -0.2992 C   0  0  0  0  0  0  0  0  0  0  0  0
   14.0699   22.3866   -0.1579 C   0  0  0  0  0  0  0  0  0  0  0  0
   13.9345   23.2135   -1.4165 N   0  0  0  0  0  0  0  0  0  0  0  0
   15.0753   23.7455   -2.0252 C   0  0  0  0  0  0  0  0  0  0  0  0
   16.0891   23.8719   -1.2410 O   0  0  0  0  0  0  0  0  0  0  0  0
   15.2746   24.1712   -3.4122 C   0  0  0  0  0  0  0  0  0  0  0  0
   16.6652   24.2566   -3.7164 O   0  0  0  0  0  0  0  0  0  0  0  0
   15.4175   27.0005   -1.3040 H   0  0  0  0  0  0  0  0  0  0  0  0
   11.6137   27.5353   -4.3170 H   0  0  0  0  0  0  0  0  0  0  0  0
   10.6450   25.3793   -0.3308 H   0  0  0  0  0  0  0  0  0  0  0  0
   17.0867   23.6083   -3.0686 H   0  0  0  0  0  0  0  0  0  0  0  0
   16.2086   26.9705   -4.9303 O   0  0  0  0  0  0  0  0  0  0  0  0
   15.4953   25.9466   -5.0205 C   0  0  0  0  0  0  0  0  0  0  0  0
   15.5093   25.2884   -6.2568 O   0  0  0  0  0  0  0  0  0  0  0  0
   15.2302   25.8814   -7.0515 H   0  0  0  0  0  0  0  0  0  0  0  0
   13.9679   23.2597    1.0101 C   0  0  0  0  0  0  0  0  0  0  0  0
   12.6551   23.6968    1.5333 C   0  0  0  0  0  0  0  0  0  0  0  0
   11.7940   22.7411    2.2566 C   0  0  0  0  0  0  0  0  0  0  0  0
   10.3538   23.3098    2.2674 C   0  0  0  0  0  0  0  0  0  0  0  0
    9.7573   23.1599    3.6362 C   0  0  0  0  0  0  0  0  0  0  0  0
   10.3705   24.6662    1.7934 N   0  0  0  0  0  0  0  0  0  0  0  0
   10.3611   25.3766    2.5458 H   0  0  0  0  0  0  0  0  0  0  0  0
   11.1828   24.7703    1.1306 H   0  0  0  0  0  0  0  0  0  0  0  0
 26 27  2  0  0  0
 27 28  1  0  0  0
 27  1  1  0  0  0
  1  2  1  0  0  0
  2  3  1  0  0  0
  2  4  1  0  0  0
  4  5  1  0  0  0
  4  6  1  0  0  0
  6  7  2  0  0  0
  6  8  1  0  0  0
  8  9  1  0  0  0
  8 10  1  0  0  0
 10 11  1  0  0  0
 11 12  1  0  0  0
 12 13  1  0  0  0
 13 14  2  0  0  0
 14 15  1  0  0  0
 13 16  1  0  0  0
 16 30  1  0  0  0
 30 31  1  0  0  0
 31 32  1  0  0  0
 32 33  1  0  0  0
 33 34  1  0  0  0
 33 35  1  0  0  0
 10 17  1  0  0  0
 17 18  1  0  0  0
 18 19  2  0  0  0
 18 20  1  0  0  0
 20 21  1  0  0  0
 20  1  1  0  0  0
 17 16  1  0  0  0
 28 29  1  0  0  0
  3 22  1  0  0  0
  5 23  1  0  0  0
  9 24  1  0  0  0
 35 36  1  0  0  0
 35 37  1  0  0  0
 21 25  1  0  0  0
M  END
> <minimizedAffinity>
2.92972

> <CNNscore>
0.4364145994

> <CNNaffinity>
6.6126527786

> <CNN_VS>
2.8858582973

> <CNNaffinity_variance>
2.7997412682

$$$$
[H]OC(=O)[C@]1([H])[C@]([H])(O[H])[C@@]([H])(O[H])C(=O)[C@@]([H])(O[H])[C@@]2([H])N(C(=O)[C@]1([H])O[H])[C@@]([H])(C([H])([H])C([H])([H])C([H])([H])[C@]([H])(N([H])[H])C([H])([H])[H])/C(=C(/[H])C([H])([H])[H])C([H])([H])C2([H])[H]


 37 38  0  0  0  0  0  0  0  0999 V2000
   12.3272   25.7871    0.7600 C   0  0  0  0  0  0  0  0  0  0  0  0
   12.3680   24.3290    0.9763 C   0  0  0  0  0  0  0  0  0  0  0  0
   13.5831   23.7096    0.9700 O   0  0  0  0  0  0  0  0  0  0  0  0
   11.4468   23.5612    0.0260 C   0  0  0  0  0  0  0  0  0  0  0  0
   10.1063   23.7045    0.3756 O   0  0  0  0  0  0  0  0  0  0  0  0
   11.6734   23.9881   -1.3849 C   0  0  0  0  0  0  0  0  0  0  0  0
   10.7434   24.4807   -1.9956 O   0  0  0  0  0  0  0  0  0  0  0  0
   12.9904   23.8296   -2.0580 C   0  0  0  0  0  0  0  0  0  0  0  0
   12.7642   23.1044   -3.2245 O   0  0  0  0  0  0  0  0  0  0  0  0
   13.6389   25.1821   -2.3473 C   0  0  0  0  0  0  0  0  0  0  0  0
   13.7979   25.3553   -3.8045 C   0  0  0  0  0  0  0  0  0  0  0  0
   15.1521   25.0059   -4.3815 C   0  0  0  0  0  0  0  0  0  0  0  0
   16.1162   25.6855   -3.4702 C   0  0  0  0  0  0  0  0  0  0  0  0
   16.7964   26.7146   -3.9255 C   0  0  0  0  0  0  0  0  0  0  0  0
   17.7582   27.3735   -2.9784 C   0  0  0  0  0  0  0  0  0  0  0  0
   16.1662   25.1706   -2.1153 C   0  0  0  0  0  0  0  0  0  0  0  0
   14.7951   25.4016   -1.5212 N   0  0  0  0  0  0  0  0  0  0  0  0
   14.6744   25.8234   -0.1936 C   0  0  0  0  0  0  0  0  0  0  0  0
   15.6936   25.5550    0.5465 O   0  0  0  0  0  0  0  0  0  0  0  0
   13.5655   26.5200    0.4619 C   0  0  0  0  0  0  0  0  0  0  0  0
   14.0008   27.1237    1.6784 O   0  0  0  0  0  0  0  0  0  0  0  0
   13.8451   23.2684    1.8105 H   0  0  0  0  0  0  0  0  0  0  0  0
    9.4967   23.6426   -0.3767 H   0  0  0  0  0  0  0  0  0  0  0  0
   12.9222   22.1373   -3.1109 H   0  0  0  0  0  0  0  0  0  0  0  0
   14.9871   27.2711    1.5266 H   0  0  0  0  0  0  0  0  0  0  0  0
   10.5830   26.0921    2.4361 O   0  0  0  0  0  0  0  0  0  0  0  0
   11.6738   26.4614    1.9471 C   0  0  0  0  0  0  0  0  0  0  0  0
   12.2881   27.5603    2.5612 O   0  0  0  0  0  0  0  0  0  0  0  0
   11.7037   28.4083    2.5861 H   0  0  0  0  0  0  0  0  0  0  0  0
   16.5558   23.7766   -1.9102 C   0  0  0  0  0  0  0  0  0  0  0  0
   15.9572   22.9598   -0.8319 C   0  0  0  0  0  0  0  0  0  0  0  0
   14.7190   22.1975   -1.0848 C   0  0  0  0  0  0  0  0  0  0  0  0
   14.8298   20.8456   -0.3380 C   0  0  0  0  0  0  0  0  0  0  0  0
   15.1027   21.0887    1.1174 C   0  0  0  0  0  0  0  0  0  0  0  0
   13.6463   20.0668   -0.5783 N   0  0  0  0  0  0  0  0  0  0  0  0
   12.9471   20.1153    0.1830 H   0  0  0  0  0  0  0  0  0  0  0  0
   13.2598   20.3424   -1.5188 H   0  0  0  0  0  0  0  0  0  0  0  0
 26 27  2  0  0  0
 27 28  1  0  0  0
 27  1  1  0  0  0
  1  2  1  0  0  0
  2  3  1  0  0  0
  2  4  1  0  0  0
  4  5  1  0  0  0
  4  6  1  0  0  0
  6  7  2  0  0  0
  6  8  1  0  0  0
  8  9  1  0  0  0
  8 10  1  0  0  0
 10 11  1  0  0  0
 11 12  1  0  0  0
 12 13  1  0  0  0
 13 14  2  0  0  0
 14 15  1  0  0  0
 13 16  1  0  0  0
 16 30  1  0  0  0
 30 31  1  0  0  0
 31 32  1  0  0  0
 32 33  1  0  0  0
 33 34  1  0  0  0
 33 35  1  0  0  0
 10 17  1  0  0  0
 17 18  1  0  0  0
 18 19  2  0  0  0
 18 20  1  0  0  0
 20 21  1  0  0  0
 20  1  1  0  0  0
 17 16  1  0  0  0
 28 29  1  0  0  0
  3 22  1  0  0  0
  5 23  1  0  0  0
  9 24  1  0  0  0
 35 36  1  0  0  0
 35 37  1  0  0  0
 21 25  1  0  0  0
M  END
> <minimizedAffinity>
10.08642

> <CNNscore>
0.4352861345

> <CNNaffinity>
6.7301759720

> <CNN_VS>
2.9295523167

> <CNNaffinity_variance>
2.3485870361

$$$$
[H]OC(=O)[C@]1([H])[C@]([H])(O[H])[C@@]([H])(O[H])C(=O)[C@@]([H])(O[H])[C@@]2([H])N(C(=O)[C@]1([H])O[H])[C@@]([H])(C([H])([H])C([H])([H])C([H])([H])[C@]([H])(N([H])[H])C([H])([H])[H])/C(=C(/[H])C([H])([H])[H])C([H])([H])C2([H])[H]


 37 38  0  0  0  0  0  0  0  0999 V2000
   10.8232   21.5154    0.0947 C   0  0  0  0  0  0  0  0  0  0  0  0
    9.7708   22.4827   -0.2671 C   0  0  0  0  0  0  0  0  0  0  0  0
    9.9681   23.2711   -1.3624 O   0  0  0  0  0  0  0  0  0  0  0  0
    9.3729   23.3915    0.8978 C   0  0  0  0  0  0  0  0  0  0  0  0
    8.6054   22.7159    1.8433 O   0  0  0  0  0  0  0  0  0  0  0  0
   10.5815   23.9939    1.5310 C   0  0  0  0  0  0  0  0  0  0  0  0
   10.8004   23.7522    2.7033 O   0  0  0  0  0  0  0  0  0  0  0  0
   11.5156   24.8722    0.7769 C   0  0  0  0  0  0  0  0  0  0  0  0
   11.6119   26.0654    1.4873 O   0  0  0  0  0  0  0  0  0  0  0  0
   12.8800   24.2109    0.5904 C   0  0  0  0  0  0  0  0  0  0  0  0
   13.9176   25.0130    1.2679 C   0  0  0  0  0  0  0  0  0  0  0  0
   14.6901   25.9850    0.4034 C   0  0  0  0  0  0  0  0  0  0  0  0
   15.0744   25.1772   -0.7889 C   0  0  0  0  0  0  0  0  0  0  0  0
   16.3408   24.8671   -0.9593 C   0  0  0  0  0  0  0  0  0  0  0  0
   16.6896   24.0522   -2.1718 C   0  0  0  0  0  0  0  0  0  0  0  0
   13.9769   24.7480   -1.6344 C   0  0  0  0  0  0  0  0  0  0  0  0
   13.1092   23.8495   -0.7822 N   0  0  0  0  0  0  0  0  0  0  0  0
   12.5521   22.6925   -1.3353 C   0  0  0  0  0  0  0  0  0  0  0  0
   12.4474   22.7114   -2.6189 O   0  0  0  0  0  0  0  0  0  0  0  0
   12.0796   21.4784   -0.6666 C   0  0  0  0  0  0  0  0  0  0  0  0
   11.9778   20.4008   -1.5951 O   0  0  0  0  0  0  0  0  0  0  0  0
    9.3214   23.1571   -2.0963 H   0  0  0  0  0  0  0  0  0  0  0  0
    8.7037   23.0595    2.7453 H   0  0  0  0  0  0  0  0  0  0  0  0
   10.9954   26.7600    1.1547 H   0  0  0  0  0  0  0  0  0  0  0  0
   12.6454   20.6449   -2.3108 H   0  0  0  0  0  0  0  0  0  0  0  0
   10.8746   19.1144    0.5159 O   0  0  0  0  0  0  0  0  0  0  0  0
   10.2507   20.1143    0.0961 C   0  0  0  0  0  0  0  0  0  0  0  0
    8.9578   19.8794   -0.3890 O   0  0  0  0  0  0  0  0  0  0  0  0
    8.9156   19.1941   -1.1569 H   0  0  0  0  0  0  0  0  0  0  0  0
   13.1436   25.7668   -2.2704 C   0  0  0  0  0  0  0  0  0  0  0  0
   13.6546   26.5950   -3.3845 C   0  0  0  0  0  0  0  0  0  0  0  0
   13.9587   25.9721   -4.6875 C   0  0  0  0  0  0  0  0  0  0  0  0
   15.3145   26.5345   -5.1806 C   0  0  0  0  0  0  0  0  0  0  0  0
   15.5753   26.0761   -6.5855 C   0  0  0  0  0  0  0  0  0  0  0  0
   15.3234   27.9637   -5.0316 N   0  0  0  0  0  0  0  0  0  0  0  0
   15.1066   28.4803   -5.9017 H   0  0  0  0  0  0  0  0  0  0  0  0
   14.6879   28.2120   -4.2289 H   0  0  0  0  0  0  0  0  0  0  0  0
 26 27  2  0  0  0
 27 28  1  0  0  0
 27  1  1  0  0  0
  1  2  1  0  0  0
  2  3  1  0  0  0
  2  4  1  0  0  0
  4  5  1  0  0  0
  4  6  1  0  0  0
  6  7  2  0  0  0
  6  8  1  0  0  0
  8  9  1  0  0  0
  8 10  1  0  0  0
 10 11  1  0  0  0
 11 12  1  0  0  0
 12 13  1  0  0  0
 13 14  2  0  0  0
 14 15  1  0  0  0
 13 16  1  0  0  0
 16 30  1  0  0  0
 30 31  1  0  0  0
 31 32  1  0  0  0
 32 33  1  0  0  0
 33 34  1  0  0  0
 33 35  1  0  0  0
 10 17  1  0  0  0
 17 18  1  0  0  0
 18 19  2  0  0  0
 18 20  1  0  0  0
 20 21  1  0  0  0
 20  1  1  0  0  0
 17 16  1  0  0  0
 28 29  1  0  0  0
  3 22  1  0  0  0
  5 23  1  0  0  0
  9 24  1  0  0  0
 35 36  1  0  0  0
 35 37  1  0  0  0
 21 25  1  0  0  0
M  END
> <minimizedAffinity>
-2.34031

> <CNNscore>
0.4352376163

> <CNNaffinity>
6.4154968262

> <CNN_VS>
2.7922656536

> <CNNaffinity_variance>
0.4451466501

$$$$
[H]OC(=O)[C@]1([H])[C@]([H])(O[H])[C@@]([H])(O[H])C(=O)[C@@]([H])(O[H])[C@@]2([H])N(C(=O)[C@]1([H])O[H])[C@@]([H])(C([H])([H])C([H])([H])C([H])([H])[C@]([H])(N([H])[H])C([H])([H])[H])/C(=C(/[H])C([H])([H])[H])C([H])([H])C2([H])[H]


 37 38  0  0  0  0  0  0  0  0999 V2000
   13.2550   25.6877   -2.1480 C   0  0  0  0  0  0  0  0  0  0  0  0
   14.0273   25.8040   -0.8972 C   0  0  0  0  0  0  0  0  0  0  0  0
   15.0110   24.8899   -0.6590 O   0  0  0  0  0  0  0  0  0  0  0  0
   13.1382   25.8691    0.3464 C   0  0  0  0  0  0  0  0  0  0  0  0
   12.5093   27.1056    0.4694 O   0  0  0  0  0  0  0  0  0  0  0  0
   12.1354   24.7652    0.3340 C   0  0  0  0  0  0  0  0  0  0  0  0
   10.9544   25.0579    0.3257 O   0  0  0  0  0  0  0  0  0  0  0  0
   12.5354   23.3325    0.3316 C   0  0  0  0  0  0  0  0  0  0  0  0
   11.9005   22.7331    1.4157 O   0  0  0  0  0  0  0  0  0  0  0  0
   12.1727   22.6510   -0.9866 C   0  0  0  0  0  0  0  0  0  0  0  0
   11.2018   21.5679   -0.7351 C   0  0  0  0  0  0  0  0  0  0  0  0
   11.7686   20.1713   -0.6034 C   0  0  0  0  0  0  0  0  0  0  0  0
   12.6932   20.0485   -1.7661 C   0  0  0  0  0  0  0  0  0  0  0  0
   12.3691   19.2344   -2.7465 C   0  0  0  0  0  0  0  0  0  0  0  0
   13.3253   19.1371   -3.9008 C   0  0  0  0  0  0  0  0  0  0  0  0
   13.8608   20.9081   -1.7308 C   0  0  0  0  0  0  0  0  0  0  0  0
   13.3443   22.3290   -1.7553 N   0  0  0  0  0  0  0  0  0  0  0  0
   14.0048   23.2961   -2.5192 C   0  0  0  0  0  0  0  0  0  0  0  0
   15.2358   23.0213   -2.7796 O   0  0  0  0  0  0  0  0  0  0  0  0
   13.4970   24.5595   -3.0580 C   0  0  0  0  0  0  0  0  0  0  0  0
   14.3422   25.0355   -4.1033 O   0  0  0  0  0  0  0  0  0  0  0  0
   15.9248   25.2501   -0.5885 H   0  0  0  0  0  0  0  0  0  0  0  0
   11.6530   27.0659    0.9240 H   0  0  0  0  0  0  0  0  0  0  0  0
   12.4714   22.6922    2.2192 H   0  0  0  0  0  0  0  0  0  0  0  0
   14.7730   24.1947   -4.4570 H   0  0  0  0  0  0  0  0  0  0  0  0
   12.4420   27.5018   -3.5596 O   0  0  0  0  0  0  0  0  0  0  0  0
   13.3942   26.9608   -2.9545 C   0  0  0  0  0  0  0  0  0  0  0  0
   14.6363   27.6004   -3.0556 O   0  0  0  0  0  0  0  0  0  0  0  0
   14.9677   27.7235   -4.0231 H   0  0  0  0  0  0  0  0  0  0  0  0
   14.8095   20.7552   -0.6292 C   0  0  0  0  0  0  0  0  0  0  0  0
   14.3912   20.9334    0.7784 C   0  0  0  0  0  0  0  0  0  0  0  0
   15.2021   21.7646    1.6893 C   0  0  0  0  0  0  0  0  0  0  0  0
   16.3333   22.4188    0.8587 C   0  0  0  0  0  0  0  0  0  0  0  0
   16.1110   23.9004    0.7735 C   0  0  0  0  0  0  0  0  0  0  0  0
   17.6075   22.0604    1.4181 N   0  0  0  0  0  0  0  0  0  0  0  0
   18.0171   22.7844    2.0338 H   0  0  0  0  0  0  0  0  0  0  0  0
   17.5059   21.1222    1.8865 H   0  0  0  0  0  0  0  0  0  0  0  0
 26 27  2  0  0  0
 27 28  1  0  0  0
 27  1  1  0  0  0
  1  2  1  0  0  0
  2  3  1  0  0  0
  2  4  1  0  0  0
  4  5  1  0  0  0
  4  6  1  0  0  0
  6  7  2  0  0  0
  6  8  1  0  0  0
  8  9  1  0  0  0
  8 10  1  0  0  0
 10 11  1  0  0  0
 11 12  1  0  0  0
 12 13  1  0  0  0
 13 14  2  0  0  0
 14 15  1  0  0  0
 13 16  1  0  0  0
 16 30  1  0  0  0
 30 31  1  0  0  0
 31 32  1  0  0  0
 32 33  1  0  0  0
 33 34  1  0  0  0
 33 35  1  0  0  0
 10 17  1  0  0  0
 17 18  1  0  0  0
 18 19  2  0  0  0
 18 20  1  0  0  0
 20 21  1  0  0  0
 20  1  1  0  0  0
 17 16  1  0  0  0
 28 29  1  0  0  0
  3 22  1  0  0  0
  5 23  1  0  0  0
  9 24  1  0  0  0
 35 36  1  0  0  0
 35 37  1  0  0  0
 21 25  1  0  0  0
M  END
> <minimizedAffinity>
13.16646

> <CNNscore>
0.4289989769

> <CNNaffinity>
5.9825930595

> <CNN_VS>
2.5665264130

> <CNNaffinity_variance>
1.1101174355

$$$$
[H]OC(=O)[C@]1([H])[C@]([H])(O[H])[C@@]([H])(O[H])C(=O)[C@@]([H])(O[H])[C@@]2([H])N(C(=O)[C@]1([H])O[H])[C@@]([H])(C([H])([H])C([H])([H])C([H])([H])[C@]([H])(N([H])[H])C([H])([H])[H])/C(=C(/[H])C([H])([H])[H])C([H])([H])C2([H])[H]


 37 38  0  0  0  0  0  0  0  0999 V2000
   15.4074   26.8214   -3.7676 C   0  0  0  0  0  0  0  0  0  0  0  0
   16.4973   25.8283   -3.7617 C   0  0  0  0  0  0  0  0  0  0  0  0
   16.1671   24.5075   -3.8433 O   0  0  0  0  0  0  0  0  0  0  0  0
   17.4511   25.9997   -2.5776 C   0  0  0  0  0  0  0  0  0  0  0  0
   18.2851   27.1033   -2.7396 O   0  0  0  0  0  0  0  0  0  0  0  0
   16.6895   26.0962   -1.2989 C   0  0  0  0  0  0  0  0  0  0  0  0
   16.7967   27.1123   -0.6382 O   0  0  0  0  0  0  0  0  0  0  0  0
   15.8126   24.9964   -0.8150 C   0  0  0  0  0  0  0  0  0  0  0  0
   16.2407   24.6726    0.4694 O   0  0  0  0  0  0  0  0  0  0  0  0
   14.3400   25.4022   -0.8371 C   0  0  0  0  0  0  0  0  0  0  0  0
   13.7982   25.3809    0.5359 C   0  0  0  0  0  0  0  0  0  0  0  0
   13.0580   24.1279    0.9495 C   0  0  0  0  0  0  0  0  0  0  0  0
   12.1330   23.8656   -0.1895 C   0  0  0  0  0  0  0  0  0  0  0  0
   10.8417   24.0316   -0.0046 C   0  0  0  0  0  0  0  0  0  0  0  0
    9.9411   23.7578   -1.1750 C   0  0  0  0  0  0  0  0  0  0  0  0
   12.7688   23.5029   -1.4415 C   0  0  0  0  0  0  0  0  0  0  0  0
   13.6106   24.6903   -1.8512 N   0  0  0  0  0  0  0  0  0  0  0  0
   13.6632   25.0752   -3.1943 C   0  0  0  0  0  0  0  0  0  0  0  0
   13.3616   24.1421   -4.0293 O   0  0  0  0  0  0  0  0  0  0  0  0
   14.0074   26.3749   -3.7748 C   0  0  0  0  0  0  0  0  0  0  0  0
   13.5444   26.4623   -5.1208 O   0  0  0  0  0  0  0  0  0  0  0  0
   16.5020   24.0288   -4.6359 H   0  0  0  0  0  0  0  0  0  0  0  0
   18.5623   27.5106   -1.9038 H   0  0  0  0  0  0  0  0  0  0  0  0
   16.8728   23.9153    0.4828 H   0  0  0  0  0  0  0  0  0  0  0  0
   12.7678   25.8188   -5.1432 H   0  0  0  0  0  0  0  0  0  0  0  0
   15.8735   27.3954   -6.0910 O   0  0  0  0  0  0  0  0  0  0  0  0
   15.5880   27.7711   -4.9322 C   0  0  0  0  0  0  0  0  0  0  0  0
   15.4370   29.1514   -4.7477 O   0  0  0  0  0  0  0  0  0  0  0  0
   16.2650   29.7036   -5.0132 H   0  0  0  0  0  0  0  0  0  0  0  0
   13.5845   22.2906   -1.4869 C   0  0  0  0  0  0  0  0  0  0  0  0
   13.0461   20.9829   -1.0531 C   0  0  0  0  0  0  0  0  0  0  0  0
   13.0240   20.6332    0.3806 C   0  0  0  0  0  0  0  0  0  0  0  0
   11.5454   20.5900    0.8386 C   0  0  0  0  0  0  0  0  0  0  0  0
   10.6829   20.0688   -0.2732 C   0  0  0  0  0  0  0  0  0  0  0  0
   11.4416   19.8273    2.0520 N   0  0  0  0  0  0  0  0  0  0  0  0
   11.1386   18.8479    1.9105 H   0  0  0  0  0  0  0  0  0  0  0  0
   12.3555   19.9113    2.5694 H   0  0  0  0  0  0  0  0  0  0  0  0
 26 27  2  0  0  0
 27 28  1  0  0  0
 27  1  1  0  0  0
  1  2  1  0  0  0
  2  3  1  0  0  0
  2  4  1  0  0  0
  4  5  1  0  0  0
  4  6  1  0  0  0
  6  7  2  0  0  0
  6  8  1  0  0  0
  8  9  1  0  0  0
  8 10  1  0  0  0
 10 11  1  0  0  0
 11 12  1  0  0  0
 12 13  1  0  0  0
 13 14  2  0  0  0
 14 15  1  0  0  0
 13 16  1  0  0  0
 16 30  1  0  0  0
 30 31  1  0  0  0
 31 32  1  0  0  0
 32 33  1  0  0  0
 33 34  1  0  0  0
 33 35  1  0  0  0
 10 17  1  0  0  0
 17 18  1  0  0  0
 18 19  2  0  0  0
 18 20  1  0  0  0
 20 21  1  0  0  0
 20  1  1  0  0  0
 17 16  1  0  0  0
 28 29  1  0  0  0
  3 22  1  0  0  0
  5 23  1  0  0  0
  9 24  1  0  0  0
 35 36  1  0  0  0
 35 37  1  0  0  0
 21 25  1  0  0  0
M  END
> <minimizedAffinity>
-0.23480

> <CNNscore>
0.4192771316

> <CNNaffinity>
6.4592447281

> <CNN_VS>
2.7082135677

> <CNNaffinity_variance>
0.7929855585

$$$$
[H]OC(=O)c1c([H])c(C(=O)c2c([H])c3c([H])c(O[H])c(O[H])c([H])c3n2[H])c([H])c2c([H])c([H])c([H])c([H])c12


 30 33  0  0  0  0  0  0  0  0999 V2000
   13.2385   26.5233   -4.1312 C   0  0  0  0  0  0  0  0  0  0  0  0
   14.1183   26.4192   -5.0543 O   0  0  0  0  0  0  0  0  0  0  0  0
   13.3162   25.6058   -3.0128 C   0  0  0  0  0  0  0  0  0  0  0  0
   12.3666   25.3811   -2.0460 C   0  0  0  0  0  0  0  0  0  0  0  0
   12.8523   24.4262   -1.1729 C   0  0  0  0  0  0  0  0  0  0  0  0
   12.3244   23.8394   -0.0433 C   0  0  0  0  0  0  0  0  0  0  0  0
   13.0001   22.9003    0.6753 C   0  0  0  0  0  0  0  0  0  0  0  0
   12.4526   22.3208    1.8099 O   0  0  0  0  0  0  0  0  0  0  0  0
   14.2683   22.5351    0.2342 C   0  0  0  0  0  0  0  0  0  0  0  0
   14.9334   21.5773    0.9845 O   0  0  0  0  0  0  0  0  0  0  0  0
   14.7907   23.1216   -0.8910 C   0  0  0  0  0  0  0  0  0  0  0  0
   14.1054   24.0841   -1.6325 C   0  0  0  0  0  0  0  0  0  0  0  0
   14.3629   24.8050   -2.7384 N   0  0  0  0  0  0  0  0  0  0  0  0
   12.9923   21.6292    2.3093 H   0  0  0  0  0  0  0  0  0  0  0  0
   15.8526   21.2988    0.6834 H   0  0  0  0  0  0  0  0  0  0  0  0
   15.2555   24.7406   -3.2958 H   0  0  0  0  0  0  0  0  0  0  0  0
   11.4523   29.8405   -3.9450 C   0  0  0  0  0  0  0  0  0  0  0  0
   12.4305   28.8313   -3.7946 C   0  0  0  0  0  0  0  0  0  0  0  0
   12.2207   27.5631   -4.2770 C   0  0  0  0  0  0  0  0  0  0  0  0
   11.0587   27.2402   -4.9169 C   0  0  0  0  0  0  0  0  0  0  0  0
   10.0844   28.2106   -5.0766 C   0  0  0  0  0  0  0  0  0  0  0  0
    8.8960   27.8948   -5.7214 C   0  0  0  0  0  0  0  0  0  0  0  0
    7.9163   28.8339   -5.8874 C   0  0  0  0  0  0  0  0  0  0  0  0
    8.1194   30.0969   -5.4087 C   0  0  0  0  0  0  0  0  0  0  0  0
    9.3015   30.4692   -4.7499 C   0  0  0  0  0  0  0  0  0  0  0  0
   10.2850   29.5144   -4.5877 C   0  0  0  0  0  0  0  0  0  0  0  0
   12.5207   32.0517   -4.2468 O   0  0  0  0  0  0  0  0  0  0  0  0
   11.7629   31.1589   -3.4244 C   0  0  0  0  0  0  0  0  0  0  0  0
   11.4724   31.6718   -2.3371 O   0  0  0  0  0  0  0  0  0  0  0  0
   12.1480   32.2980   -5.1492 H   0  0  0  0  0  0  0  0  0  0  0  0
 27 28  1  0  0  0
 28 29  2  0  0  0
 28 17  1  0  0  0
 17 18  2  0  0  0
 18 19  1  0  0  0
 19 20  2  0  0  0
 20 21  1  0  0  0
 21 22  2  0  0  0
 22 23  1  0  0  0
 23 24  2  0  0  0
 24 25  1  0  0  0
 25 26  2  0  0  0
 19  1  1  0  0  0
  1  2  2  0  0  0
  1  3  1  0  0  0
  3  4  2  0  0  0
  4  5  1  0  0  0
  5  6  2  0  0  0
  6  7  1  0  0  0
  7  8  1  0  0  0
  7  9  2  0  0  0
  9 10  1  0  0  0
  9 11  1  0  0  0
 11 12  2  0  0  0
 12 13  1  0  0  0
 26 17  1  0  0  0
 13  3  1  0  0  0
 26 21  1  0  0  0
 12  5  1  0  0  0
 27 30  1  0  0  0
  8 14  1  0  0  0
 10 15  1  0  0  0
 13 16  1  0  0  0
M  END
> <minimizedAffinity>
15.90467

> <CNNscore>
0.5713659525

> <CNNaffinity>
6.3502893448

> <CNN_VS>
3.6283390522

> <CNNaffinity_variance>
1.2101758718

$$$$
[H]OC(=O)c1c([H])c(C(=O)c2c([H])c3c([H])c(O[H])c(O[H])c([H])c3n2[H])c([H])c2c([H])c([H])c([H])c([H])c12


 30 33  0  0  0  0  0  0  0  0999 V2000
   14.7880   22.6593   -3.2564 C   0  0  0  0  0  0  0  0  0  0  0  0
   14.9937   21.6624   -4.0315 O   0  0  0  0  0  0  0  0  0  0  0  0
   14.1022   22.4152   -2.0038 C   0  0  0  0  0  0  0  0  0  0  0  0
   14.4077   21.4743   -1.0509 C   0  0  0  0  0  0  0  0  0  0  0  0
   13.4967   21.5895   -0.0180 C   0  0  0  0  0  0  0  0  0  0  0  0
   13.3399   20.9072    1.1689 C   0  0  0  0  0  0  0  0  0  0  0  0
   12.3464   21.1996    2.0534 C   0  0  0  0  0  0  0  0  0  0  0  0
   12.2041   20.5016    3.2432 O   0  0  0  0  0  0  0  0  0  0  0  0
   11.4692   22.2289    1.7260 C   0  0  0  0  0  0  0  0  0  0  0  0
   10.4676   22.5051    2.6442 O   0  0  0  0  0  0  0  0  0  0  0  0
   11.6284   22.9062    0.5432 C   0  0  0  0  0  0  0  0  0  0  0  0
   12.6431   22.6129   -0.3680 C   0  0  0  0  0  0  0  0  0  0  0  0
   13.0258   23.0939   -1.5643 N   0  0  0  0  0  0  0  0  0  0  0  0
   11.4517   20.7550    3.8666 H   0  0  0  0  0  0  0  0  0  0  0  0
    9.8215   23.2458    2.4270 H   0  0  0  0  0  0  0  0  0  0  0  0
   12.5447   23.8849   -2.0688 H   0  0  0  0  0  0  0  0  0  0  0  0
   15.4972   25.6789   -5.4029 C   0  0  0  0  0  0  0  0  0  0  0  0
   15.0492   24.4067   -4.9801 C   0  0  0  0  0  0  0  0  0  0  0  0
   15.2626   23.9707   -3.6958 C   0  0  0  0  0  0  0  0  0  0  0  0
   15.9151   24.7554   -2.7889 C   0  0  0  0  0  0  0  0  0  0  0  0
   16.3644   26.0056   -3.1783 C   0  0  0  0  0  0  0  0  0  0  0  0
   17.0336   26.8122   -2.2675 C   0  0  0  0  0  0  0  0  0  0  0  0
   17.4915   28.0487   -2.6287 C   0  0  0  0  0  0  0  0  0  0  0  0
   17.2827   28.4871   -3.9053 C   0  0  0  0  0  0  0  0  0  0  0  0
   16.6124   27.7126   -4.8650 C   0  0  0  0  0  0  0  0  0  0  0  0
   16.1532   26.4660   -4.4907 C   0  0  0  0  0  0  0  0  0  0  0  0
   14.1153   26.9579   -7.0081 O   0  0  0  0  0  0  0  0  0  0  0  0
   15.2122   26.0701   -6.7710 C   0  0  0  0  0  0  0  0  0  0  0  0
   15.7812   25.7528   -7.8224 O   0  0  0  0  0  0  0  0  0  0  0  0
   14.1301   27.8606   -6.5624 H   0  0  0  0  0  0  0  0  0  0  0  0
 27 28  1  0  0  0
 28 29  2  0  0  0
 28 17  1  0  0  0
 17 18  2  0  0  0
 18 19  1  0  0  0
 19 20  2  0  0  0
 20 21  1  0  0  0
 21 22  2  0  0  0
 22 23  1  0  0  0
 23 24  2  0  0  0
 24 25  1  0  0  0
 25 26  2  0  0  0
 19  1  1  0  0  0
  1  2  2  0  0  0
  1  3  1  0  0  0
  3  4  2  0  0  0
  4  5  1  0  0  0
  5  6  2  0  0  0
  6  7  1  0  0  0
  7  8  1  0  0  0
  7  9  2  0  0  0
  9 10  1  0  0  0
  9 11  1  0  0  0
 11 12  2  0  0  0
 12 13  1  0  0  0
 26 17  1  0  0  0
 13  3  1  0  0  0
 26 21  1  0  0  0
 12  5  1  0  0  0
 27 30  1  0  0  0
  8 14  1  0  0  0
 10 15  1  0  0  0
 13 16  1  0  0  0
M  END
> <minimizedAffinity>
-9.38387

> <CNNscore>
0.5247434378

> <CNNaffinity>
6.6329317093

> <CNN_VS>
3.4805874825

> <CNNaffinity_variance>
0.3103950620

$$$$
[H]OC(=O)c1c([H])c(C(=O)c2c([H])c3c([H])c(O[H])c(O[H])c([H])c3n2[H])c([H])c2c([H])c([H])c([H])c([H])c12


 30 33  0  0  0  0  0  0  0  0999 V2000
   15.0766   24.5484   -1.1841 C   0  0  0  0  0  0  0  0  0  0  0  0
   16.1900   24.8279   -0.6190 O   0  0  0  0  0  0  0  0  0  0  0  0
   14.1478   23.6964   -0.4698 C   0  0  0  0  0  0  0  0  0  0  0  0
   14.3919   22.4557    0.0669 C   0  0  0  0  0  0  0  0  0  0  0  0
   13.2287   22.0015    0.6592 C   0  0  0  0  0  0  0  0  0  0  0  0
   12.9154   20.8403    1.3317 C   0  0  0  0  0  0  0  0  0  0  0  0
   11.6744   20.6031    1.8401 C   0  0  0  0  0  0  0  0  0  0  0  0
   11.3775   19.4281    2.5139 O   0  0  0  0  0  0  0  0  0  0  0  0
   10.7028   21.5833    1.6623 C   0  0  0  0  0  0  0  0  0  0  0  0
    9.4487   21.3156    2.1898 O   0  0  0  0  0  0  0  0  0  0  0  0
   11.0185   22.7384    0.9921 C   0  0  0  0  0  0  0  0  0  0  0  0
   12.2869   22.9889    0.4684 C   0  0  0  0  0  0  0  0  0  0  0  0
   12.8612   23.9971   -0.2119 N   0  0  0  0  0  0  0  0  0  0  0  0
   10.4430   19.2980    2.8725 H   0  0  0  0  0  0  0  0  0  0  0  0
    8.7307   22.0112    2.0720 H   0  0  0  0  0  0  0  0  0  0  0  0
   12.3647   24.8837   -0.4930 H   0  0  0  0  0  0  0  0  0  0  0  0
   13.6405   26.6374   -3.9773 C   0  0  0  0  0  0  0  0  0  0  0  0
   13.8745   26.0830   -2.6983 C   0  0  0  0  0  0  0  0  0  0  0  0
   14.8273   25.1125   -2.5099 C   0  0  0  0  0  0  0  0  0  0  0  0
   15.5772   24.6546   -3.5549 C   0  0  0  0  0  0  0  0  0  0  0  0
   15.3669   25.1811   -4.8178 C   0  0  0  0  0  0  0  0  0  0  0  0
   16.1193   24.7213   -5.8905 C   0  0  0  0  0  0  0  0  0  0  0  0
   15.9273   25.2216   -7.1482 C   0  0  0  0  0  0  0  0  0  0  0  0
   14.9802   26.1866   -7.3415 C   0  0  0  0  0  0  0  0  0  0  0  0
   14.1928   26.6866   -6.2928 C   0  0  0  0  0  0  0  0  0  0  0  0
   14.3943   26.1759   -5.0265 C   0  0  0  0  0  0  0  0  0  0  0  0
   12.8950   28.9448   -3.4850 O   0  0  0  0  0  0  0  0  0  0  0  0
   12.6296   27.6730   -4.0849 C   0  0  0  0  0  0  0  0  0  0  0  0
   11.5209   27.6463   -4.6324 O   0  0  0  0  0  0  0  0  0  0  0  0
   13.7075   29.4542   -3.7918 H   0  0  0  0  0  0  0  0  0  0  0  0
 27 28  1  0  0  0
 28 29  2  0  0  0
 28 17  1  0  0  0
 17 18  2  0  0  0
 18 19  1  0  0  0
 19 20  2  0  0  0
 20 21  1  0  0  0
 21 22  2  0  0  0
 22 23  1  0  0  0
 23 24  2  0  0  0
 24 25  1  0  0  0
 25 26  2  0  0  0
 19  1  1  0  0  0
  1  2  2  0  0  0
  1  3  1  0  0  0
  3  4  2  0  0  0
  4  5  1  0  0  0
  5  6  2  0  0  0
  6  7  1  0  0  0
  7  8  1  0  0  0
  7  9  2  0  0  0
  9 10  1  0  0  0
  9 11  1  0  0  0
 11 12  2  0  0  0
 12 13  1  0  0  0
 26 17  1  0  0  0
 13  3  1  0  0  0
 26 21  1  0  0  0
 12  5  1  0  0  0
 27 30  1  0  0  0
  8 14  1  0  0  0
 10 15  1  0  0  0
 13 16  1  0  0  0
M  END
> <minimizedAffinity>
-4.50513

> <CNNscore>
0.4993813336

> <CNNaffinity>
6.4333791733

> <CNN_VS>
3.2127094269

> <CNNaffinity_variance>
0.5875975490

$$$$
[H]OC(=O)c1c([H])c(C(=O)c2c([H])c3c([H])c(O[H])c(O[H])c([H])c3n2[H])c([H])c2c([H])c([H])c([H])c([H])c12


 30 33  0  0  0  0  0  0  0  0999 V2000
   13.6227   21.3845   -1.8605 C   0  0  0  0  0  0  0  0  0  0  0  0
   13.8587   20.6011   -2.8441 O   0  0  0  0  0  0  0  0  0  0  0  0
   12.3862   21.2014   -1.1282 C   0  0  0  0  0  0  0  0  0  0  0  0
   11.2655   20.5186   -1.5340 C   0  0  0  0  0  0  0  0  0  0  0  0
   10.3217   20.5943   -0.5272 C   0  0  0  0  0  0  0  0  0  0  0  0
    9.0421   20.0970   -0.4078 C   0  0  0  0  0  0  0  0  0  0  0  0
    8.2796   20.3023    0.7019 C   0  0  0  0  0  0  0  0  0  0  0  0
    6.9934   19.7940    0.8039 O   0  0  0  0  0  0  0  0  0  0  0  0
    8.8334   21.0440    1.7409 C   0  0  0  0  0  0  0  0  0  0  0  0
    8.0352   21.2374    2.8581 O   0  0  0  0  0  0  0  0  0  0  0  0
   10.1079   21.5376    1.6184 C   0  0  0  0  0  0  0  0  0  0  0  0
   10.8953   21.3320    0.4854 C   0  0  0  0  0  0  0  0  0  0  0  0
   12.1351   21.6859    0.1024 N   0  0  0  0  0  0  0  0  0  0  0  0
    6.4672   19.9729    1.6465 H   0  0  0  0  0  0  0  0  0  0  0  0
    8.4161   21.7718    3.6214 H   0  0  0  0  0  0  0  0  0  0  0  0
   12.7987   22.2570    0.6898 H   0  0  0  0  0  0  0  0  0  0  0  0
   15.7985   24.4568   -2.0965 C   0  0  0  0  0  0  0  0  0  0  0  0
   14.8410   23.4624   -2.4002 C   0  0  0  0  0  0  0  0  0  0  0  0
   14.6220   22.4061   -1.5508 C   0  0  0  0  0  0  0  0  0  0  0  0
   15.3245   22.2863   -0.3862 C   0  0  0  0  0  0  0  0  0  0  0  0
   16.2684   23.2469   -0.0659 C   0  0  0  0  0  0  0  0  0  0  0  0
   16.9933   23.1350    1.1130 C   0  0  0  0  0  0  0  0  0  0  0  0
   17.9345   24.0677    1.4496 C   0  0  0  0  0  0  0  0  0  0  0  0
   18.1570   25.1201    0.6078 C   0  0  0  0  0  0  0  0  0  0  0  0
   17.4525   25.2812   -0.5954 C   0  0  0  0  0  0  0  0  0  0  0  0
   16.5039   24.3348   -0.9263 C   0  0  0  0  0  0  0  0  0  0  0  0
   16.0391   25.2372   -4.4322 O   0  0  0  0  0  0  0  0  0  0  0  0
   15.9524   25.5500   -3.0385 C   0  0  0  0  0  0  0  0  0  0  0  0
   16.0264   26.7678   -2.8361 O   0  0  0  0  0  0  0  0  0  0  0  0
   15.2722   24.7412   -4.8561 H   0  0  0  0  0  0  0  0  0  0  0  0
 27 28  1  0  0  0
 28 29  2  0  0  0
 28 17  1  0  0  0
 17 18  2  0  0  0
 18 19  1  0  0  0
 19 20  2  0  0  0
 20 21  1  0  0  0
 21 22  2  0  0  0
 22 23  1  0  0  0
 23 24  2  0  0  0
 24 25  1  0  0  0
 25 26  2  0  0  0
 19  1  1  0  0  0
  1  2  2  0  0  0
  1  3  1  0  0  0
  3  4  2  0  0  0
  4  5  1  0  0  0
  5  6  2  0  0  0
  6  7  1  0  0  0
  7  8  1  0  0  0
  7  9  2  0  0  0
  9 10  1  0  0  0
  9 11  1  0  0  0
 11 12  2  0  0  0
 12 13  1  0  0  0
 26 17  1  0  0  0
 13  3  1  0  0  0
 26 21  1  0  0  0
 12  5  1  0  0  0
 27 30  1  0  0  0
  8 14  1  0  0  0
 10 15  1  0  0  0
 13 16  1  0  0  0
M  END
> <minimizedAffinity>
3.05906

> <CNNscore>
0.4813925922

> <CNNaffinity>
6.0746126175

> <CNN_VS>
2.9242734909

> <CNNaffinity_variance>
0.8452070355

$$$$
[H]OC(=O)c1c([H])c(C(=O)c2c([H])c3c([H])c(O[H])c(O[H])c([H])c3n2[H])c([H])c2c([H])c([H])c([H])c([H])c12


 30 33  0  0  0  0  0  0  0  0999 V2000
   14.5382   23.0250   -2.7308 C   0  0  0  0  0  0  0  0  0  0  0  0
   14.8724   21.9146   -3.2716 O   0  0  0  0  0  0  0  0  0  0  0  0
   13.6597   22.9821   -1.5796 C   0  0  0  0  0  0  0  0  0  0  0  0
   12.7030   23.9002   -1.2212 C   0  0  0  0  0  0  0  0  0  0  0  0
   12.0989   23.4668   -0.0562 C   0  0  0  0  0  0  0  0  0  0  0  0
   11.0946   23.9936    0.7266 C   0  0  0  0  0  0  0  0  0  0  0  0
   10.6519   23.3783    1.8581 C   0  0  0  0  0  0  0  0  0  0  0  0
    9.6399   23.9239    2.6335 O   0  0  0  0  0  0  0  0  0  0  0  0
   11.2498   22.1744    2.2176 C   0  0  0  0  0  0  0  0  0  0  0  0
   10.7797   21.5700    3.3736 O   0  0  0  0  0  0  0  0  0  0  0  0
   12.2496   21.6528    1.4357 C   0  0  0  0  0  0  0  0  0  0  0  0
   12.7088   22.2766    0.2756 C   0  0  0  0  0  0  0  0  0  0  0  0
   13.6428   22.0053   -0.6533 N   0  0  0  0  0  0  0  0  0  0  0  0
    9.3461   23.4307    3.4636 H   0  0  0  0  0  0  0  0  0  0  0  0
   11.1989   20.6983    3.6525 H   0  0  0  0  0  0  0  0  0  0  0  0
   14.2607   21.1511   -0.6437 H   0  0  0  0  0  0  0  0  0  0  0  0
   15.2596   25.8123   -5.1677 C   0  0  0  0  0  0  0  0  0  0  0  0
   14.7550   24.6188   -4.6031 C   0  0  0  0  0  0  0  0  0  0  0  0
   15.0706   24.2539   -3.3177 C   0  0  0  0  0  0  0  0  0  0  0  0
   15.8825   25.0353   -2.5468 C   0  0  0  0  0  0  0  0  0  0  0  0
   16.3902   26.2092   -3.0768 C   0  0  0  0  0  0  0  0  0  0  0  0
   17.2209   27.0111   -2.3056 C   0  0  0  0  0  0  0  0  0  0  0  0
   17.7390   28.1725   -2.8074 C   0  0  0  0  0  0  0  0  0  0  0  0
   17.4290   28.5399   -4.0859 C   0  0  0  0  0  0  0  0  0  0  0  0
   16.5945   27.7667   -4.9079 C   0  0  0  0  0  0  0  0  0  0  0  0
   16.0758   26.5962   -4.3922 C   0  0  0  0  0  0  0  0  0  0  0  0
   15.5111   25.4530   -7.6029 O   0  0  0  0  0  0  0  0  0  0  0  0
   14.8602   26.1335   -6.5254 C   0  0  0  0  0  0  0  0  0  0  0  0
   14.0118   26.9350   -6.9347 O   0  0  0  0  0  0  0  0  0  0  0  0
   15.4557   24.4481   -7.6322 H   0  0  0  0  0  0  0  0  0  0  0  0
 27 28  1  0  0  0
 28 29  2  0  0  0
 28 17  1  0  0  0
 17 18  2  0  0  0
 18 19  1  0  0  0
 19 20  2  0  0  0
 20 21  1  0  0  0
 21 22  2  0  0  0
 22 23  1  0  0  0
 23 24  2  0  0  0
 24 25  1  0  0  0
 25 26  2  0  0  0
 19  1  1  0  0  0
  1  2  2  0  0  0
  1  3  1  0  0  0
  3  4  2  0  0  0
  4  5  1  0  0  0
  5  6  2  0  0  0
  6  7  1  0  0  0
  7  8  1  0  0  0
  7  9  2  0  0  0
  9 10  1  0  0  0
  9 11  1  0  0  0
 11 12  2  0  0  0
 12 13  1  0  0  0
 26 17  1  0  0  0
 13  3  1  0  0  0
 26 21  1  0  0  0
 12  5  1  0  0  0
 27 30  1  0  0  0
  8 14  1  0  0  0
 10 15  1  0  0  0
 13 16  1  0  0  0
M  END
> <minimizedAffinity>
-8.75809

> <CNNscore>
0.4547443986

> <CNNaffinity>
6.4992475510

> <CNN_VS>
2.9554963112

> <CNNaffinity_variance>
0.3181436658

$$$$
[H]OC(=O)c1c([H])c(C(=O)c2c([H])c3c([H])c(O[H])c(O[H])c([H])c3n2[H])c([H])c2c([H])c([H])c([H])c([H])c12


 30 33  0  0  0  0  0  0  0  0999 V2000
   13.7699   23.0226   -1.6478 C   0  0  0  0  0  0  0  0  0  0  0  0
   14.0889   21.8837   -2.1360 O   0  0  0  0  0  0  0  0  0  0  0  0
   12.8792   23.0461   -0.5055 C   0  0  0  0  0  0  0  0  0  0  0  0
   12.7412   22.0880    0.4691 C   0  0  0  0  0  0  0  0  0  0  0  0
   11.7818   22.5161    1.3671 C   0  0  0  0  0  0  0  0  0  0  0  0
   11.2590   21.9558    2.5124 C   0  0  0  0  0  0  0  0  0  0  0  0
   10.2978   22.5730    3.2541 C   0  0  0  0  0  0  0  0  0  0  0  0
    9.7834   21.9935    4.4041 O   0  0  0  0  0  0  0  0  0  0  0  0
    9.8420   23.8143    2.8208 C   0  0  0  0  0  0  0  0  0  0  0  0
    8.8635   24.4198    3.5945 O   0  0  0  0  0  0  0  0  0  0  0  0
   10.3648   24.3690    1.6797 C   0  0  0  0  0  0  0  0  0  0  0  0
   11.3492   23.7435    0.9145 C   0  0  0  0  0  0  0  0  0  0  0  0
   12.0221   24.0416   -0.2112 N   0  0  0  0  0  0  0  0  0  0  0  0
    9.0720   22.4897    4.9202 H   0  0  0  0  0  0  0  0  0  0  0  0
    8.5190   25.3181    3.2988 H   0  0  0  0  0  0  0  0  0  0  0  0
   11.8873   24.9268   -0.7680 H   0  0  0  0  0  0  0  0  0  0  0  0
   14.1371   26.1049   -3.7910 C   0  0  0  0  0  0  0  0  0  0  0  0
   13.6004   24.9456   -3.1859 C   0  0  0  0  0  0  0  0  0  0  0  0
   14.3309   24.2148   -2.2819 C   0  0  0  0  0  0  0  0  0  0  0  0
   15.5992   24.5879   -1.9411 C   0  0  0  0  0  0  0  0  0  0  0  0
   16.1481   25.7193   -2.5200 C   0  0  0  0  0  0  0  0  0  0  0  0
   17.4387   26.1077   -2.1860 C   0  0  0  0  0  0  0  0  0  0  0  0
   18.0051   27.2181   -2.7475 C   0  0  0  0  0  0  0  0  0  0  0  0
   17.2832   27.9484   -3.6481 C   0  0  0  0  0  0  0  0  0  0  0  0
   15.9754   27.6005   -4.0206 C   0  0  0  0  0  0  0  0  0  0  0  0
   15.4119   26.4782   -3.4479 C   0  0  0  0  0  0  0  0  0  0  0  0
   13.7225   26.9519   -6.0785 O   0  0  0  0  0  0  0  0  0  0  0  0
   13.2904   26.8303   -4.7197 C   0  0  0  0  0  0  0  0  0  0  0  0
   12.2045   27.3916   -4.5317 O   0  0  0  0  0  0  0  0  0  0  0  0
   13.8827   26.1076   -6.6032 H   0  0  0  0  0  0  0  0  0  0  0  0
 27 28  1  0  0  0
 28 29  2  0  0  0
 28 17  1  0  0  0
 17 18  2  0  0  0
 18 19  1  0  0  0
 19 20  2  0  0  0
 20 21  1  0  0  0
 21 22  2  0  0  0
 22 23  1  0  0  0
 23 24  2  0  0  0
 24 25  1  0  0  0
 25 26  2  0  0  0
 19  1  1  0  0  0
  1  2  2  0  0  0
  1  3  1  0  0  0
  3  4  2  0  0  0
  4  5  1  0  0  0
  5  6  2  0  0  0
  6  7  1  0  0  0
  7  8  1  0  0  0
  7  9  2  0  0  0
  9 10  1  0  0  0
  9 11  1  0  0  0
 11 12  2  0  0  0
 12 13  1  0  0  0
 26 17  1  0  0  0
 13  3  1  0  0  0
 26 21  1  0  0  0
 12  5  1  0  0  0
 27 30  1  0  0  0
  8 14  1  0  0  0
 10 15  1  0  0  0
 13 16  1  0  0  0
M  END
> <minimizedAffinity>
-7.75073

> <CNNscore>
0.4479059875

> <CNNaffinity>
6.2708806992

> <CNN_VS>
2.8087649345

> <CNNaffinity_variance>
0.2351634055

$$$$
[H]OC(=O)c1c([H])c(C(=O)c2c([H])c3c([H])c(O[H])c(O[H])c([H])c3n2[H])c([H])c2c([H])c([H])c([H])c([H])c12


 30 33  0  0  0  0  0  0  0  0999 V2000
   13.0442   26.2934   -2.7827 C   0  0  0  0  0  0  0  0  0  0  0  0
   12.3886   27.3633   -2.5327 O   0  0  0  0  0  0  0  0  0  0  0  0
   13.8286   26.2467   -3.9998 C   0  0  0  0  0  0  0  0  0  0  0  0
   13.5601   25.5337   -5.1427 C   0  0  0  0  0  0  0  0  0  0  0  0
   14.5683   25.7792   -6.0555 C   0  0  0  0  0  0  0  0  0  0  0  0
   14.7959   25.3303   -7.3383 C   0  0  0  0  0  0  0  0  0  0  0  0
   15.8825   25.7140   -8.0642 C   0  0  0  0  0  0  0  0  0  0  0  0
   16.0950   25.2515   -9.3541 O   0  0  0  0  0  0  0  0  0  0  0  0
   16.7826   26.5924   -7.4687 C   0  0  0  0  0  0  0  0  0  0  0  0
   17.8794   26.9663   -8.2301 O   0  0  0  0  0  0  0  0  0  0  0  0
   16.5527   27.0373   -6.1911 C   0  0  0  0  0  0  0  0  0  0  0  0
   15.4425   26.6490   -5.4411 C   0  0  0  0  0  0  0  0  0  0  0  0
   14.9781   26.9160   -4.2073 N   0  0  0  0  0  0  0  0  0  0  0  0
   16.9153   25.5644   -9.8521 H   0  0  0  0  0  0  0  0  0  0  0  0
   18.5436   27.6008   -7.8183 H   0  0  0  0  0  0  0  0  0  0  0  0
   15.4544   27.5561   -3.5182 H   0  0  0  0  0  0  0  0  0  0  0  0
   11.6522   23.7780   -0.3407 C   0  0  0  0  0  0  0  0  0  0  0  0
   11.7456   24.8437   -1.2646 C   0  0  0  0  0  0  0  0  0  0  0  0
   12.9510   25.1985   -1.8180 C   0  0  0  0  0  0  0  0  0  0  0  0
   14.0958   24.5305   -1.4910 C   0  0  0  0  0  0  0  0  0  0  0  0
   14.0312   23.4831   -0.5881 C   0  0  0  0  0  0  0  0  0  0  0  0
   15.1886   22.7980   -0.2430 C   0  0  0  0  0  0  0  0  0  0  0  0
   15.1521   21.7634    0.6500 C   0  0  0  0  0  0  0  0  0  0  0  0
   13.9558   21.4067    1.2043 C   0  0  0  0  0  0  0  0  0  0  0  0
   12.7567   22.0652    0.8903 C   0  0  0  0  0  0  0  0  0  0  0  0
   12.8035   23.1080   -0.0126 C   0  0  0  0  0  0  0  0  0  0  0  0
    9.2552   23.3169   -0.7459 O   0  0  0  0  0  0  0  0  0  0  0  0
   10.3369   23.4553    0.1807 C   0  0  0  0  0  0  0  0  0  0  0  0
    9.9687   23.2704    1.3468 O   0  0  0  0  0  0  0  0  0  0  0  0
    9.3366   22.6226   -1.4705 H   0  0  0  0  0  0  0  0  0  0  0  0
 27 28  1  0  0  0
 28 29  2  0  0  0
 28 17  1  0  0  0
 17 18  2  0  0  0
 18 19  1  0  0  0
 19 20  2  0  0  0
 20 21  1  0  0  0
 21 22  2  0  0  0
 22 23  1  0  0  0
 23 24  2  0  0  0
 24 25  1  0  0  0
 25 26  2  0  0  0
 19  1  1  0  0  0
  1  2  2  0  0  0
  1  3  1  0  0  0
  3  4  2  0  0  0
  4  5  1  0  0  0
  5  6  2  0  0  0
  6  7  1  0  0  0
  7  8  1  0  0  0
  7  9  2  0  0  0
  9 10  1  0  0  0
  9 11  1  0  0  0
 11 12  2  0  0  0
 12 13  1  0  0  0
 26 17  1  0  0  0
 13  3  1  0  0  0
 26 21  1  0  0  0
 12  5  1  0  0  0
 27 30  1  0  0  0
  8 14  1  0  0  0
 10 15  1  0  0  0
 13 16  1  0  0  0
M  END
> <minimizedAffinity>
3.95161

> <CNNscore>
0.4327945113

> <CNNaffinity>
6.2884030342

> <CNN_VS>
2.7215862274

> <CNNaffinity_variance>
0.4772015512

$$$$
[H]OC(=O)c1c([H])c(C(=O)c2c([H])c3c([H])c(O[H])c(O[H])c([H])c3n2[H])c([H])c2c([H])c([H])c([H])c([H])c12


 30 33  0  0  0  0  0  0  0  0999 V2000
   12.8993   23.0555   -0.0350 C   0  0  0  0  0  0  0  0  0  0  0  0
   13.7816   22.6780    0.8111 O   0  0  0  0  0  0  0  0  0  0  0  0
   13.3524   23.7408   -1.2283 C   0  0  0  0  0  0  0  0  0  0  0  0
   13.0151   25.0046   -1.6477 C   0  0  0  0  0  0  0  0  0  0  0  0
   13.6746   25.2592   -2.8353 C   0  0  0  0  0  0  0  0  0  0  0  0
   13.6967   26.3515   -3.6752 C   0  0  0  0  0  0  0  0  0  0  0  0
   14.4363   26.3784   -4.8186 C   0  0  0  0  0  0  0  0  0  0  0  0
   14.4459   27.4868   -5.6518 O   0  0  0  0  0  0  0  0  0  0  0  0
   15.1896   25.2507   -5.1301 C   0  0  0  0  0  0  0  0  0  0  0  0
   15.9327   25.3055   -6.2995 O   0  0  0  0  0  0  0  0  0  0  0  0
   15.1650   24.1649   -4.2913 C   0  0  0  0  0  0  0  0  0  0  0  0
   14.4103   24.1293   -3.1187 C   0  0  0  0  0  0  0  0  0  0  0  0
   14.2014   23.2307   -2.1400 N   0  0  0  0  0  0  0  0  0  0  0  0
   15.0098   27.4592   -6.4885 H   0  0  0  0  0  0  0  0  0  0  0  0
   16.4846   24.5001   -6.5442 H   0  0  0  0  0  0  0  0  0  0  0  0
   14.6442   22.2744   -2.1062 H   0  0  0  0  0  0  0  0  0  0  0  0
    9.4508   23.2311    1.4834 C   0  0  0  0  0  0  0  0  0  0  0  0
   10.8080   23.5034    1.1973 C   0  0  0  0  0  0  0  0  0  0  0  0
   11.4987   22.7649    0.2686 C   0  0  0  0  0  0  0  0  0  0  0  0
   10.8928   21.7445   -0.4064 C   0  0  0  0  0  0  0  0  0  0  0  0
    9.5642   21.4573   -0.1440 C   0  0  0  0  0  0  0  0  0  0  0  0
    8.9368   20.4192   -0.8198 C   0  0  0  0  0  0  0  0  0  0  0  0
    7.6272   20.1124   -0.5752 C   0  0  0  0  0  0  0  0  0  0  0  0
    6.9355   20.8433    0.3484 C   0  0  0  0  0  0  0  0  0  0  0  0
    7.5211   21.9025    1.0592 C   0  0  0  0  0  0  0  0  0  0  0  0
    8.8435   22.2050    0.8049 C   0  0  0  0  0  0  0  0  0  0  0  0
    9.4507   24.3092    3.7105 O   0  0  0  0  0  0  0  0  0  0  0  0
    8.7897   24.0727    2.4635 C   0  0  0  0  0  0  0  0  0  0  0  0
    7.6977   24.6505    2.4063 O   0  0  0  0  0  0  0  0  0  0  0  0
   10.3618   24.7373    3.6913 H   0  0  0  0  0  0  0  0  0  0  0  0
 27 28  1  0  0  0
 28 29  2  0  0  0
 28 17  1  0  0  0
 17 18  2  0  0  0
 18 19  1  0  0  0
 19 20  2  0  0  0
 20 21  1  0  0  0
 21 22  2  0  0  0
 22 23  1  0  0  0
 23 24  2  0  0  0
 24 25  1  0  0  0
 25 26  2  0  0  0
 19  1  1  0  0  0
  1  2  2  0  0  0
  1  3  1  0  0  0
  3  4  2  0  0  0
  4  5  1  0  0  0
  5  6  2  0  0  0
  6  7  1  0  0  0
  7  8  1  0  0  0
  7  9  2  0  0  0
  9 10  1  0  0  0
  9 11  1  0  0  0
 11 12  2  0  0  0
 12 13  1  0  0  0
 26 17  1  0  0  0
 13  3  1  0  0  0
 26 21  1  0  0  0
 12  5  1  0  0  0
 27 30  1  0  0  0
  8 14  1  0  0  0
 10 15  1  0  0  0
 13 16  1  0  0  0
M  END
> <minimizedAffinity>
-9.02302

> <CNNscore>
0.4086763859

> <CNNaffinity>
6.3272185326

> <CNN_VS>
2.5857849121

> <CNNaffinity_variance>
0.0320875719

$$$$
[H]OC(=O)c1c([H])c(C(=O)c2c([H])c3c([H])c(O[H])c(O[H])c([H])c3n2[H])c([H])c2c([H])c([H])c([H])c([H])c12


 30 33  0  0  0  0  0  0  0  0999 V2000
   14.7904   22.6846   -3.4018 C   0  0  0  0  0  0  0  0  0  0  0  0
   15.0931   21.6533   -4.0959 O   0  0  0  0  0  0  0  0  0  0  0  0
   13.9720   22.4925   -2.2219 C   0  0  0  0  0  0  0  0  0  0  0  0
   13.3667   23.4587   -1.4558 C   0  0  0  0  0  0  0  0  0  0  0  0
   12.6842   22.8349   -0.4286 C   0  0  0  0  0  0  0  0  0  0  0  0
   11.9193   23.3164    0.6116 C   0  0  0  0  0  0  0  0  0  0  0  0
   11.3309   22.4962    1.5259 C   0  0  0  0  0  0  0  0  0  0  0  0
   10.5646   22.9992    2.5664 O   0  0  0  0  0  0  0  0  0  0  0  0
   11.5223   21.1252    1.3848 C   0  0  0  0  0  0  0  0  0  0  0  0
   10.9121   20.3138    2.3292 O   0  0  0  0  0  0  0  0  0  0  0  0
   12.2846   20.6493    0.3477 C   0  0  0  0  0  0  0  0  0  0  0  0
   12.8907   21.4825   -0.5927 C   0  0  0  0  0  0  0  0  0  0  0  0
   13.6669   21.3004   -1.6759 N   0  0  0  0  0  0  0  0  0  0  0  0
   10.1488   22.3513    3.2192 H   0  0  0  0  0  0  0  0  0  0  0  0
   11.0381   19.3186    2.2462 H   0  0  0  0  0  0  0  0  0  0  0  0
   13.9803   20.3586   -2.0314 H   0  0  0  0  0  0  0  0  0  0  0  0
   15.6898   25.6073   -5.6104 C   0  0  0  0  0  0  0  0  0  0  0  0
   15.2124   24.3505   -5.1737 C   0  0  0  0  0  0  0  0  0  0  0  0
   15.2955   23.9801   -3.8542 C   0  0  0  0  0  0  0  0  0  0  0  0
   15.8426   24.8172   -2.9247 C   0  0  0  0  0  0  0  0  0  0  0  0
   16.3179   26.0536   -3.3269 C   0  0  0  0  0  0  0  0  0  0  0  0
   16.8811   26.9129   -2.3929 C   0  0  0  0  0  0  0  0  0  0  0  0
   17.3621   28.1371   -2.7656 C   0  0  0  0  0  0  0  0  0  0  0  0
   17.2828   28.5103   -4.0771 C   0  0  0  0  0  0  0  0  0  0  0  0
   16.7234   27.6807   -5.0614 C   0  0  0  0  0  0  0  0  0  0  0  0
   16.2398   26.4470   -4.6753 C   0  0  0  0  0  0  0  0  0  0  0  0
   16.2531   27.0598   -7.5326 O   0  0  0  0  0  0  0  0  0  0  0  0
   15.5447   25.9278   -7.0183 C   0  0  0  0  0  0  0  0  0  0  0  0
   14.8806   25.3644   -7.8964 O   0  0  0  0  0  0  0  0  0  0  0  0
   17.2564   27.0706   -7.4482 H   0  0  0  0  0  0  0  0  0  0  0  0
 27 28  1  0  0  0
 28 29  2  0  0  0
 28 17  1  0  0  0
 17 18  2  0  0  0
 18 19  1  0  0  0
 19 20  2  0  0  0
 20 21  1  0  0  0
 21 22  2  0  0  0
 22 23  1  0  0  0
 23 24  2  0  0  0
 24 25  1  0  0  0
 25 26  2  0  0  0
 19  1  1  0  0  0
  1  2  2  0  0  0
  1  3  1  0  0  0
  3  4  2  0  0  0
  4  5  1  0  0  0
  5  6  2  0  0  0
  6  7  1  0  0  0
  7  8  1  0  0  0
  7  9  2  0  0  0
  9 10  1  0  0  0
  9 11  1  0  0  0
 11 12  2  0  0  0
 12 13  1  0  0  0
 26 17  1  0  0  0
 13  3  1  0  0  0
 26 21  1  0  0  0
 12  5  1  0  0  0
 27 30  1  0  0  0
  8 14  1  0  0  0
 10 15  1  0  0  0
 13 16  1  0  0  0
M  END
> <minimizedAffinity>
-8.52432

> <CNNscore>
0.3827347159

> <CNNaffinity>
6.4138231277

> <CNN_VS>
2.4547927380

> <CNNaffinity_variance>
0.2799524069

$$$$
[H]c1nc(Oc2nc([H])c(-c3c([H])c([H])c(C#N)c([H])c3[H])c(C(F)(F)F)c2[H])c(C([H])([H])[H])c(N([H])C(=O)N([H])C2([H])C([H])([H])C([H])([H])N(C([H])([H])[H])C([H])([H])C2([H])[H])n1


 39 42  0  0  0  0  0  0  0  0999 V2000
   13.9696   26.0052   -3.7471 C   0  0  0  0  0  0  0  0  0  0  0  0
   12.9881   25.2272   -3.1814 C   0  0  0  0  0  0  0  0  0  0  0  0
   13.3837   23.9514   -2.5340 C   0  0  0  0  0  0  0  0  0  0  0  0
   11.6475   25.6230   -3.2109 C   0  0  0  0  0  0  0  0  0  0  0  0
   11.3286   26.7855   -3.8055 N   0  0  0  0  0  0  0  0  0  0  0  0
   12.2905   27.5405   -4.3557 C   0  0  0  0  0  0  0  0  0  0  0  0
   13.6034   27.1550   -4.3280 N   0  0  0  0  0  0  0  0  0  0  0  0
   10.6643   24.7822   -2.6101 N   0  0  0  0  0  0  0  0  0  0  0  0
   10.7044   24.5467   -1.1992 C   0  0  0  0  0  0  0  0  0  0  0  0
    9.7501   23.7232   -0.5807 N   0  0  0  0  0  0  0  0  0  0  0  0
   11.5999   25.0810   -0.5107 O   0  0  0  0  0  0  0  0  0  0  0  0
    9.9271   24.3495   -3.2122 H   0  0  0  0  0  0  0  0  0  0  0  0
    9.0022   23.2779   -1.1627 H   0  0  0  0  0  0  0  0  0  0  0  0
    9.7943   23.4889    0.8447 C   0  0  0  0  0  0  0  0  0  0  0  0
    8.6155   24.1485    1.5506 C   0  0  0  0  0  0  0  0  0  0  0  0
    8.9317   24.1777    3.0272 C   0  0  0  0  0  0  0  0  0  0  0  0
    9.8435   23.1262    3.4113 N   0  0  0  0  0  0  0  0  0  0  0  0
    9.7192   22.8859    4.8170 C   0  0  0  0  0  0  0  0  0  0  0  0
    9.5416   21.9094    2.6856 C   0  0  0  0  0  0  0  0  0  0  0  0
    9.7704   22.0283    1.2061 C   0  0  0  0  0  0  0  0  0  0  0  0
   15.2759   25.5857   -3.6999 O   0  0  0  0  0  0  0  0  0  0  0  0
   17.3521   24.8383   -0.1559 C   0  0  0  0  0  0  0  0  0  0  0  0
   17.9710   25.4483   -1.2587 C   0  0  0  0  0  0  0  0  0  0  0  0
   17.2819   25.6791   -2.3899 N   0  0  0  0  0  0  0  0  0  0  0  0
   15.9839   25.3437   -2.5235 C   0  0  0  0  0  0  0  0  0  0  0  0
   15.3703   24.7469   -1.4499 C   0  0  0  0  0  0  0  0  0  0  0  0
   16.0338   24.4787   -0.2413 C   0  0  0  0  0  0  0  0  0  0  0  0
   19.7175   25.4159    2.6619 C   0  0  0  0  0  0  0  0  0  0  0  0
   18.9489   25.5750    1.5364 C   0  0  0  0  0  0  0  0  0  0  0  0
   18.1064   24.5801    1.0636 C   0  0  0  0  0  0  0  0  0  0  0  0
   18.0498   23.3984    1.7564 C   0  0  0  0  0  0  0  0  0  0  0  0
   18.8136   23.2310    2.8816 C   0  0  0  0  0  0  0  0  0  0  0  0
   19.6471   24.2236    3.3444 C   0  0  0  0  0  0  0  0  0  0  0  0
   20.4444   24.0196    4.5380 C   0  0  0  0  0  0  0  0  0  0  0  0
   21.0648   23.8605    5.5008 N   0  0  0  0  0  0  0  0  0  0  0  0
   15.3310   23.8480    0.8750 C   0  0  0  0  0  0  0  0  0  0  0  0
   14.1054   23.3087    0.5321 F   0  0  0  0  0  0  0  0  0  0  0  0
   16.1007   22.7121    1.2330 F   0  0  0  0  0  0  0  0  0  0  0  0
   15.3062   24.6504    1.9775 F   0  0  0  0  0  0  0  0  0  0  0  0
 28 29  2  0  0  0
 29 30  1  0  0  0
 30 22  1  0  0  0
 22 23  2  0  0  0
 23 24  1  0  0  0
 24 25  2  0  0  0
 25 21  1  0  0  0
 21  1  1  0  0  0
  1  2  2  0  0  0
  2  3  1  0  0  0
  2  4  1  0  0  0
  4  8  1  0  0  0
  8  9  1  0  0  0
  9 10  1  0  0  0
 10 14  1  0  0  0
 14 15  1  0  0  0
 15 16  1  0  0  0
 16 17  1  0  0  0
 17 18  1  0  0  0
 17 19  1  0  0  0
 19 20  1  0  0  0
  9 11  2  0  0  0
  4  5  2  0  0  0
  5  6  1  0  0  0
  6  7  2  0  0  0
 25 26  1  0  0  0
 26 27  2  0  0  0
 27 36  1  0  0  0
 36 37  1  0  0  0
 36 38  1  0  0  0
 36 39  1  0  0  0
 30 31  2  0  0  0
 31 32  1  0  0  0
 32 33  2  0  0  0
 33 34  1  0  0  0
 34 35  3  0  0  0
 33 28  1  0  0  0
 27 22  1  0  0  0
  7  1  1  0  0  0
 20 14  1  0  0  0
  8 12  1  0  0  0
 10 13  1  0  0  0
M  END
> <minimizedAffinity>
25.99654

> <CNNscore>
0.5750553608

> <CNNaffinity>
7.3630094528

> <CNN_VS>
4.2341380119

> <CNNaffinity_variance>
0.6477816701

$$$$
[H]c1nc(Oc2nc([H])c(-c3c([H])c([H])c(C#N)c([H])c3[H])c(C(F)(F)F)c2[H])c(C([H])([H])[H])c(N([H])C(=O)N([H])C2([H])C([H])([H])C([H])([H])N(C([H])([H])[H])C([H])([H])C2([H])[H])n1


 39 42  0  0  0  0  0  0  0  0999 V2000
   14.3739   26.4307   -3.6479 C   0  0  0  0  0  0  0  0  0  0  0  0
   13.7954   25.2510   -3.2450 C   0  0  0  0  0  0  0  0  0  0  0  0
   14.6757   24.0827   -2.9931 C   0  0  0  0  0  0  0  0  0  0  0  0
   12.4117   25.1478   -3.0738 C   0  0  0  0  0  0  0  0  0  0  0  0
   11.6477   26.2280   -3.3108 N   0  0  0  0  0  0  0  0  0  0  0  0
   12.2177   27.3764   -3.7035 C   0  0  0  0  0  0  0  0  0  0  0  0
   13.5720   27.4796   -3.8718 N   0  0  0  0  0  0  0  0  0  0  0  0
   11.8573   23.9024   -2.6539 N   0  0  0  0  0  0  0  0  0  0  0  0
   11.1530   23.8271   -1.4105 C   0  0  0  0  0  0  0  0  0  0  0  0
   10.5973   22.6147   -0.9716 N   0  0  0  0  0  0  0  0  0  0  0  0
   11.0319   24.8534   -0.7080 O   0  0  0  0  0  0  0  0  0  0  0  0
   11.9745   23.0611   -3.2635 H   0  0  0  0  0  0  0  0  0  0  0  0
   10.7022   21.7579   -1.5642 H   0  0  0  0  0  0  0  0  0  0  0  0
    9.8864   22.5438    0.2847 C   0  0  0  0  0  0  0  0  0  0  0  0
    8.3781   22.5808    0.0696 C   0  0  0  0  0  0  0  0  0  0  0  0
    7.7382   22.8769    1.4052 C   0  0  0  0  0  0  0  0  0  0  0  0
    8.5626   22.4522    2.5118 N   0  0  0  0  0  0  0  0  0  0  0  0
    7.7430   22.2906    3.6743 C   0  0  0  0  0  0  0  0  0  0  0  0
    9.2118   21.1950    2.2011 C   0  0  0  0  0  0  0  0  0  0  0  0
   10.1947   21.2980    1.0704 C   0  0  0  0  0  0  0  0  0  0  0  0
   15.7360   26.4963   -3.8061 O   0  0  0  0  0  0  0  0  0  0  0  0
   18.4670   25.3247   -0.8738 C   0  0  0  0  0  0  0  0  0  0  0  0
   18.8769   25.6445   -2.1780 C   0  0  0  0  0  0  0  0  0  0  0  0
   17.9790   26.0195   -3.1057 N   0  0  0  0  0  0  0  0  0  0  0  0
   16.6614   26.1071   -2.8386 C   0  0  0  0  0  0  0  0  0  0  0  0
   16.2513   25.7966   -1.5656 C   0  0  0  0  0  0  0  0  0  0  0  0
   17.1383   25.3986   -0.5518 C   0  0  0  0  0  0  0  0  0  0  0  0
   21.7707   24.8456    0.7767 C   0  0  0  0  0  0  0  0  0  0  0  0
   20.7769   25.2168   -0.0935 C   0  0  0  0  0  0  0  0  0  0  0  0
   19.4427   24.9079    0.1247 C   0  0  0  0  0  0  0  0  0  0  0  0
   19.1192   24.2044    1.2561 C   0  0  0  0  0  0  0  0  0  0  0  0
   20.1052   23.8299    2.1308 C   0  0  0  0  0  0  0  0  0  0  0  0
   21.4271   24.1408    1.9070 C   0  0  0  0  0  0  0  0  0  0  0  0
   22.4502   23.7319    2.8494 C   0  0  0  0  0  0  0  0  0  0  0  0
   23.2613   23.4205    3.6125 N   0  0  0  0  0  0  0  0  0  0  0  0
   16.6500   25.0865    0.7906 C   0  0  0  0  0  0  0  0  0  0  0  0
   16.7543   23.7502    1.1278 F   0  0  0  0  0  0  0  0  0  0  0  0
   17.5416   25.7226    1.6913 F   0  0  0  0  0  0  0  0  0  0  0  0
   15.4228   25.6336    1.0241 F   0  0  0  0  0  0  0  0  0  0  0  0
 28 29  2  0  0  0
 29 30  1  0  0  0
 30 22  1  0  0  0
 22 23  2  0  0  0
 23 24  1  0  0  0
 24 25  2  0  0  0
 25 21  1  0  0  0
 21  1  1  0  0  0
  1  2  2  0  0  0
  2  3  1  0  0  0
  2  4  1  0  0  0
  4  8  1  0  0  0
  8  9  1  0  0  0
  9 10  1  0  0  0
 10 14  1  0  0  0
 14 15  1  0  0  0
 15 16  1  0  0  0
 16 17  1  0  0  0
 17 18  1  0  0  0
 17 19  1  0  0  0
 19 20  1  0  0  0
  9 11  2  0  0  0
  4  5  2  0  0  0
  5  6  1  0  0  0
  6  7  2  0  0  0
 25 26  1  0  0  0
 26 27  2  0  0  0
 27 36  1  0  0  0
 36 37  1  0  0  0
 36 38  1  0  0  0
 36 39  1  0  0  0
 30 31  2  0  0  0
 31 32  1  0  0  0
 32 33  2  0  0  0
 33 34  1  0  0  0
 34 35  3  0  0  0
 33 28  1  0  0  0
 27 22  1  0  0  0
  7  1  1  0  0  0
 20 14  1  0  0  0
  8 12  1  0  0  0
 10 13  1  0  0  0
M  END
> <minimizedAffinity>
41.93628

> <CNNscore>
0.4450828135

> <CNNaffinity>
7.2031874657

> <CNN_VS>
3.2060148716

> <CNNaffinity_variance>
1.2348121405

$$$$
[H]c1nc(Oc2nc([H])c(-c3c([H])c([H])c(C#N)c([H])c3[H])c(C(F)(F)F)c2[H])c(C([H])([H])[H])c(N([H])C(=O)N([H])C2([H])C([H])([H])C([H])([H])N(C([H])([H])[H])C([H])([H])C2([H])[H])n1


 39 42  0  0  0  0  0  0  0  0999 V2000
   15.9649   26.1042   -5.0076 C   0  0  0  0  0  0  0  0  0  0  0  0
   15.5832   24.8409   -4.6243 C   0  0  0  0  0  0  0  0  0  0  0  0
   15.8185   24.4282   -3.2180 C   0  0  0  0  0  0  0  0  0  0  0  0
   14.9861   23.9613   -5.5323 C   0  0  0  0  0  0  0  0  0  0  0  0
   14.7886   24.3718   -6.7969 N   0  0  0  0  0  0  0  0  0  0  0  0
   15.1630   25.6055   -7.1651 C   0  0  0  0  0  0  0  0  0  0  0  0
   15.7477   26.4682   -6.2779 N   0  0  0  0  0  0  0  0  0  0  0  0
   14.6066   22.6601   -5.0878 N   0  0  0  0  0  0  0  0  0  0  0  0
   14.1860   22.4722   -3.7330 C   0  0  0  0  0  0  0  0  0  0  0  0
   13.8073   21.2028   -3.2677 N   0  0  0  0  0  0  0  0  0  0  0  0
   14.1558   23.4504   -2.9561 O   0  0  0  0  0  0  0  0  0  0  0  0
   14.6418   21.8612   -5.7614 H   0  0  0  0  0  0  0  0  0  0  0  0
   13.8349   20.3867   -3.9231 H   0  0  0  0  0  0  0  0  0  0  0  0
   13.3827   21.0181   -1.8987 C   0  0  0  0  0  0  0  0  0  0  0  0
   12.4016   19.8583   -1.7755 C   0  0  0  0  0  0  0  0  0  0  0  0
   11.7368   19.9702   -0.4240 C   0  0  0  0  0  0  0  0  0  0  0  0
   12.5632   20.6640    0.5353 N   0  0  0  0  0  0  0  0  0  0  0  0
   12.1416   20.3159    1.8584 C   0  0  0  0  0  0  0  0  0  0  0  0
   13.9533   20.2963    0.3598 C   0  0  0  0  0  0  0  0  0  0  0  0
   14.5230   20.7400   -0.9569 C   0  0  0  0  0  0  0  0  0  0  0  0
   16.5486   26.9418   -4.0896 O   0  0  0  0  0  0  0  0  0  0  0  0
   18.0094   25.6936   -0.3832 C   0  0  0  0  0  0  0  0  0  0  0  0
   18.8475   26.2728   -1.3493 C   0  0  0  0  0  0  0  0  0  0  0  0
   18.3543   26.6673   -2.5362 N   0  0  0  0  0  0  0  0  0  0  0  0
   17.0528   26.5307   -2.8565 C   0  0  0  0  0  0  0  0  0  0  0  0
   16.2255   25.9656   -1.9176 C   0  0  0  0  0  0  0  0  0  0  0  0
   16.6781   25.5332   -0.6602 C   0  0  0  0  0  0  0  0  0  0  0  0
   19.5002   25.9140    3.0222 C   0  0  0  0  0  0  0  0  0  0  0  0
   18.9557   26.2269    1.8022 C   0  0  0  0  0  0  0  0  0  0  0  0
   18.5510   25.2573    0.8970 C   0  0  0  0  0  0  0  0  0  0  0  0
   18.7072   23.9411    1.2473 C   0  0  0  0  0  0  0  0  0  0  0  0
   19.2498   23.6195    2.4638 C   0  0  0  0  0  0  0  0  0  0  0  0
   19.6486   24.5879    3.3567 C   0  0  0  0  0  0  0  0  0  0  0  0
   20.2198   24.2194    4.6373 C   0  0  0  0  0  0  0  0  0  0  0  0
   20.6576   23.9218    5.6653 N   0  0  0  0  0  0  0  0  0  0  0  0
   15.7530   24.9447    0.3071 C   0  0  0  0  0  0  0  0  0  0  0  0
   16.2109   23.7722    0.8781 F   0  0  0  0  0  0  0  0  0  0  0  0
   15.7030   25.8449    1.4016 F   0  0  0  0  0  0  0  0  0  0  0  0
   14.4824   24.8751   -0.1834 F   0  0  0  0  0  0  0  0  0  0  0  0
 28 29  2  0  0  0
 29 30  1  0  0  0
 30 22  1  0  0  0
 22 23  2  0  0  0
 23 24  1  0  0  0
 24 25  2  0  0  0
 25 21  1  0  0  0
 21  1  1  0  0  0
  1  2  2  0  0  0
  2  3  1  0  0  0
  2  4  1  0  0  0
  4  8  1  0  0  0
  8  9  1  0  0  0
  9 10  1  0  0  0
 10 14  1  0  0  0
 14 15  1  0  0  0
 15 16  1  0  0  0
 16 17  1  0  0  0
 17 18  1  0  0  0
 17 19  1  0  0  0
 19 20  1  0  0  0
  9 11  2  0  0  0
  4  5  2  0  0  0
  5  6  1  0  0  0
  6  7  2  0  0  0
 25 26  1  0  0  0
 26 27  2  0  0  0
 27 36  1  0  0  0
 36 37  1  0  0  0
 36 38  1  0  0  0
 36 39  1  0  0  0
 30 31  2  0  0  0
 31 32  1  0  0  0
 32 33  2  0  0  0
 33 34  1  0  0  0
 34 35  3  0  0  0
 33 28  1  0  0  0
 27 22  1  0  0  0
  7  1  1  0  0  0
 20 14  1  0  0  0
  8 12  1  0  0  0
 10 13  1  0  0  0
M  END
> <minimizedAffinity>
37.61561

> <CNNscore>
0.4022337198

> <CNNaffinity>
7.7018837929

> <CNN_VS>
3.0979573727

> <CNNaffinity_variance>
1.0164285898

$$$$
[H]c1nc(Oc2nc([H])c(-c3c([H])c([H])c(C#N)c([H])c3[H])c(C(F)(F)F)c2[H])c(C([H])([H])[H])c(N([H])C(=O)N([H])C2([H])C([H])([H])C([H])([H])N(C([H])([H])[H])C([H])([H])C2([H])[H])n1


 39 42  0  0  0  0  0  0  0  0999 V2000
   12.8772   22.1715   -1.7642 C   0  0  0  0  0  0  0  0  0  0  0  0
   11.9211   22.3341   -0.7906 C   0  0  0  0  0  0  0  0  0  0  0  0
   10.9464   23.4440   -0.9363 C   0  0  0  0  0  0  0  0  0  0  0  0
   11.8622   21.4772    0.3126 C   0  0  0  0  0  0  0  0  0  0  0  0
   12.7616   20.4830    0.4089 N   0  0  0  0  0  0  0  0  0  0  0  0
   13.6921   20.3292   -0.5442 C   0  0  0  0  0  0  0  0  0  0  0  0
   13.7517   21.1668   -1.6249 N   0  0  0  0  0  0  0  0  0  0  0  0
   10.8516   21.6855    1.2975 N   0  0  0  0  0  0  0  0  0  0  0  0
    9.4790   21.4661    0.9572 C   0  0  0  0  0  0  0  0  0  0  0  0
    8.4630   21.6637    1.9059 N   0  0  0  0  0  0  0  0  0  0  0  0
    9.1827   21.0944   -0.1984 O   0  0  0  0  0  0  0  0  0  0  0  0
   11.1305   21.9962    2.2560 H   0  0  0  0  0  0  0  0  0  0  0  0
    8.7172   21.9756    2.8726 H   0  0  0  0  0  0  0  0  0  0  0  0
    7.0783   21.4403    1.5577 C   0  0  0  0  0  0  0  0  0  0  0  0
    6.9155   20.1783    0.7189 C   0  0  0  0  0  0  0  0  0  0  0  0
    5.5394   20.2226    0.0981 C   0  0  0  0  0  0  0  0  0  0  0  0
    4.6139   21.0104    0.8774 N   0  0  0  0  0  0  0  0  0  0  0  0
    3.2749   20.6247    0.5489 C   0  0  0  0  0  0  0  0  0  0  0  0
    4.8427   20.8003    2.2923 C   0  0  0  0  0  0  0  0  0  0  0  0
    6.1812   21.2976    2.7575 C   0  0  0  0  0  0  0  0  0  0  0  0
   12.9058   23.0315   -2.8340 O   0  0  0  0  0  0  0  0  0  0  0  0
   15.7859   26.0126   -3.3317 C   0  0  0  0  0  0  0  0  0  0  0  0
   14.7874   25.7839   -4.2919 C   0  0  0  0  0  0  0  0  0  0  0  0
   13.8702   24.8179   -4.1098 N   0  0  0  0  0  0  0  0  0  0  0  0
   13.8599   24.0317   -3.0157 C   0  0  0  0  0  0  0  0  0  0  0  0
   14.8325   24.2484   -2.0710 C   0  0  0  0  0  0  0  0  0  0  0  0
   15.8183   25.2404   -2.2015 C   0  0  0  0  0  0  0  0  0  0  0  0
   17.3497   29.3921   -3.2984 C   0  0  0  0  0  0  0  0  0  0  0  0
   16.4842   28.3418   -3.1240 C   0  0  0  0  0  0  0  0  0  0  0  0
   16.7843   27.0531   -3.5393 C   0  0  0  0  0  0  0  0  0  0  0  0
   17.9943   26.8352   -4.1459 C   0  0  0  0  0  0  0  0  0  0  0  0
   18.8649   27.8782   -4.3239 C   0  0  0  0  0  0  0  0  0  0  0  0
   18.5596   29.1543   -3.9085 C   0  0  0  0  0  0  0  0  0  0  0  0
   19.4996   30.2396   -4.1095 C   0  0  0  0  0  0  0  0  0  0  0  0
   20.2639   31.0932   -4.2660 N   0  0  0  0  0  0  0  0  0  0  0  0
   16.8273   25.4350   -1.1615 C   0  0  0  0  0  0  0  0  0  0  0  0
   18.1193   25.5241   -1.6444 F   0  0  0  0  0  0  0  0  0  0  0  0
   16.5901   26.7236   -0.6193 F   0  0  0  0  0  0  0  0  0  0  0  0
   16.6694   24.5563   -0.1305 F   0  0  0  0  0  0  0  0  0  0  0  0
 28 29  2  0  0  0
 29 30  1  0  0  0
 30 22  1  0  0  0
 22 23  2  0  0  0
 23 24  1  0  0  0
 24 25  2  0  0  0
 25 21  1  0  0  0
 21  1  1  0  0  0
  1  2  2  0  0  0
  2  3  1  0  0  0
  2  4  1  0  0  0
  4  8  1  0  0  0
  8  9  1  0  0  0
  9 10  1  0  0  0
 10 14  1  0  0  0
 14 15  1  0  0  0
 15 16  1  0  0  0
 16 17  1  0  0  0
 17 18  1  0  0  0
 17 19  1  0  0  0
 19 20  1  0  0  0
  9 11  2  0  0  0
  4  5  2  0  0  0
  5  6  1  0  0  0
  6  7  2  0  0  0
 25 26  1  0  0  0
 26 27  2  0  0  0
 27 36  1  0  0  0
 36 37  1  0  0  0
 36 38  1  0  0  0
 36 39  1  0  0  0
 30 31  2  0  0  0
 31 32  1  0  0  0
 32 33  2  0  0  0
 33 34  1  0  0  0
 34 35  3  0  0  0
 33 28  1  0  0  0
 27 22  1  0  0  0
  7  1  1  0  0  0
 20 14  1  0  0  0
  8 12  1  0  0  0
 10 13  1  0  0  0
M  END
> <minimizedAffinity>
9.62763

> <CNNscore>
0.3910660148

> <CNNaffinity>
7.1455755234

> <CNN_VS>
2.7943916321

> <CNNaffinity_variance>
1.7545499802

$$$$
[H]c1nc(Oc2nc([H])c(-c3c([H])c([H])c(C#N)c([H])c3[H])c(C(F)(F)F)c2[H])c(C([H])([H])[H])c(N([H])C(=O)N([H])C2([H])C([H])([H])C([H])([H])N(C([H])([H])[H])C([H])([H])C2([H])[H])n1


 39 42  0  0  0  0  0  0  0  0999 V2000
   11.2796   23.1757    1.7107 C   0  0  0  0  0  0  0  0  0  0  0  0
   10.2853   22.2275    1.6822 C   0  0  0  0  0  0  0  0  0  0  0  0
   10.6008   20.8900    1.1213 C   0  0  0  0  0  0  0  0  0  0  0  0
    9.0055   22.5096    2.1694 C   0  0  0  0  0  0  0  0  0  0  0  0
    8.7586   23.7321    2.6707 N   0  0  0  0  0  0  0  0  0  0  0  0
    9.7327   24.6531    2.6960 C   0  0  0  0  0  0  0  0  0  0  0  0
   10.9862   24.3792    2.2196 N   0  0  0  0  0  0  0  0  0  0  0  0
    8.0062   21.4931    2.1190 N   0  0  0  0  0  0  0  0  0  0  0  0
    7.5717   20.8701    3.3317 C   0  0  0  0  0  0  0  0  0  0  0  0
    6.5901   19.8664    3.3124 N   0  0  0  0  0  0  0  0  0  0  0  0
    8.0727   21.2246    4.4202 O   0  0  0  0  0  0  0  0  0  0  0  0
    7.6053   21.2181    1.1933 H   0  0  0  0  0  0  0  0  0  0  0  0
    6.1741   19.5731    2.3973 H   0  0  0  0  0  0  0  0  0  0  0  0
    6.1541   19.2406    4.5399 C   0  0  0  0  0  0  0  0  0  0  0  0
    7.2747   19.2075    5.5724 C   0  0  0  0  0  0  0  0  0  0  0  0
    6.8674   18.2312    6.6504 C   0  0  0  0  0  0  0  0  0  0  0  0
    5.4335   18.0972    6.7523 N   0  0  0  0  0  0  0  0  0  0  0  0
    5.0994   17.5887    8.0481 C   0  0  0  0  0  0  0  0  0  0  0  0
    4.7937   19.3824    6.5590 C   0  0  0  0  0  0  0  0  0  0  0  0
    4.9815   19.9370    5.1761 C   0  0  0  0  0  0  0  0  0  0  0  0
   12.5249   22.8643    1.2237 O   0  0  0  0  0  0  0  0  0  0  0  0
   14.1222   24.5030   -2.2681 C   0  0  0  0  0  0  0  0  0  0  0  0
   14.7725   23.4709   -1.5730 C   0  0  0  0  0  0  0  0  0  0  0  0
   14.2387   22.9587   -0.4504 N   0  0  0  0  0  0  0  0  0  0  0  0
   13.0720   23.4001    0.0587 C   0  0  0  0  0  0  0  0  0  0  0  0
   12.4287   24.4091   -0.6146 C   0  0  0  0  0  0  0  0  0  0  0  0
   12.9330   24.9863   -1.7917 C   0  0  0  0  0  0  0  0  0  0  0  0
   15.4587   24.6524   -5.7408 C   0  0  0  0  0  0  0  0  0  0  0  0
   14.8909   24.2237   -4.5674 C   0  0  0  0  0  0  0  0  0  0  0  0
   14.7106   25.0624   -3.4779 C   0  0  0  0  0  0  0  0  0  0  0  0
   15.1201   26.3659   -3.5913 C   0  0  0  0  0  0  0  0  0  0  0  0
   15.6877   26.8026   -4.7594 C   0  0  0  0  0  0  0  0  0  0  0  0
   15.8629   25.9638   -5.8364 C   0  0  0  0  0  0  0  0  0  0  0  0
   16.4666   26.4524   -7.0606 C   0  0  0  0  0  0  0  0  0  0  0  0
   16.9312   26.8499   -8.0421 N   0  0  0  0  0  0  0  0  0  0  0  0
   12.2036   26.0537   -2.4745 C   0  0  0  0  0  0  0  0  0  0  0  0
   12.3960   26.0768   -3.8430 F   0  0  0  0  0  0  0  0  0  0  0  0
   10.8277   25.7373   -2.3419 F   0  0  0  0  0  0  0  0  0  0  0  0
   12.3751   27.2591   -1.8599 F   0  0  0  0  0  0  0  0  0  0  0  0
 28 29  2  0  0  0
 29 30  1  0  0  0
 30 22  1  0  0  0
 22 23  2  0  0  0
 23 24  1  0  0  0
 24 25  2  0  0  0
 25 21  1  0  0  0
 21  1  1  0  0  0
  1  2  2  0  0  0
  2  3  1  0  0  0
  2  4  1  0  0  0
  4  8  1  0  0  0
  8  9  1  0  0  0
  9 10  1  0  0  0
 10 14  1  0  0  0
 14 15  1  0  0  0
 15 16  1  0  0  0
 16 17  1  0  0  0
 17 18  1  0  0  0
 17 19  1  0  0  0
 19 20  1  0  0  0
  9 11  2  0  0  0
  4  5  2  0  0  0
  5  6  1  0  0  0
  6  7  2  0  0  0
 25 26  1  0  0  0
 26 27  2  0  0  0
 27 36  1  0  0  0
 36 37  1  0  0  0
 36 38  1  0  0  0
 36 39  1  0  0  0
 30 31  2  0  0  0
 31 32  1  0  0  0
 32 33  2  0  0  0
 33 34  1  0  0  0
 34 35  3  0  0  0
 33 28  1  0  0  0
 27 22  1  0  0  0
  7  1  1  0  0  0
 20 14  1  0  0  0
  8 12  1  0  0  0
 10 13  1  0  0  0
M  END
> <minimizedAffinity>
-2.84241

> <CNNscore>
0.3726272583

> <CNNaffinity>
6.9095420837

> <CNN_VS>
2.5746836662

> <CNNaffinity_variance>
0.9968938828

$$$$
[H]c1nc(Oc2nc([H])c(-c3c([H])c([H])c(C#N)c([H])c3[H])c(C(F)(F)F)c2[H])c(C([H])([H])[H])c(N([H])C(=O)N([H])C2([H])C([H])([H])C([H])([H])N(C([H])([H])[H])C([H])([H])C2([H])[H])n1


 39 42  0  0  0  0  0  0  0  0999 V2000
   11.7040   21.3925    1.4677 C   0  0  0  0  0  0  0  0  0  0  0  0
   10.5357   21.7075    0.8163 C   0  0  0  0  0  0  0  0  0  0  0  0
   10.5996   22.0344   -0.6301 C   0  0  0  0  0  0  0  0  0  0  0  0
    9.3129   21.7202    1.4941 C   0  0  0  0  0  0  0  0  0  0  0  0
    9.2954   21.4175    2.8036 N   0  0  0  0  0  0  0  0  0  0  0  0
   10.4385   21.1109    3.4338 C   0  0  0  0  0  0  0  0  0  0  0  0
   11.6365   21.0979    2.7724 N   0  0  0  0  0  0  0  0  0  0  0  0
    8.1266   22.0530    0.7753 N   0  0  0  0  0  0  0  0  0  0  0  0
    7.3268   21.0088    0.2118 C   0  0  0  0  0  0  0  0  0  0  0  0
    6.1545   21.3066   -0.5011 N   0  0  0  0  0  0  0  0  0  0  0  0
    7.6771   19.8181    0.3569 O   0  0  0  0  0  0  0  0  0  0  0  0
    7.8592   23.0583    0.6711 H   0  0  0  0  0  0  0  0  0  0  0  0
    5.8660   22.3061   -0.6198 H   0  0  0  0  0  0  0  0  0  0  0  0
    5.3496   20.2484   -1.0678 C   0  0  0  0  0  0  0  0  0  0  0  0
    3.8866   20.3901   -0.6651 C   0  0  0  0  0  0  0  0  0  0  0  0
    3.2040   19.0785   -0.9733 C   0  0  0  0  0  0  0  0  0  0  0  0
    3.8657   18.3542   -2.0326 N   0  0  0  0  0  0  0  0  0  0  0  0
    2.9464   17.4210   -2.6100 C   0  0  0  0  0  0  0  0  0  0  0  0
    4.3285   19.2704   -3.0547 C   0  0  0  0  0  0  0  0  0  0  0  0
    5.3968   20.2086   -2.5714 C   0  0  0  0  0  0  0  0  0  0  0  0
   12.8870   21.3899    0.7710 O   0  0  0  0  0  0  0  0  0  0  0  0
   14.0791   24.3364   -1.9357 C   0  0  0  0  0  0  0  0  0  0  0  0
   13.3509   24.6502   -0.7770 C   0  0  0  0  0  0  0  0  0  0  0  0
   12.9779   23.6841    0.0803 N   0  0  0  0  0  0  0  0  0  0  0  0
   13.2776   22.3863   -0.1224 C   0  0  0  0  0  0  0  0  0  0  0  0
   13.9899   22.0701   -1.2528 C   0  0  0  0  0  0  0  0  0  0  0  0
   14.4091   23.0316   -2.1871 C   0  0  0  0  0  0  0  0  0  0  0  0
   16.2299   26.8579   -3.6341 C   0  0  0  0  0  0  0  0  0  0  0  0
   15.7746   25.8558   -2.8147 C   0  0  0  0  0  0  0  0  0  0  0  0
   14.4710   25.3857   -2.8674 C   0  0  0  0  0  0  0  0  0  0  0  0
   13.6159   25.9532   -3.7765 C   0  0  0  0  0  0  0  0  0  0  0  0
   14.0621   26.9543   -4.5988 C   0  0  0  0  0  0  0  0  0  0  0  0
   15.3577   27.4149   -4.5405 C   0  0  0  0  0  0  0  0  0  0  0  0
   15.8033   28.4756   -5.4227 C   0  0  0  0  0  0  0  0  0  0  0  0
   16.1742   29.3112   -6.1308 N   0  0  0  0  0  0  0  0  0  0  0  0
   15.1728   22.6421   -3.3714 C   0  0  0  0  0  0  0  0  0  0  0  0
   14.7826   23.2909   -4.5278 F   0  0  0  0  0  0  0  0  0  0  0  0
   16.4935   23.1135   -3.1605 F   0  0  0  0  0  0  0  0  0  0  0  0
   15.2697   21.2868   -3.4897 F   0  0  0  0  0  0  0  0  0  0  0  0
 28 29  2  0  0  0
 29 30  1  0  0  0
 30 22  1  0  0  0
 22 23  2  0  0  0
 23 24  1  0  0  0
 24 25  2  0  0  0
 25 21  1  0  0  0
 21  1  1  0  0  0
  1  2  2  0  0  0
  2  3  1  0  0  0
  2  4  1  0  0  0
  4  8  1  0  0  0
  8  9  1  0  0  0
  9 10  1  0  0  0
 10 14  1  0  0  0
 14 15  1  0  0  0
 15 16  1  0  0  0
 16 17  1  0  0  0
 17 18  1  0  0  0
 17 19  1  0  0  0
 19 20  1  0  0  0
  9 11  2  0  0  0
  4  5  2  0  0  0
  5  6  1  0  0  0
  6  7  2  0  0  0
 25 26  1  0  0  0
 26 27  2  0  0  0
 27 36  1  0  0  0
 36 37  1  0  0  0
 36 38  1  0  0  0
 36 39  1  0  0  0
 30 31  2  0  0  0
 31 32  1  0  0  0
 32 33  2  0  0  0
 33 34  1  0  0  0
 34 35  3  0  0  0
 33 28  1  0  0  0
 27 22  1  0  0  0
  7  1  1  0  0  0
 20 14  1  0  0  0
  8 12  1  0  0  0
 10 13  1  0  0  0
M  END
> <minimizedAffinity>
-8.11808

> <CNNscore>
0.2477315962

> <CNNaffinity>
7.2320184708

> <CNN_VS>
1.7915995121

> <CNNaffinity_variance>
0.5485149622

$$$$
[H]c1nc(Oc2nc([H])c(-c3c([H])c([H])c(C#N)c([H])c3[H])c(C(F)(F)F)c2[H])c(C([H])([H])[H])c(N([H])C(=O)N([H])C2([H])C([H])([H])C([H])([H])N(C([H])([H])[H])C([H])([H])C2([H])[H])n1


 39 42  0  0  0  0  0  0  0  0999 V2000
   13.8614   24.0259   -3.4733 C   0  0  0  0  0  0  0  0  0  0  0  0
   13.0736   23.8848   -2.3562 C   0  0  0  0  0  0  0  0  0  0  0  0
   12.0824   24.9470   -2.0522 C   0  0  0  0  0  0  0  0  0  0  0  0
   13.1972   22.7691   -1.5228 C   0  0  0  0  0  0  0  0  0  0  0  0
   14.1055   21.8277   -1.8317 N   0  0  0  0  0  0  0  0  0  0  0  0
   14.8714   21.9708   -2.9229 C   0  0  0  0  0  0  0  0  0  0  0  0
   14.7521   23.0621   -3.7402 N   0  0  0  0  0  0  0  0  0  0  0  0
   12.3571   22.6665   -0.3746 N   0  0  0  0  0  0  0  0  0  0  0  0
   11.0496   22.0998   -0.5055 C   0  0  0  0  0  0  0  0  0  0  0  0
   10.2007   21.9867    0.6071 N   0  0  0  0  0  0  0  0  0  0  0  0
   10.6601   21.7014   -1.6240 O   0  0  0  0  0  0  0  0  0  0  0  0
   12.7110   23.0080    0.5480 H   0  0  0  0  0  0  0  0  0  0  0  0
   10.5323   22.3225    1.5418 H   0  0  0  0  0  0  0  0  0  0  0  0
    8.8813   21.4131    0.4700 C   0  0  0  0  0  0  0  0  0  0  0  0
    8.9518   19.9027    0.2793 C   0  0  0  0  0  0  0  0  0  0  0  0
    7.6013   19.4466   -0.2201 C   0  0  0  0  0  0  0  0  0  0  0  0
    6.5398   20.3371    0.1859 N   0  0  0  0  0  0  0  0  0  0  0  0
    5.2925   19.6363    0.1350 C   0  0  0  0  0  0  0  0  0  0  0  0
    6.7710   20.8125    1.5346 C   0  0  0  0  0  0  0  0  0  0  0  0
    7.9962   21.6720    1.6592 C   0  0  0  0  0  0  0  0  0  0  0  0
   13.7133   25.1346   -4.2694 O   0  0  0  0  0  0  0  0  0  0  0  0
   16.6069   28.1202   -4.6466 C   0  0  0  0  0  0  0  0  0  0  0  0
   15.5745   27.9706   -5.5862 C   0  0  0  0  0  0  0  0  0  0  0  0
   14.6536   27.0015   -5.4438 N   0  0  0  0  0  0  0  0  0  0  0  0
   14.6714   26.1374   -4.4102 C   0  0  0  0  0  0  0  0  0  0  0  0
   15.6774   26.2763   -3.4860 C   0  0  0  0  0  0  0  0  0  0  0  0
   16.6688   27.2670   -3.5774 C   0  0  0  0  0  0  0  0  0  0  0  0
   19.6741   30.1334   -4.0079 C   0  0  0  0  0  0  0  0  0  0  0  0
   18.6927   29.1762   -3.9466 C   0  0  0  0  0  0  0  0  0  0  0  0
   17.6090   29.1648   -4.8117 C   0  0  0  0  0  0  0  0  0  0  0  0
   17.5276   30.1532   -5.7583 C   0  0  0  0  0  0  0  0  0  0  0  0
   18.5032   31.1129   -5.8270 C   0  0  0  0  0  0  0  0  0  0  0  0
   19.5759   31.1169   -4.9647 C   0  0  0  0  0  0  0  0  0  0  0  0
   20.5941   32.1446   -5.0598 C   0  0  0  0  0  0  0  0  0  0  0  0
   21.4047   32.9638   -5.1548 N   0  0  0  0  0  0  0  0  0  0  0  0
   17.7141   27.3766   -2.5610 C   0  0  0  0  0  0  0  0  0  0  0  0
   18.9800   27.5759   -3.0788 F   0  0  0  0  0  0  0  0  0  0  0  0
   17.4543   28.5801   -1.8575 F   0  0  0  0  0  0  0  0  0  0  0  0
   17.6325   26.3748   -1.6392 F   0  0  0  0  0  0  0  0  0  0  0  0
 28 29  2  0  0  0
 29 30  1  0  0  0
 30 22  1  0  0  0
 22 23  2  0  0  0
 23 24  1  0  0  0
 24 25  2  0  0  0
 25 21  1  0  0  0
 21  1  1  0  0  0
  1  2  2  0  0  0
  2  3  1  0  0  0
  2  4  1  0  0  0
  4  8  1  0  0  0
  8  9  1  0  0  0
  9 10  1  0  0  0
 10 14  1  0  0  0
 14 15  1  0  0  0
 15 16  1  0  0  0
 16 17  1  0  0  0
 17 18  1  0  0  0
 17 19  1  0  0  0
 19 20  1  0  0  0
  9 11  2  0  0  0
  4  5  2  0  0  0
  5  6  1  0  0  0
  6  7  2  0  0  0
 25 26  1  0  0  0
 26 27  2  0  0  0
 27 36  1  0  0  0
 36 37  1  0  0  0
 36 38  1  0  0  0
 36 39  1  0  0  0
 30 31  2  0  0  0
 31 32  1  0  0  0
 32 33  2  0  0  0
 33 34  1  0  0  0
 34 35  3  0  0  0
 33 28  1  0  0  0
 27 22  1  0  0  0
  7  1  1  0  0  0
 20 14  1  0  0  0
  8 12  1  0  0  0
 10 13  1  0  0  0
M  END
> <minimizedAffinity>
29.26369

> <CNNscore>
0.2468223274

> <CNNaffinity>
6.6856279373

> <CNN_VS>
1.6501622200

> <CNNaffinity_variance>
0.5454334021

$$$$
[H]c1nc(Oc2nc([H])c(-c3c([H])c([H])c(C#N)c([H])c3[H])c(C(F)(F)F)c2[H])c(C([H])([H])[H])c(N([H])C(=O)N([H])C2([H])C([H])([H])C([H])([H])N(C([H])([H])[H])C([H])([H])C2([H])[H])n1


 39 42  0  0  0  0  0  0  0  0999 V2000
   14.0154   20.5858   -4.7282 C   0  0  0  0  0  0  0  0  0  0  0  0
   12.9245   20.0227   -4.1107 C   0  0  0  0  0  0  0  0  0  0  0  0
   12.8672   20.0366   -2.6276 C   0  0  0  0  0  0  0  0  0  0  0  0
   11.8897   19.4498   -4.8563 C   0  0  0  0  0  0  0  0  0  0  0  0
   11.9771   19.4574   -6.1976 N   0  0  0  0  0  0  0  0  0  0  0  0
   13.0439   20.0084   -6.7945 C   0  0  0  0  0  0  0  0  0  0  0  0
   14.0580   20.5697   -6.0667 N   0  0  0  0  0  0  0  0  0  0  0  0
   10.7775   18.8777   -4.1706 N   0  0  0  0  0  0  0  0  0  0  0  0
    9.7054   19.7211   -3.7382 C   0  0  0  0  0  0  0  0  0  0  0  0
    8.5983   19.1857   -3.0607 N   0  0  0  0  0  0  0  0  0  0  0  0
    9.7565   20.9485   -3.9669 O   0  0  0  0  0  0  0  0  0  0  0  0
   10.7628   17.8472   -3.9942 H   0  0  0  0  0  0  0  0  0  0  0  0
    8.5610   18.1566   -2.8714 H   0  0  0  0  0  0  0  0  0  0  0  0
    7.5177   20.0415   -2.6263 C   0  0  0  0  0  0  0  0  0  0  0  0
    6.1662   19.3605   -2.8063 C   0  0  0  0  0  0  0  0  0  0  0  0
    5.1035   20.4274   -2.6900 C   0  0  0  0  0  0  0  0  0  0  0  0
    5.5402   21.5485   -1.8918 N   0  0  0  0  0  0  0  0  0  0  0  0
    4.3938   22.2560   -1.4073 C   0  0  0  0  0  0  0  0  0  0  0  0
    6.3323   21.0880   -0.7698 C   0  0  0  0  0  0  0  0  0  0  0  0
    7.6255   20.4444   -1.1804 C   0  0  0  0  0  0  0  0  0  0  0  0
   15.0133   21.1394   -3.9650 O   0  0  0  0  0  0  0  0  0  0  0  0
   14.4036   23.9859   -0.9724 C   0  0  0  0  0  0  0  0  0  0  0  0
   14.4440   24.3403   -2.3304 C   0  0  0  0  0  0  0  0  0  0  0  0
   14.6416   23.4059   -3.2766 N   0  0  0  0  0  0  0  0  0  0  0  0
   14.8083   22.1027   -2.9782 C   0  0  0  0  0  0  0  0  0  0  0  0
   14.7700   21.7467   -1.6526 C   0  0  0  0  0  0  0  0  0  0  0  0
   14.5673   22.6738   -0.6170 C   0  0  0  0  0  0  0  0  0  0  0  0
   12.6129   26.3744    1.2539 C   0  0  0  0  0  0  0  0  0  0  0  0
   12.9024   25.4056    0.3262 C   0  0  0  0  0  0  0  0  0  0  0  0
   14.2006   25.0039    0.0499 C   0  0  0  0  0  0  0  0  0  0  0  0
   15.2232   25.6062    0.7364 C   0  0  0  0  0  0  0  0  0  0  0  0
   14.9432   26.5743    1.6648 C   0  0  0  0  0  0  0  0  0  0  0  0
   13.6518   26.9671    1.9334 C   0  0  0  0  0  0  0  0  0  0  0  0
   13.3842   27.9942    2.9210 C   0  0  0  0  0  0  0  0  0  0  0  0
   13.1719   28.8268    3.6949 N   0  0  0  0  0  0  0  0  0  0  0  0
   14.5272   22.2405    0.7788 C   0  0  0  0  0  0  0  0  0  0  0  0
   13.3266   22.5017    1.4119 F   0  0  0  0  0  0  0  0  0  0  0  0
   14.5829   20.8238    0.7528 F   0  0  0  0  0  0  0  0  0  0  0  0
   15.6300   22.6495    1.4690 F   0  0  0  0  0  0  0  0  0  0  0  0
 28 29  2  0  0  0
 29 30  1  0  0  0
 30 22  1  0  0  0
 22 23  2  0  0  0
 23 24  1  0  0  0
 24 25  2  0  0  0
 25 21  1  0  0  0
 21  1  1  0  0  0
  1  2  2  0  0  0
  2  3  1  0  0  0
  2  4  1  0  0  0
  4  8  1  0  0  0
  8  9  1  0  0  0
  9 10  1  0  0  0
 10 14  1  0  0  0
 14 15  1  0  0  0
 15 16  1  0  0  0
 16 17  1  0  0  0
 17 18  1  0  0  0
 17 19  1  0  0  0
 19 20  1  0  0  0
  9 11  2  0  0  0
  4  5  2  0  0  0
  5  6  1  0  0  0
  6  7  2  0  0  0
 25 26  1  0  0  0
 26 27  2  0  0  0
 27 36  1  0  0  0
 36 37  1  0  0  0
 36 38  1  0  0  0
 36 39  1  0  0  0
 30 31  2  0  0  0
 31 32  1  0  0  0
 32 33  2  0  0  0
 33 34  1  0  0  0
 34 35  3  0  0  0
 33 28  1  0  0  0
 27 22  1  0  0  0
  7  1  1  0  0  0
 20 14  1  0  0  0
  8 12  1  0  0  0
 10 13  1  0  0  0
M  END
> <minimizedAffinity>
38.61098

> <CNNscore>
0.2219100296

> <CNNaffinity>
6.3516235352

> <CNN_VS>
1.4094889164

> <CNNaffinity_variance>
0.3783817887

$$$$
[H]c1nc(Oc2nc([H])c(-c3c([H])c([H])c(C#N)c([H])c3[H])c(C(F)(F)F)c2[H])c(C([H])([H])[H])c(N([H])C(=O)N([H])C2([H])C([H])([H])C([H])([H])N(C([H])([H])[H])C([H])([H])C2([H])[H])n1


 39 42  0  0  0  0  0  0  0  0999 V2000
   12.3825   24.2676    0.2871 C   0  0  0  0  0  0  0  0  0  0  0  0
   11.7460   23.3366   -0.4981 C   0  0  0  0  0  0  0  0  0  0  0  0
   10.2620   23.3340   -0.5279 C   0  0  0  0  0  0  0  0  0  0  0  0
   12.4733   22.4121   -1.2538 C   0  0  0  0  0  0  0  0  0  0  0  0
   13.8160   22.4466   -1.2015 N   0  0  0  0  0  0  0  0  0  0  0  0
   14.4315   23.3573   -0.4336 C   0  0  0  0  0  0  0  0  0  0  0  0
   13.7216   24.2632    0.3070 N   0  0  0  0  0  0  0  0  0  0  0  0
   11.7682   21.4650   -2.0540 N   0  0  0  0  0  0  0  0  0  0  0  0
   10.5229   20.9359   -1.5882 C   0  0  0  0  0  0  0  0  0  0  0  0
    9.8073   20.0020   -2.3543 N   0  0  0  0  0  0  0  0  0  0  0  0
   10.0681   21.3106   -0.4863 O   0  0  0  0  0  0  0  0  0  0  0  0
   12.1738   21.1711   -2.9718 H   0  0  0  0  0  0  0  0  0  0  0  0
   10.1934   19.6914   -3.2767 H   0  0  0  0  0  0  0  0  0  0  0  0
    8.5497   19.4710   -1.8799 C   0  0  0  0  0  0  0  0  0  0  0  0
    8.6281   19.0984   -0.4041 C   0  0  0  0  0  0  0  0  0  0  0  0
    7.4335   18.2280   -0.0936 C   0  0  0  0  0  0  0  0  0  0  0  0
    6.3267   18.4814   -0.9854 N   0  0  0  0  0  0  0  0  0  0  0  0
    5.1143   18.0334   -0.3699 C   0  0  0  0  0  0  0  0  0  0  0  0
    6.2268   19.8978   -1.2724 C   0  0  0  0  0  0  0  0  0  0  0  0
    7.4032   20.4330   -2.0370 C   0  0  0  0  0  0  0  0  0  0  0  0
   11.6368   25.1604    1.0163 O   0  0  0  0  0  0  0  0  0  0  0  0
    8.6395   24.0308    3.6938 C   0  0  0  0  0  0  0  0  0  0  0  0
    8.9051   25.3800    3.4102 C   0  0  0  0  0  0  0  0  0  0  0  0
    9.8756   25.7197    2.5441 N   0  0  0  0  0  0  0  0  0  0  0  0
   10.6318   24.8005    1.9129 C   0  0  0  0  0  0  0  0  0  0  0  0
   10.3788   23.4784    2.1838 C   0  0  0  0  0  0  0  0  0  0  0  0
    9.3802   23.0580    3.0776 C   0  0  0  0  0  0  0  0  0  0  0  0
    5.2414   23.7614    5.1934 C   0  0  0  0  0  0  0  0  0  0  0  0
    6.2892   24.0364    4.3512 C   0  0  0  0  0  0  0  0  0  0  0  0
    7.5943   23.6683    4.6418 C   0  0  0  0  0  0  0  0  0  0  0  0
    7.8318   23.0059    5.8185 C   0  0  0  0  0  0  0  0  0  0  0  0
    6.7914   22.7269    6.6654 C   0  0  0  0  0  0  0  0  0  0  0  0
    5.4989   23.0954    6.3693 C   0  0  0  0  0  0  0  0  0  0  0  0
    4.4168   22.7874    7.2837 C   0  0  0  0  0  0  0  0  0  0  0  0
    3.5534   22.5237    8.0063 N   0  0  0  0  0  0  0  0  0  0  0  0
    9.1464   21.6360    3.3246 C   0  0  0  0  0  0  0  0  0  0  0  0
    9.9612   20.7981    2.5868 F   0  0  0  0  0  0  0  0  0  0  0  0
    9.5543   21.3966    4.6615 F   0  0  0  0  0  0  0  0  0  0  0  0
    7.8199   21.3233    3.2725 F   0  0  0  0  0  0  0  0  0  0  0  0
 28 29  2  0  0  0
 29 30  1  0  0  0
 30 22  1  0  0  0
 22 23  2  0  0  0
 23 24  1  0  0  0
 24 25  2  0  0  0
 25 21  1  0  0  0
 21  1  1  0  0  0
  1  2  2  0  0  0
  2  3  1  0  0  0
  2  4  1  0  0  0
  4  8  1  0  0  0
  8  9  1  0  0  0
  9 10  1  0  0  0
 10 14  1  0  0  0
 14 15  1  0  0  0
 15 16  1  0  0  0
 16 17  1  0  0  0
 17 18  1  0  0  0
 17 19  1  0  0  0
 19 20  1  0  0  0
  9 11  2  0  0  0
  4  5  2  0  0  0
  5  6  1  0  0  0
  6  7  2  0  0  0
 25 26  1  0  0  0
 26 27  2  0  0  0
 27 36  1  0  0  0
 36 37  1  0  0  0
 36 38  1  0  0  0
 36 39  1  0  0  0
 30 31  2  0  0  0
 31 32  1  0  0  0
 32 33  2  0  0  0
 33 34  1  0  0  0
 34 35  3  0  0  0
 33 28  1  0  0  0
 27 22  1  0  0  0
  7  1  1  0  0  0
 20 14  1  0  0  0
  8 12  1  0  0  0
 10 13  1  0  0  0
M  END
> <minimizedAffinity>
-1.64934

> <CNNscore>
0.2117685378

> <CNNaffinity>
6.3949022293

> <CNN_VS>
1.3542391062

> <CNNaffinity_variance>
0.5064522624

$$$$
[H]ON([H])C(=O)S(=O)(=O)c1c([H])c([H])c(N([H])c2nnc(N([H])C(=O)C([H])([H])c3c([H])c([H])c(Cl)c([H])c3[H])n2[H])c([H])c1[H]


 35 37  0  0  0  0  0  0  0  0999 V2000
   15.4722   24.0058   -5.4471 C   0  0  0  0  0  0  0  0  0  0  0  0
   15.7206   23.8557   -6.7872 N   0  0  0  0  0  0  0  0  0  0  0  0
   15.8076   25.0166   -7.3604 N   0  0  0  0  0  0  0  0  0  0  0  0
   15.6303   25.9682   -6.4665 C   0  0  0  0  0  0  0  0  0  0  0  0
   15.4173   25.3170   -5.2660 N   0  0  0  0  0  0  0  0  0  0  0  0
   15.2424   25.7841   -4.3496 H   0  0  0  0  0  0  0  0  0  0  0  0
   15.6925   27.3542   -6.6461 N   0  0  0  0  0  0  0  0  0  0  0  0
   15.9763   28.4221   -5.8015 C   0  0  0  0  0  0  0  0  0  0  0  0
   15.6974   29.5920   -6.4046 O   0  0  0  0  0  0  0  0  0  0  0  0
   15.3251   27.6965   -7.6424 H   0  0  0  0  0  0  0  0  0  0  0  0
   16.4884   28.5999   -4.4734 C   0  0  0  0  0  0  0  0  0  0  0  0
   16.4199   27.5511   -3.4618 C   0  0  0  0  0  0  0  0  0  0  0  0
   15.2176   27.0874   -2.9648 C   0  0  0  0  0  0  0  0  0  0  0  0
   15.1681   26.1128   -1.9621 C   0  0  0  0  0  0  0  0  0  0  0  0
   16.3644   25.6075   -1.4607 C   0  0  0  0  0  0  0  0  0  0  0  0
   16.3326   24.3933   -0.2083 Cl  0  0  0  0  0  0  0  0  0  0  0  0
   17.5394   26.0821   -1.9667 C   0  0  0  0  0  0  0  0  0  0  0  0
   17.6388   27.0255   -2.9396 C   0  0  0  0  0  0  0  0  0  0  0  0
   15.3832   22.9120   -4.5721 N   0  0  0  0  0  0  0  0  0  0  0  0
   15.9382   22.0404   -4.8152 H   0  0  0  0  0  0  0  0  0  0  0  0
   13.2050   22.7214   -0.9163 C   0  0  0  0  0  0  0  0  0  0  0  0
   14.0708   21.7245   -1.3041 C   0  0  0  0  0  0  0  0  0  0  0  0
   14.7736   21.7642   -2.5088 C   0  0  0  0  0  0  0  0  0  0  0  0
   14.6395   22.8165   -3.3848 C   0  0  0  0  0  0  0  0  0  0  0  0
   13.7596   23.8191   -2.9940 C   0  0  0  0  0  0  0  0  0  0  0  0
   13.0626   23.7860   -1.8104 C   0  0  0  0  0  0  0  0  0  0  0  0
   12.5026   22.7414    0.6441 S   0  0  0  0  0  0  0  0  0  0  0  0
   13.0052   23.9307    1.4585 O   0  0  0  0  0  0  0  0  0  0  0  0
   12.8598   21.4751    1.3975 O   0  0  0  0  0  0  0  0  0  0  0  0
   10.3533   24.0533    0.1536 O   0  0  0  0  0  0  0  0  0  0  0  0
   10.7402   22.8938    0.5707 C   0  0  0  0  0  0  0  0  0  0  0  0
    9.9571   21.8273    0.9194 N   0  0  0  0  0  0  0  0  0  0  0  0
    9.1761   20.8921    1.2184 O   0  0  0  0  0  0  0  0  0  0  0  0
    8.8441   22.5713    0.5833 H   0  0  0  0  0  0  0  0  0  0  0  0
    8.8223   20.8792    2.1601 H   0  0  0  0  0  0  0  0  0  0  0  0
 30 31  2  0  0  0
 31 32  1  0  0  0
 32 33  1  0  0  0
 31 27  1  0  0  0
 27 28  2  0  0  0
 27 29  2  0  0  0
 27 21  1  0  0  0
 21 22  2  0  0  0
 22 23  1  0  0  0
 23 24  2  0  0  0
 24 19  1  0  0  0
 19  1  1  0  0  0
  1  2  2  0  0  0
  2  3  1  0  0  0
  3  4  2  0  0  0
  4  7  1  0  0  0
  7  8  1  0  0  0
  8  9  2  0  0  0
  8 11  1  0  0  0
 11 12  1  0  0  0
 12 13  2  0  0  0
 13 14  1  0  0  0
 14 15  2  0  0  0
 15 16  1  0  0  0
 15 17  1  0  0  0
 17 18  2  0  0  0
  4  5  1  0  0  0
 24 25  1  0  0  0
 25 26  2  0  0  0
 26 21  1  0  0  0
  5  1  1  0  0  0
 18 12  1  0  0  0
 32 34  1  0  0  0
 33 35  1  0  0  0
 19 20  1  0  0  0
  7 10  1  0  0  0
  5  6  1  0  0  0
M  END
> <minimizedAffinity>
0.53332

> <CNNscore>
0.6558401585

> <CNNaffinity>
7.5401382446

> <CNN_VS>
4.9451255798

> <CNNaffinity_variance>
0.4208396077

$$$$
[H]ON([H])C(=O)S(=O)(=O)c1c([H])c([H])c(N([H])c2nnc(N([H])C(=O)C([H])([H])c3c([H])c([H])c(Cl)c([H])c3[H])n2[H])c([H])c1[H]


 35 37  0  0  0  0  0  0  0  0999 V2000
   15.0350   21.9840   -4.7471 C   0  0  0  0  0  0  0  0  0  0  0  0
   14.6520   20.7087   -5.0743 N   0  0  0  0  0  0  0  0  0  0  0  0
   14.2578   20.0724   -4.0143 N   0  0  0  0  0  0  0  0  0  0  0  0
   14.3516   20.8602   -2.9623 C   0  0  0  0  0  0  0  0  0  0  0  0
   14.8452   22.0604   -3.4381 N   0  0  0  0  0  0  0  0  0  0  0  0
   15.0381   22.9055   -2.8575 H   0  0  0  0  0  0  0  0  0  0  0  0
   13.9864   20.5924   -1.6386 N   0  0  0  0  0  0  0  0  0  0  0  0
   12.9912   21.0790   -0.7979 C   0  0  0  0  0  0  0  0  0  0  0  0
   13.1869   20.6565    0.4644 O   0  0  0  0  0  0  0  0  0  0  0  0
   14.7095   19.9396   -1.0949 H   0  0  0  0  0  0  0  0  0  0  0  0
   11.8209   21.8989   -0.9248 C   0  0  0  0  0  0  0  0  0  0  0  0
   10.5764   21.5992   -0.2252 C   0  0  0  0  0  0  0  0  0  0  0  0
   10.3501   22.0022    1.0762 C   0  0  0  0  0  0  0  0  0  0  0  0
    9.1701   21.6688    1.7502 C   0  0  0  0  0  0  0  0  0  0  0  0
    8.2102   20.9121    1.0838 C   0  0  0  0  0  0  0  0  0  0  0  0
    6.7304   20.4798    1.9006 Cl  0  0  0  0  0  0  0  0  0  0  0  0
    8.4570   20.5249   -0.2010 C   0  0  0  0  0  0  0  0  0  0  0  0
    9.5851   20.8241   -0.8969 C   0  0  0  0  0  0  0  0  0  0  0  0
   15.4564   22.9129   -5.7112 N   0  0  0  0  0  0  0  0  0  0  0  0
   15.6301   22.5563   -6.6957 H   0  0  0  0  0  0  0  0  0  0  0  0
   16.0093   27.1005   -5.1599 C   0  0  0  0  0  0  0  0  0  0  0  0
   15.9898   26.5240   -6.4094 C   0  0  0  0  0  0  0  0  0  0  0  0
   15.8313   25.1513   -6.6028 C   0  0  0  0  0  0  0  0  0  0  0  0
   15.6819   24.2885   -5.5417 C   0  0  0  0  0  0  0  0  0  0  0  0
   15.7085   24.8722   -4.2804 C   0  0  0  0  0  0  0  0  0  0  0  0
   15.8660   26.2226   -4.0820 C   0  0  0  0  0  0  0  0  0  0  0  0
   16.0149   28.7998   -4.9570 S   0  0  0  0  0  0  0  0  0  0  0  0
   16.2787   29.5111   -6.2817 O   0  0  0  0  0  0  0  0  0  0  0  0
   17.1017   29.2091   -3.9825 O   0  0  0  0  0  0  0  0  0  0  0  0
   14.4282   30.6819   -4.2349 O   0  0  0  0  0  0  0  0  0  0  0  0
   14.4553   29.3977   -4.3697 C   0  0  0  0  0  0  0  0  0  0  0  0
   13.4397   28.5113   -4.1348 N   0  0  0  0  0  0  0  0  0  0  0  0
   12.4622   27.7601   -3.9022 O   0  0  0  0  0  0  0  0  0  0  0  0
   12.6231   29.5765   -3.8126 H   0  0  0  0  0  0  0  0  0  0  0  0
   12.3453   27.4471   -2.9533 H   0  0  0  0  0  0  0  0  0  0  0  0
 30 31  2  0  0  0
 31 32  1  0  0  0
 32 33  1  0  0  0
 31 27  1  0  0  0
 27 28  2  0  0  0
 27 29  2  0  0  0
 27 21  1  0  0  0
 21 22  2  0  0  0
 22 23  1  0  0  0
 23 24  2  0  0  0
 24 19  1  0  0  0
 19  1  1  0  0  0
  1  2  2  0  0  0
  2  3  1  0  0  0
  3  4  2  0  0  0
  4  7  1  0  0  0
  7  8  1  0  0  0
  8  9  2  0  0  0
  8 11  1  0  0  0
 11 12  1  0  0  0
 12 13  2  0  0  0
 13 14  1  0  0  0
 14 15  2  0  0  0
 15 16  1  0  0  0
 15 17  1  0  0  0
 17 18  2  0  0  0
  4  5  1  0  0  0
 24 25  1  0  0  0
 25 26  2  0  0  0
 26 21  1  0  0  0
  5  1  1  0  0  0
 18 12  1  0  0  0
 32 34  1  0  0  0
 33 35  1  0  0  0
 19 20  1  0  0  0
  7 10  1  0  0  0
  5  6  1  0  0  0
M  END
> <minimizedAffinity>
9.42901

> <CNNscore>
0.5014947653

> <CNNaffinity>
6.7081422806

> <CNN_VS>
3.3640983105

> <CNNaffinity_variance>
1.3562275171

$$$$
[H]ON([H])C(=O)S(=O)(=O)c1c([H])c([H])c(N([H])c2nnc(N([H])C(=O)C([H])([H])c3c([H])c([H])c(Cl)c([H])c3[H])n2[H])c([H])c1[H]


 35 37  0  0  0  0  0  0  0  0999 V2000
   15.1195   28.6612   -4.2518 C   0  0  0  0  0  0  0  0  0  0  0  0
   15.5486   28.1721   -5.4587 N   0  0  0  0  0  0  0  0  0  0  0  0
   16.1901   27.0570   -5.2888 N   0  0  0  0  0  0  0  0  0  0  0  0
   16.2209   26.7527   -4.0072 C   0  0  0  0  0  0  0  0  0  0  0  0
   15.5451   27.7734   -3.3653 N   0  0  0  0  0  0  0  0  0  0  0  0
   15.3874   27.8380   -2.3359 H   0  0  0  0  0  0  0  0  0  0  0  0
   16.7642   25.6185   -3.3943 N   0  0  0  0  0  0  0  0  0  0  0  0
   16.6376   25.0547   -2.1293 C   0  0  0  0  0  0  0  0  0  0  0  0
   17.5371   24.0693   -1.9561 O   0  0  0  0  0  0  0  0  0  0  0  0
   17.5582   25.1173   -3.9969 H   0  0  0  0  0  0  0  0  0  0  0  0
   15.8043   25.2431   -0.9769 C   0  0  0  0  0  0  0  0  0  0  0  0
   14.5796   24.4797   -0.7641 C   0  0  0  0  0  0  0  0  0  0  0  0
   13.9843   24.3776    0.4779 C   0  0  0  0  0  0  0  0  0  0  0  0
   12.8348   23.6049    0.6765 C   0  0  0  0  0  0  0  0  0  0  0  0
   12.2887   22.9269   -0.4098 C   0  0  0  0  0  0  0  0  0  0  0  0
   10.8572   21.9540   -0.1907 Cl  0  0  0  0  0  0  0  0  0  0  0  0
   12.8954   23.0423   -1.6266 C   0  0  0  0  0  0  0  0  0  0  0  0
   14.0104   23.7800   -1.8691 C   0  0  0  0  0  0  0  0  0  0  0  0
   14.3512   29.8309   -4.1451 N   0  0  0  0  0  0  0  0  0  0  0  0
   14.8683   30.7556   -4.0801 H   0  0  0  0  0  0  0  0  0  0  0  0
   10.1037   30.1511   -4.1892 C   0  0  0  0  0  0  0  0  0  0  0  0
   10.9166   31.2406   -3.9747 C   0  0  0  0  0  0  0  0  0  0  0  0
   12.3081   31.1456   -3.9362 C   0  0  0  0  0  0  0  0  0  0  0  0
   12.9517   29.9429   -4.1149 C   0  0  0  0  0  0  0  0  0  0  0  0
   12.1284   28.8429   -4.3249 C   0  0  0  0  0  0  0  0  0  0  0  0
   10.7576   28.9282   -4.3623 C   0  0  0  0  0  0  0  0  0  0  0  0
    8.4167   30.3233   -4.4197 S   0  0  0  0  0  0  0  0  0  0  0  0
    8.0950   31.5962   -5.1985 O   0  0  0  0  0  0  0  0  0  0  0  0
    7.7089   30.4032   -3.0813 O   0  0  0  0  0  0  0  0  0  0  0  0
    8.3587   28.7818   -6.4694 O   0  0  0  0  0  0  0  0  0  0  0  0
    7.7394   28.9804   -5.3536 C   0  0  0  0  0  0  0  0  0  0  0  0
    6.6829   28.2735   -4.8472 N   0  0  0  0  0  0  0  0  0  0  0  0
    5.7191   27.5778   -4.4456 O   0  0  0  0  0  0  0  0  0  0  0  0
    6.7441   27.4467   -5.9508 H   0  0  0  0  0  0  0  0  0  0  0  0
    4.8022   27.8474   -4.7598 H   0  0  0  0  0  0  0  0  0  0  0  0
 30 31  2  0  0  0
 31 32  1  0  0  0
 32 33  1  0  0  0
 31 27  1  0  0  0
 27 28  2  0  0  0
 27 29  2  0  0  0
 27 21  1  0  0  0
 21 22  2  0  0  0
 22 23  1  0  0  0
 23 24  2  0  0  0
 24 19  1  0  0  0
 19  1  1  0  0  0
  1  2  2  0  0  0
  2  3  1  0  0  0
  3  4  2  0  0  0
  4  7  1  0  0  0
  7  8  1  0  0  0
  8  9  2  0  0  0
  8 11  1  0  0  0
 11 12  1  0  0  0
 12 13  2  0  0  0
 13 14  1  0  0  0
 14 15  2  0  0  0
 15 16  1  0  0  0
 15 17  1  0  0  0
 17 18  2  0  0  0
  4  5  1  0  0  0
 24 25  1  0  0  0
 25 26  2  0  0  0
 26 21  1  0  0  0
  5  1  1  0  0  0
 18 12  1  0  0  0
 32 34  1  0  0  0
 33 35  1  0  0  0
 19 20  1  0  0  0
  7 10  1  0  0  0
  5  6  1  0  0  0
M  END
> <minimizedAffinity>
15.77433

> <CNNscore>
0.4894760847

> <CNNaffinity>
6.3315048218

> <CNN_VS>
3.0991201401

> <CNNaffinity_variance>
0.7835675478

$$$$
[H]ON([H])C(=O)S(=O)(=O)c1c([H])c([H])c(N([H])c2nnc(N([H])C(=O)C([H])([H])c3c([H])c([H])c(Cl)c([H])c3[H])n2[H])c([H])c1[H]


 35 37  0  0  0  0  0  0  0  0999 V2000
   14.1555   21.2609   -0.8175 C   0  0  0  0  0  0  0  0  0  0  0  0
   14.9011   21.0433    0.3124 N   0  0  0  0  0  0  0  0  0  0  0  0
   14.1236   20.8444    1.3321 N   0  0  0  0  0  0  0  0  0  0  0  0
   12.8642   20.9144    0.9510 C   0  0  0  0  0  0  0  0  0  0  0  0
   12.8992   21.1800   -0.4050 N   0  0  0  0  0  0  0  0  0  0  0  0
   12.0631   21.2967   -1.0182 H   0  0  0  0  0  0  0  0  0  0  0  0
   11.7105   20.7131    1.7163 N   0  0  0  0  0  0  0  0  0  0  0  0
   10.6832   21.5465    2.1455 C   0  0  0  0  0  0  0  0  0  0  0  0
    9.9050   20.9171    3.0447 O   0  0  0  0  0  0  0  0  0  0  0  0
   11.6510   19.7024    2.1848 H   0  0  0  0  0  0  0  0  0  0  0  0
   10.2383   22.8839    1.8786 C   0  0  0  0  0  0  0  0  0  0  0  0
   10.7228   23.6567    0.7400 C   0  0  0  0  0  0  0  0  0  0  0  0
   10.2442   23.4572   -0.5400 C   0  0  0  0  0  0  0  0  0  0  0  0
   10.7502   24.1742   -1.6298 C   0  0  0  0  0  0  0  0  0  0  0  0
   11.7599   25.1062   -1.4065 C   0  0  0  0  0  0  0  0  0  0  0  0
   12.4114   26.0128   -2.7473 Cl  0  0  0  0  0  0  0  0  0  0  0  0
   12.2171   25.2847   -0.1334 C   0  0  0  0  0  0  0  0  0  0  0  0
   11.7577   24.6144    0.9556 C   0  0  0  0  0  0  0  0  0  0  0  0
   14.7406   21.4517   -2.0789 N   0  0  0  0  0  0  0  0  0  0  0  0
   14.9899   20.5872   -2.6420 H   0  0  0  0  0  0  0  0  0  0  0  0
   15.5377   25.1817   -3.9756 C   0  0  0  0  0  0  0  0  0  0  0  0
   15.4178   24.0104   -4.6880 C   0  0  0  0  0  0  0  0  0  0  0  0
   15.1785   22.7790   -4.0772 C   0  0  0  0  0  0  0  0  0  0  0  0
   15.0456   22.6673   -2.7124 C   0  0  0  0  0  0  0  0  0  0  0  0
   15.1736   23.8507   -1.9945 C   0  0  0  0  0  0  0  0  0  0  0  0
   15.4111   25.0665   -2.5886 C   0  0  0  0  0  0  0  0  0  0  0  0
   15.6418   26.7000   -4.7585 S   0  0  0  0  0  0  0  0  0  0  0  0
   17.0875   27.1855   -4.8271 O   0  0  0  0  0  0  0  0  0  0  0  0
   14.8360   27.7377   -4.0021 O   0  0  0  0  0  0  0  0  0  0  0  0
   13.8929   27.1510   -6.5803 O   0  0  0  0  0  0  0  0  0  0  0  0
   15.0606   26.6204   -6.4290 C   0  0  0  0  0  0  0  0  0  0  0  0
   15.8526   26.0553   -7.3911 N   0  0  0  0  0  0  0  0  0  0  0  0
   16.5240   25.5570   -8.3265 O   0  0  0  0  0  0  0  0  0  0  0  0
   14.8935   26.3785   -8.3297 H   0  0  0  0  0  0  0  0  0  0  0  0
   16.3464   24.5922   -8.5495 H   0  0  0  0  0  0  0  0  0  0  0  0
 30 31  2  0  0  0
 31 32  1  0  0  0
 32 33  1  0  0  0
 31 27  1  0  0  0
 27 28  2  0  0  0
 27 29  2  0  0  0
 27 21  1  0  0  0
 21 22  2  0  0  0
 22 23  1  0  0  0
 23 24  2  0  0  0
 24 19  1  0  0  0
 19  1  1  0  0  0
  1  2  2  0  0  0
  2  3  1  0  0  0
  3  4  2  0  0  0
  4  7  1  0  0  0
  7  8  1  0  0  0
  8  9  2  0  0  0
  8 11  1  0  0  0
 11 12  1  0  0  0
 12 13  2  0  0  0
 13 14  1  0  0  0
 14 15  2  0  0  0
 15 16  1  0  0  0
 15 17  1  0  0  0
 17 18  2  0  0  0
  4  5  1  0  0  0
 24 25  1  0  0  0
 25 26  2  0  0  0
 26 21  1  0  0  0
  5  1  1  0  0  0
 18 12  1  0  0  0
 32 34  1  0  0  0
 33 35  1  0  0  0
 19 20  1  0  0  0
  7 10  1  0  0  0
  5  6  1  0  0  0
M  END
> <minimizedAffinity>
-8.79283

> <CNNscore>
0.4499147832

> <CNNaffinity>
7.5463552475

> <CNN_VS>
3.3952167034

> <CNNaffinity_variance>
0.1332613230

$$$$
[H]ON([H])C(=O)S(=O)(=O)c1c([H])c([H])c(N([H])c2nnc(N([H])C(=O)C([H])([H])c3c([H])c([H])c(Cl)c([H])c3[H])n2[H])c([H])c1[H]


 35 37  0  0  0  0  0  0  0  0999 V2000
   13.8678   21.3290   -0.8315 C   0  0  0  0  0  0  0  0  0  0  0  0
   14.7304   21.0667    0.2016 N   0  0  0  0  0  0  0  0  0  0  0  0
   14.0671   20.8386    1.2933 N   0  0  0  0  0  0  0  0  0  0  0  0
   12.7745   20.9313    1.0557 C   0  0  0  0  0  0  0  0  0  0  0  0
   12.6635   21.2435   -0.2862 N   0  0  0  0  0  0  0  0  0  0  0  0
   11.7665   21.3878   -0.7994 H   0  0  0  0  0  0  0  0  0  0  0  0
   11.7094   20.7125    1.9361 N   0  0  0  0  0  0  0  0  0  0  0  0
   10.4176   21.2192    2.0281 C   0  0  0  0  0  0  0  0  0  0  0  0
    9.8442   20.8509    3.1881 O   0  0  0  0  0  0  0  0  0  0  0  0
   11.9783   20.0920    2.8234 H   0  0  0  0  0  0  0  0  0  0  0  0
    9.5450   22.0175    1.2161 C   0  0  0  0  0  0  0  0  0  0  0  0
    8.5402   21.4301    0.3367 C   0  0  0  0  0  0  0  0  0  0  0  0
    7.1916   21.6860    0.4885 C   0  0  0  0  0  0  0  0  0  0  0  0
    6.2353   21.0802   -0.3339 C   0  0  0  0  0  0  0  0  0  0  0  0
    6.6649   20.2002   -1.3232 C   0  0  0  0  0  0  0  0  0  0  0  0
    5.4944   19.4285   -2.3615 Cl  0  0  0  0  0  0  0  0  0  0  0  0
    8.0023   19.9625   -1.4530 C   0  0  0  0  0  0  0  0  0  0  0  0
    8.9676   20.5263   -0.6807 C   0  0  0  0  0  0  0  0  0  0  0  0
   14.3132   21.5590   -2.1425 N   0  0  0  0  0  0  0  0  0  0  0  0
   14.4133   20.7186   -2.7831 H   0  0  0  0  0  0  0  0  0  0  0  0
   15.2041   25.2993   -3.9759 C   0  0  0  0  0  0  0  0  0  0  0  0
   15.5994   24.1023   -4.5278 C   0  0  0  0  0  0  0  0  0  0  0  0
   15.3330   22.8717   -3.9266 C   0  0  0  0  0  0  0  0  0  0  0  0
   14.6502   22.7866   -2.7353 C   0  0  0  0  0  0  0  0  0  0  0  0
   14.2577   23.9973   -2.1765 C   0  0  0  0  0  0  0  0  0  0  0  0
   14.5179   25.2128   -2.7615 C   0  0  0  0  0  0  0  0  0  0  0  0
   15.3757   26.7766   -4.8228 S   0  0  0  0  0  0  0  0  0  0  0  0
   16.8261   27.2523   -4.8108 O   0  0  0  0  0  0  0  0  0  0  0  0
   14.5255   27.8537   -4.1782 O   0  0  0  0  0  0  0  0  0  0  0  0
   13.7352   27.0802   -6.7717 O   0  0  0  0  0  0  0  0  0  0  0  0
   14.9152   26.6168   -6.5249 C   0  0  0  0  0  0  0  0  0  0  0  0
   15.7990   26.0661   -7.4125 N   0  0  0  0  0  0  0  0  0  0  0  0
   16.5575   25.5765   -8.2838 O   0  0  0  0  0  0  0  0  0  0  0  0
   14.8915   26.3101   -8.4235 H   0  0  0  0  0  0  0  0  0  0  0  0
   16.4448   24.5975   -8.4860 H   0  0  0  0  0  0  0  0  0  0  0  0
 30 31  2  0  0  0
 31 32  1  0  0  0
 32 33  1  0  0  0
 31 27  1  0  0  0
 27 28  2  0  0  0
 27 29  2  0  0  0
 27 21  1  0  0  0
 21 22  2  0  0  0
 22 23  1  0  0  0
 23 24  2  0  0  0
 24 19  1  0  0  0
 19  1  1  0  0  0
  1  2  2  0  0  0
  2  3  1  0  0  0
  3  4  2  0  0  0
  4  7  1  0  0  0
  7  8  1  0  0  0
  8  9  2  0  0  0
  8 11  1  0  0  0
 11 12  1  0  0  0
 12 13  2  0  0  0
 13 14  1  0  0  0
 14 15  2  0  0  0
 15 16  1  0  0  0
 15 17  1  0  0  0
 17 18  2  0  0  0
  4  5  1  0  0  0
 24 25  1  0  0  0
 25 26  2  0  0  0
 26 21  1  0  0  0
  5  1  1  0  0  0
 18 12  1  0  0  0
 32 34  1  0  0  0
 33 35  1  0  0  0
 19 20  1  0  0  0
  7 10  1  0  0  0
  5  6  1  0  0  0
M  END
> <minimizedAffinity>
-8.60875

> <CNNscore>
0.4001536369

> <CNNaffinity>
7.0100793839

> <CNN_VS>
2.8051087856

> <CNNaffinity_variance>
0.0586239100

$$$$
[H]ON([H])C(=O)S(=O)(=O)c1c([H])c([H])c(N([H])c2nnc(N([H])C(=O)C([H])([H])c3c([H])c([H])c(Cl)c([H])c3[H])n2[H])c([H])c1[H]


 35 37  0  0  0  0  0  0  0  0999 V2000
   15.0381   22.4854   -0.7475 C   0  0  0  0  0  0  0  0  0  0  0  0
   16.3448   22.8900   -0.6521 N   0  0  0  0  0  0  0  0  0  0  0  0
   16.5302   23.9749   -1.3394 N   0  0  0  0  0  0  0  0  0  0  0  0
   15.3989   24.3398   -1.9077 C   0  0  0  0  0  0  0  0  0  0  0  0
   14.4681   23.3910   -1.5286 N   0  0  0  0  0  0  0  0  0  0  0  0
   13.4633   23.3860   -1.8100 H   0  0  0  0  0  0  0  0  0  0  0  0
   15.1426   25.4711   -2.6899 N   0  0  0  0  0  0  0  0  0  0  0  0
   13.9863   26.0304   -3.2230 C   0  0  0  0  0  0  0  0  0  0  0  0
   14.2900   27.0141   -4.0892 O   0  0  0  0  0  0  0  0  0  0  0  0
   16.0630   25.9736   -3.0708 H   0  0  0  0  0  0  0  0  0  0  0  0
   12.5711   25.8387   -3.0875 C   0  0  0  0  0  0  0  0  0  0  0  0
   11.9557   25.4148   -1.8346 C   0  0  0  0  0  0  0  0  0  0  0  0
   10.8929   24.5335   -1.7998 C   0  0  0  0  0  0  0  0  0  0  0  0
   10.2833   24.1705   -0.5938 C   0  0  0  0  0  0  0  0  0  0  0  0
   10.7669   24.7178    0.5913 C   0  0  0  0  0  0  0  0  0  0  0  0
   10.0243   24.2849    2.1096 Cl  0  0  0  0  0  0  0  0  0  0  0  0
   11.8170   25.5869    0.5313 C   0  0  0  0  0  0  0  0  0  0  0  0
   12.4418   25.9687   -0.6134 C   0  0  0  0  0  0  0  0  0  0  0  0
   14.5454   21.3667   -0.0579 N   0  0  0  0  0  0  0  0  0  0  0  0
   14.9907   20.4255   -0.2643 H   0  0  0  0  0  0  0  0  0  0  0  0
   11.3476   21.1717    2.7495 C   0  0  0  0  0  0  0  0  0  0  0  0
   11.6624   22.3319    2.0797 C   0  0  0  0  0  0  0  0  0  0  0  0
   12.7207   22.4149    1.1742 C   0  0  0  0  0  0  0  0  0  0  0  0
   13.5159   21.3271    0.8963 C   0  0  0  0  0  0  0  0  0  0  0  0
   13.2000   20.1582    1.5789 C   0  0  0  0  0  0  0  0  0  0  0  0
   12.1609   20.0693    2.4733 C   0  0  0  0  0  0  0  0  0  0  0  0
    9.9350   21.0452    3.7074 S   0  0  0  0  0  0  0  0  0  0  0  0
    9.9453   22.0681    4.8405 O   0  0  0  0  0  0  0  0  0  0  0  0
    9.8413   19.6642    4.3258 O   0  0  0  0  0  0  0  0  0  0  0  0
    8.5035   20.8194    1.5906 O   0  0  0  0  0  0  0  0  0  0  0  0
    8.4698   21.3578    2.7640 C   0  0  0  0  0  0  0  0  0  0  0  0
    7.4539   22.0867    3.3200 N   0  0  0  0  0  0  0  0  0  0  0  0
    6.4805   22.7417    3.7643 O   0  0  0  0  0  0  0  0  0  0  0  0
    6.7154   21.8788    2.1726 H   0  0  0  0  0  0  0  0  0  0  0  0
    6.4546   23.7230    3.5440 H   0  0  0  0  0  0  0  0  0  0  0  0
 30 31  2  0  0  0
 31 32  1  0  0  0
 32 33  1  0  0  0
 31 27  1  0  0  0
 27 28  2  0  0  0
 27 29  2  0  0  0
 27 21  1  0  0  0
 21 22  2  0  0  0
 22 23  1  0  0  0
 23 24  2  0  0  0
 24 19  1  0  0  0
 19  1  1  0  0  0
  1  2  2  0  0  0
  2  3  1  0  0  0
  3  4  2  0  0  0
  4  7  1  0  0  0
  7  8  1  0  0  0
  8  9  2  0  0  0
  8 11  1  0  0  0
 11 12  1  0  0  0
 12 13  2  0  0  0
 13 14  1  0  0  0
 14 15  2  0  0  0
 15 16  1  0  0  0
 15 17  1  0  0  0
 17 18  2  0  0  0
  4  5  1  0  0  0
 24 25  1  0  0  0
 25 26  2  0  0  0
 26 21  1  0  0  0
  5  1  1  0  0  0
 18 12  1  0  0  0
 32 34  1  0  0  0
 33 35  1  0  0  0
 19 20  1  0  0  0
  7 10  1  0  0  0
  5  6  1  0  0  0
M  END
> <minimizedAffinity>
-2.86322

> <CNNscore>
0.3779870272

> <CNNaffinity>
6.9094071388

> <CNN_VS>
2.6116662025

> <CNNaffinity_variance>
0.4091924727

$$$$
[H]ON([H])C(=O)S(=O)(=O)c1c([H])c([H])c(N([H])c2nnc(N([H])C(=O)C([H])([H])c3c([H])c([H])c(Cl)c([H])c3[H])n2[H])c([H])c1[H]


 35 37  0  0  0  0  0  0  0  0999 V2000
   14.3984   21.2870   -0.7770 C   0  0  0  0  0  0  0  0  0  0  0  0
   15.0424   21.1323    0.4237 N   0  0  0  0  0  0  0  0  0  0  0  0
   14.1841   20.8846    1.3649 N   0  0  0  0  0  0  0  0  0  0  0  0
   12.9668   20.8599    0.8612 C   0  0  0  0  0  0  0  0  0  0  0  0
   13.1165   21.1177   -0.4885 N   0  0  0  0  0  0  0  0  0  0  0  0
   12.3389   21.1688   -1.1823 H   0  0  0  0  0  0  0  0  0  0  0  0
   11.7605   20.5806    1.5124 N   0  0  0  0  0  0  0  0  0  0  0  0
   10.6672   21.3546    1.8861 C   0  0  0  0  0  0  0  0  0  0  0  0
    9.8406   20.6553    2.6847 O   0  0  0  0  0  0  0  0  0  0  0  0
   11.7019   19.5472    1.9287 H   0  0  0  0  0  0  0  0  0  0  0  0
   10.1933   22.6861    1.6405 C   0  0  0  0  0  0  0  0  0  0  0  0
   10.7726   23.5455    0.6138 C   0  0  0  0  0  0  0  0  0  0  0  0
   11.6736   24.5472    0.9171 C   0  0  0  0  0  0  0  0  0  0  0  0
   12.1867   25.3933   -0.0721 C   0  0  0  0  0  0  0  0  0  0  0  0
   11.7710   25.2126   -1.3884 C   0  0  0  0  0  0  0  0  0  0  0  0
   12.3925   26.2546   -2.6420 Cl  0  0  0  0  0  0  0  0  0  0  0  0
   10.8792   24.2170   -1.6631 C   0  0  0  0  0  0  0  0  0  0  0  0
   10.3543   23.3708   -0.7387 C   0  0  0  0  0  0  0  0  0  0  0  0
   15.0901   21.5109   -1.9775 N   0  0  0  0  0  0  0  0  0  0  0  0
   15.7447   20.7481   -2.3183 H   0  0  0  0  0  0  0  0  0  0  0  0
   15.0350   24.9290   -4.5191 C   0  0  0  0  0  0  0  0  0  0  0  0
   14.7923   25.0192   -3.1675 C   0  0  0  0  0  0  0  0  0  0  0  0
   14.7859   23.9049   -2.3278 C   0  0  0  0  0  0  0  0  0  0  0  0
   15.0270   22.6395   -2.8108 C   0  0  0  0  0  0  0  0  0  0  0  0
   15.2654   22.5501   -4.1773 C   0  0  0  0  0  0  0  0  0  0  0  0
   15.2714   23.6423   -5.0107 C   0  0  0  0  0  0  0  0  0  0  0  0
   15.2240   26.3251   -5.4907 S   0  0  0  0  0  0  0  0  0  0  0  0
   13.8719   26.9500   -5.8246 O   0  0  0  0  0  0  0  0  0  0  0  0
   15.9088   25.9685   -6.7955 O   0  0  0  0  0  0  0  0  0  0  0  0
   15.9618   28.7584   -5.1501 O   0  0  0  0  0  0  0  0  0  0  0  0
   16.1648   27.5781   -4.6666 C   0  0  0  0  0  0  0  0  0  0  0  0
   16.9771   27.2319   -3.6212 N   0  0  0  0  0  0  0  0  0  0  0  0
   17.7381   26.9912   -2.6532 O   0  0  0  0  0  0  0  0  0  0  0  0
   17.2875   28.5669   -3.4577 H   0  0  0  0  0  0  0  0  0  0  0  0
   18.7101   26.8419   -2.8657 H   0  0  0  0  0  0  0  0  0  0  0  0
 30 31  2  0  0  0
 31 32  1  0  0  0
 32 33  1  0  0  0
 31 27  1  0  0  0
 27 28  2  0  0  0
 27 29  2  0  0  0
 27 21  1  0  0  0
 21 22  2  0  0  0
 22 23  1  0  0  0
 23 24  2  0  0  0
 24 19  1  0  0  0
 19  1  1  0  0  0
  1  2  2  0  0  0
  2  3  1  0  0  0
  3  4  2  0  0  0
  4  7  1  0  0  0
  7  8  1  0  0  0
  8  9  2  0  0  0
  8 11  1  0  0  0
 11 12  1  0  0  0
 12 13  2  0  0  0
 13 14  1  0  0  0
 14 15  2  0  0  0
 15 16  1  0  0  0
 15 17  1  0  0  0
 17 18  2  0  0  0
  4  5  1  0  0  0
 24 25  1  0  0  0
 25 26  2  0  0  0
 26 21  1  0  0  0
  5  1  1  0  0  0
 18 12  1  0  0  0
 32 34  1  0  0  0
 33 35  1  0  0  0
 19 20  1  0  0  0
  7 10  1  0  0  0
  5  6  1  0  0  0
M  END
> <minimizedAffinity>
-8.54150

> <CNNscore>
0.3595825434

> <CNNaffinity>
7.4524931908

> <CNN_VS>
2.6797864437

> <CNNaffinity_variance>
0.1029960364

$$$$
[H]ON([H])C(=O)S(=O)(=O)c1c([H])c([H])c(N([H])c2nnc(N([H])C(=O)C([H])([H])c3c([H])c([H])c(Cl)c([H])c3[H])n2[H])c([H])c1[H]


 35 37  0  0  0  0  0  0  0  0999 V2000
   13.7602   21.5522   -1.6992 C   0  0  0  0  0  0  0  0  0  0  0  0
   12.5800   20.9604   -2.0694 N   0  0  0  0  0  0  0  0  0  0  0  0
   11.7577   20.9321   -1.0659 N   0  0  0  0  0  0  0  0  0  0  0  0
   12.3236   21.4844   -0.0119 C   0  0  0  0  0  0  0  0  0  0  0  0
   13.5858   21.8681   -0.4245 N   0  0  0  0  0  0  0  0  0  0  0  0
   14.2981   22.3401    0.1742 H   0  0  0  0  0  0  0  0  0  0  0  0
   11.7749   21.7039    1.2562 N   0  0  0  0  0  0  0  0  0  0  0  0
   10.5453   22.1743    1.7041 C   0  0  0  0  0  0  0  0  0  0  0  0
   10.5788   22.4048    3.0293 O   0  0  0  0  0  0  0  0  0  0  0  0
   12.5081   21.5932    2.0898 H   0  0  0  0  0  0  0  0  0  0  0  0
    9.2640   22.4689    1.1302 C   0  0  0  0  0  0  0  0  0  0  0  0
    8.3715   21.4273    0.6333 C   0  0  0  0  0  0  0  0  0  0  0  0
    8.7336   20.5787   -0.3943 C   0  0  0  0  0  0  0  0  0  0  0  0
    7.8506   19.6137   -0.8911 C   0  0  0  0  0  0  0  0  0  0  0  0
    6.5803   19.5173   -0.3299 C   0  0  0  0  0  0  0  0  0  0  0  0
    5.4577   18.3250   -0.9314 Cl  0  0  0  0  0  0  0  0  0  0  0  0
    6.2453   20.3675    0.6834 C   0  0  0  0  0  0  0  0  0  0  0  0
    7.0669   21.3186    1.1998 C   0  0  0  0  0  0  0  0  0  0  0  0
   14.8115   21.7634   -2.6047 N   0  0  0  0  0  0  0  0  0  0  0  0
   15.3286   20.9100   -2.9666 H   0  0  0  0  0  0  0  0  0  0  0  0
   16.1272   25.5364   -4.0806 C   0  0  0  0  0  0  0  0  0  0  0  0
   15.5976   24.5725   -4.9076 C   0  0  0  0  0  0  0  0  0  0  0  0
   15.1831   23.3247   -4.4405 C   0  0  0  0  0  0  0  0  0  0  0  0
   15.2805   22.9865   -3.1106 C   0  0  0  0  0  0  0  0  0  0  0  0
   15.8219   23.9593   -2.2783 C   0  0  0  0  0  0  0  0  0  0  0  0
   16.2339   25.1893   -2.7311 C   0  0  0  0  0  0  0  0  0  0  0  0
   16.4509   27.1201   -4.6428 S   0  0  0  0  0  0  0  0  0  0  0  0
   17.0181   27.0956   -6.0598 O   0  0  0  0  0  0  0  0  0  0  0  0
   17.4664   27.7992   -3.7449 O   0  0  0  0  0  0  0  0  0  0  0  0
   15.1580   29.2266   -5.3299 O   0  0  0  0  0  0  0  0  0  0  0  0
   14.9833   28.1082   -4.7080 C   0  0  0  0  0  0  0  0  0  0  0  0
   13.8281   27.6357   -4.1471 N   0  0  0  0  0  0  0  0  0  0  0  0
   12.7324   27.2669   -3.6599 O   0  0  0  0  0  0  0  0  0  0  0  0
   13.1805   28.7691   -4.5958 H   0  0  0  0  0  0  0  0  0  0  0  0
   12.5231   27.5768   -2.7260 H   0  0  0  0  0  0  0  0  0  0  0  0
 30 31  2  0  0  0
 31 32  1  0  0  0
 32 33  1  0  0  0
 31 27  1  0  0  0
 27 28  2  0  0  0
 27 29  2  0  0  0
 27 21  1  0  0  0
 21 22  2  0  0  0
 22 23  1  0  0  0
 23 24  2  0  0  0
 24 19  1  0  0  0
 19  1  1  0  0  0
  1  2  2  0  0  0
  2  3  1  0  0  0
  3  4  2  0  0  0
  4  7  1  0  0  0
  7  8  1  0  0  0
  8  9  2  0  0  0
  8 11  1  0  0  0
 11 12  1  0  0  0
 12 13  2  0  0  0
 13 14  1  0  0  0
 14 15  2  0  0  0
 15 16  1  0  0  0
 15 17  1  0  0  0
 17 18  2  0  0  0
  4  5  1  0  0  0
 24 25  1  0  0  0
 25 26  2  0  0  0
 26 21  1  0  0  0
  5  1  1  0  0  0
 18 12  1  0  0  0
 32 34  1  0  0  0
 33 35  1  0  0  0
 19 20  1  0  0  0
  7 10  1  0  0  0
  5  6  1  0  0  0
M  END
> <minimizedAffinity>
-4.22443

> <CNNscore>
0.3427739143

> <CNNaffinity>
6.6129240990

> <CNN_VS>
2.2667379379

> <CNNaffinity_variance>
0.2047184706

$$$$
[H]ON([H])C(=O)S(=O)(=O)c1c([H])c([H])c(N([H])c2nnc(N([H])C(=O)C([H])([H])c3c([H])c([H])c(Cl)c([H])c3[H])n2[H])c([H])c1[H]


 35 37  0  0  0  0  0  0  0  0999 V2000
   12.2342   20.6246   -0.8798 C   0  0  0  0  0  0  0  0  0  0  0  0
   13.2733   20.6515    0.0144 N   0  0  0  0  0  0  0  0  0  0  0  0
   14.3785   20.9618   -0.5908 N   0  0  0  0  0  0  0  0  0  0  0  0
   14.1445   21.1533   -1.8732 C   0  0  0  0  0  0  0  0  0  0  0  0
   12.7901   20.9348   -2.0417 N   0  0  0  0  0  0  0  0  0  0  0  0
   12.2760   21.0060   -2.9469 H   0  0  0  0  0  0  0  0  0  0  0  0
   15.0404   21.5487   -2.8723 N   0  0  0  0  0  0  0  0  0  0  0  0
   15.5464   22.7786   -3.2790 C   0  0  0  0  0  0  0  0  0  0  0  0
   16.2223   22.6553   -4.4358 O   0  0  0  0  0  0  0  0  0  0  0  0
   15.3260   20.7281   -3.5721 H   0  0  0  0  0  0  0  0  0  0  0  0
   15.5410   24.1272   -2.7899 C   0  0  0  0  0  0  0  0  0  0  0  0
   14.5600   25.1141   -3.2279 C   0  0  0  0  0  0  0  0  0  0  0  0
   14.7687   25.9170   -4.3320 C   0  0  0  0  0  0  0  0  0  0  0  0
   13.8392   26.8906   -4.7142 C   0  0  0  0  0  0  0  0  0  0  0  0
   12.6823   27.0451   -3.9556 C   0  0  0  0  0  0  0  0  0  0  0  0
   11.5072   28.2529   -4.4075 Cl  0  0  0  0  0  0  0  0  0  0  0  0
   12.4991   26.2409   -2.8686 C   0  0  0  0  0  0  0  0  0  0  0  0
   13.3706   25.2824   -2.4588 C   0  0  0  0  0  0  0  0  0  0  0  0
   10.9113   20.3685   -0.4873 N   0  0  0  0  0  0  0  0  0  0  0  0
   10.3037   19.7992   -1.1456 H   0  0  0  0  0  0  0  0  0  0  0  0
    8.9796   21.7299    3.0568 C   0  0  0  0  0  0  0  0  0  0  0  0
   10.2379   21.1732    3.0780 C   0  0  0  0  0  0  0  0  0  0  0  0
   10.8728   20.7036    1.9278 C   0  0  0  0  0  0  0  0  0  0  0  0
   10.2689   20.7743    0.6937 C   0  0  0  0  0  0  0  0  0  0  0  0
    8.9953   21.3309    0.6757 C   0  0  0  0  0  0  0  0  0  0  0  0
    8.3630   21.7937    1.8043 C   0  0  0  0  0  0  0  0  0  0  0  0
    8.3026   22.4677    4.4447 S   0  0  0  0  0  0  0  0  0  0  0  0
    9.3926   22.9470    5.3999 O   0  0  0  0  0  0  0  0  0  0  0  0
    7.4285   21.4795    5.1917 O   0  0  0  0  0  0  0  0  0  0  0  0
    6.4744   24.1985    4.9379 O   0  0  0  0  0  0  0  0  0  0  0  0
    7.3392   23.8936    4.0285 C   0  0  0  0  0  0  0  0  0  0  0  0
    7.5795   24.5481    2.8511 N   0  0  0  0  0  0  0  0  0  0  0  0
    7.7458   25.2016    1.7931 O   0  0  0  0  0  0  0  0  0  0  0  0
    6.6217   25.4768    3.2051 H   0  0  0  0  0  0  0  0  0  0  0  0
    7.1557   24.9629    1.0141 H   0  0  0  0  0  0  0  0  0  0  0  0
 30 31  2  0  0  0
 31 32  1  0  0  0
 32 33  1  0  0  0
 31 27  1  0  0  0
 27 28  2  0  0  0
 27 29  2  0  0  0
 27 21  1  0  0  0
 21 22  2  0  0  0
 22 23  1  0  0  0
 23 24  2  0  0  0
 24 19  1  0  0  0
 19  1  1  0  0  0
  1  2  2  0  0  0
  2  3  1  0  0  0
  3  4  2  0  0  0
  4  7  1  0  0  0
  7  8  1  0  0  0
  8  9  2  0  0  0
  8 11  1  0  0  0
 11 12  1  0  0  0
 12 13  2  0  0  0
 13 14  1  0  0  0
 14 15  2  0  0  0
 15 16  1  0  0  0
 15 17  1  0  0  0
 17 18  2  0  0  0
  4  5  1  0  0  0
 24 25  1  0  0  0
 25 26  2  0  0  0
 26 21  1  0  0  0
  5  1  1  0  0  0
 18 12  1  0  0  0
 32 34  1  0  0  0
 33 35  1  0  0  0
 19 20  1  0  0  0
  7 10  1  0  0  0
  5  6  1  0  0  0
M  END
> <minimizedAffinity>
-3.62232

> <CNNscore>
0.3299038410

> <CNNaffinity>
6.4246468544

> <CNN_VS>
2.1195156574

> <CNNaffinity_variance>
0.7326731682

$$$$
[H]OC([H])([H])[C@@]1([H])O[C@]([H])(C([H])([H])O[H])[C@]([H])(O[H])[C@@]([H])(O[H])[C@]1([H])O[H]


 18 18  0  0  0  0  0  0  0  0999 V2000
   12.9263   21.4089   -0.3244 C   0  0  0  0  0  0  0  0  0  0  0  0
   12.1087   20.3688   -0.6505 O   0  0  0  0  0  0  0  0  0  0  0  0
   10.9486   20.2636    0.0580 C   0  0  0  0  0  0  0  0  0  0  0  0
   10.9608   21.1752    1.2817 C   0  0  0  0  0  0  0  0  0  0  0  0
    9.8802   20.9559    2.1001 O   0  0  0  0  0  0  0  0  0  0  0  0
   12.2864   20.8326    1.9774 C   0  0  0  0  0  0  0  0  0  0  0  0
   12.3122   21.2634    3.2818 O   0  0  0  0  0  0  0  0  0  0  0  0
   13.3461   21.4683    1.1089 C   0  0  0  0  0  0  0  0  0  0  0  0
   14.6071   20.9396    1.3372 O   0  0  0  0  0  0  0  0  0  0  0  0
    9.2877   21.7630    2.0939 H   0  0  0  0  0  0  0  0  0  0  0  0
   12.7766   20.5468    3.8197 H   0  0  0  0  0  0  0  0  0  0  0  0
   14.9968   21.3771    2.1344 H   0  0  0  0  0  0  0  0  0  0  0  0
   13.8570   21.0461   -2.5091 O   0  0  0  0  0  0  0  0  0  0  0  0
   14.2040   21.2531   -1.1579 C   0  0  0  0  0  0  0  0  0  0  0  0
   13.7755   21.9208   -2.9946 H   0  0  0  0  0  0  0  0  0  0  0  0
    9.6965   20.4377   -0.7506 C   0  0  0  0  0  0  0  0  0  0  0  0
    9.1527   21.6940   -0.6633 O   0  0  0  0  0  0  0  0  0  0  0  0
    9.4337   22.2645   -1.4255 H   0  0  0  0  0  0  0  0  0  0  0  0
 13 14  1  0  0  0
 14  1  1  0  0  0
  1  2  1  0  0  0
  2  3  1  0  0  0
  3 16  1  0  0  0
 16 17  1  0  0  0
  3  4  1  0  0  0
  4  5  1  0  0  0
  4  6  1  0  0  0
  6  7  1  0  0  0
  6  8  1  0  0  0
  8  9  1  0  0  0
  8  1  1  0  0  0
 13 15  1  0  0  0
 17 18  1  0  0  0
  5 10  1  0  0  0
  7 11  1  0  0  0
  9 12  1  0  0  0
M  END
> <minimizedAffinity>
-5.68435

> <CNNscore>
0.4197630584

> <CNNaffinity>
3.5396575928

> <CNN_VS>
1.4858175516

> <CNNaffinity_variance>
0.2666948438

$$$$
[H]OC([H])([H])[C@@]1([H])O[C@]([H])(C([H])([H])O[H])[C@]([H])(O[H])[C@@]([H])(O[H])[C@]1([H])O[H]


 18 18  0  0  0  0  0  0  0  0999 V2000
   14.7921   25.6345   -3.0306 C   0  0  0  0  0  0  0  0  0  0  0  0
   13.4450   25.6818   -2.8320 O   0  0  0  0  0  0  0  0  0  0  0  0
   12.9256   24.7601   -1.9721 C   0  0  0  0  0  0  0  0  0  0  0  0
   13.9430   23.6707   -1.6451 C   0  0  0  0  0  0  0  0  0  0  0  0
   13.3863   22.6439   -0.9230 O   0  0  0  0  0  0  0  0  0  0  0  0
   14.4317   23.2035   -3.0240 C   0  0  0  0  0  0  0  0  0  0  0  0
   15.0617   21.9840   -2.9634 O   0  0  0  0  0  0  0  0  0  0  0  0
   15.3231   24.3219   -3.5097 C   0  0  0  0  0  0  0  0  0  0  0  0
   15.5319   24.2777   -4.8794 O   0  0  0  0  0  0  0  0  0  0  0  0
   13.7832   22.6287   -0.0040 H   0  0  0  0  0  0  0  0  0  0  0  0
   14.7815   21.4665   -3.7832 H   0  0  0  0  0  0  0  0  0  0  0  0
   16.2478   23.6225   -5.0718 H   0  0  0  0  0  0  0  0  0  0  0  0
   14.0234   26.8005   -4.9850 O   0  0  0  0  0  0  0  0  0  0  0  0
   15.1227   26.6711   -4.1111 C   0  0  0  0  0  0  0  0  0  0  0  0
   13.3874   27.5042   -4.6567 H   0  0  0  0  0  0  0  0  0  0  0  0
   12.3075   25.3323   -0.7302 C   0  0  0  0  0  0  0  0  0  0  0  0
   13.0389   25.1023    0.4072 O   0  0  0  0  0  0  0  0  0  0  0  0
   13.6165   25.8782    0.6300 H   0  0  0  0  0  0  0  0  0  0  0  0
 13 14  1  0  0  0
 14  1  1  0  0  0
  1  2  1  0  0  0
  2  3  1  0  0  0
  3 16  1  0  0  0
 16 17  1  0  0  0
  3  4  1  0  0  0
  4  5  1  0  0  0
  4  6  1  0  0  0
  6  7  1  0  0  0
  6  8  1  0  0  0
  8  9  1  0  0  0
  8  1  1  0  0  0
 13 15  1  0  0  0
 17 18  1  0  0  0
  5 10  1  0  0  0
  7 11  1  0  0  0
  9 12  1  0  0  0
M  END
> <minimizedAffinity>
-5.00921

> <CNNscore>
0.4003419876

> <CNNaffinity>
3.6220409870

> <CNN_VS>
1.4500551224

> <CNNaffinity_variance>
0.1469691694

$$$$
[H]OC([H])([H])[C@@]1([H])O[C@]([H])(C([H])([H])O[H])[C@]([H])(O[H])[C@@]([H])(O[H])[C@]1([H])O[H]


 18 18  0  0  0  0  0  0  0  0999 V2000
   11.1309   20.3533   -0.1485 C   0  0  0  0  0  0  0  0  0  0  0  0
   11.8082   21.3078   -0.8461 O   0  0  0  0  0  0  0  0  0  0  0  0
   13.0834   21.5667   -0.4392 C   0  0  0  0  0  0  0  0  0  0  0  0
   13.3731   20.9309    0.9175 C   0  0  0  0  0  0  0  0  0  0  0  0
   14.5878   21.3239    1.4233 O   0  0  0  0  0  0  0  0  0  0  0  0
   12.2056   21.4023    1.7968 C   0  0  0  0  0  0  0  0  0  0  0  0
   12.4742   21.2535    3.1361 O   0  0  0  0  0  0  0  0  0  0  0  0
   11.0224   20.5919    1.3231 C   0  0  0  0  0  0  0  0  0  0  0  0
    9.8111   21.1481    1.7043 O   0  0  0  0  0  0  0  0  0  0  0  0
   15.2066   20.5374    1.4540 H   0  0  0  0  0  0  0  0  0  0  0  0
   12.0958   22.0635    3.6043 H   0  0  0  0  0  0  0  0  0  0  0  0
    9.6189   20.8842    2.6382 H   0  0  0  0  0  0  0  0  0  0  0  0
    9.3145   21.6290   -1.0670 O   0  0  0  0  0  0  0  0  0  0  0  0
    9.7014   20.3227   -0.7026 C   0  0  0  0  0  0  0  0  0  0  0  0
    9.5646   21.8225   -2.0197 H   0  0  0  0  0  0  0  0  0  0  0  0
   14.1470   21.2361   -1.4449 C   0  0  0  0  0  0  0  0  0  0  0  0
   14.2933   22.1836   -2.4260 O   0  0  0  0  0  0  0  0  0  0  0  0
   15.0309   22.8134   -2.2147 H   0  0  0  0  0  0  0  0  0  0  0  0
 13 14  1  0  0  0
 14  1  1  0  0  0
  1  2  1  0  0  0
  2  3  1  0  0  0
  3 16  1  0  0  0
 16 17  1  0  0  0
  3  4  1  0  0  0
  4  5  1  0  0  0
  4  6  1  0  0  0
  6  7  1  0  0  0
  6  8  1  0  0  0
  8  9  1  0  0  0
  8  1  1  0  0  0
 13 15  1  0  0  0
 17 18  1  0  0  0
  5 10  1  0  0  0
  7 11  1  0  0  0
  9 12  1  0  0  0
M  END
> <minimizedAffinity>
-5.42572

> <CNNscore>
0.3851806521

> <CNNaffinity>
3.5727965832

> <CNN_VS>
1.3761720657

> <CNNaffinity_variance>
0.2646578848

$$$$
[H]OC([H])([H])[C@@]1([H])O[C@]([H])(C([H])([H])O[H])[C@]([H])(O[H])[C@@]([H])(O[H])[C@]1([H])O[H]


 18 18  0  0  0  0  0  0  0  0999 V2000
   14.9082   26.2355   -5.0595 C   0  0  0  0  0  0  0  0  0  0  0  0
   15.4664   24.9926   -5.0561 O   0  0  0  0  0  0  0  0  0  0  0  0
   15.8391   24.4981   -3.8415 C   0  0  0  0  0  0  0  0  0  0  0  0
   15.8210   25.5848   -2.7703 C   0  0  0  0  0  0  0  0  0  0  0  0
   16.3582   25.1497   -1.5838 O   0  0  0  0  0  0  0  0  0  0  0  0
   16.6461   26.7215   -3.3912 C   0  0  0  0  0  0  0  0  0  0  0  0
   17.0636   27.6312   -2.4500 O   0  0  0  0  0  0  0  0  0  0  0  0
   15.7423   27.3138   -4.4465 C   0  0  0  0  0  0  0  0  0  0  0  0
   16.4375   28.0703   -5.3772 O   0  0  0  0  0  0  0  0  0  0  0  0
   15.6410   25.1135   -0.8862 H   0  0  0  0  0  0  0  0  0  0  0  0
   18.0045   27.9000   -2.6970 H   0  0  0  0  0  0  0  0  0  0  0  0
   16.5929   28.9728   -5.0025 H   0  0  0  0  0  0  0  0  0  0  0  0
   15.6690   26.0053   -7.3264 O   0  0  0  0  0  0  0  0  0  0  0  0
   14.6853   26.6229   -6.5264 C   0  0  0  0  0  0  0  0  0  0  0  0
   15.3636   25.0991   -7.6314 H   0  0  0  0  0  0  0  0  0  0  0  0
   15.0915   23.2735   -3.4015 C   0  0  0  0  0  0  0  0  0  0  0  0
   14.0285   23.5416   -2.5771 O   0  0  0  0  0  0  0  0  0  0  0  0
   13.1767   23.5820   -3.0852 H   0  0  0  0  0  0  0  0  0  0  0  0
 13 14  1  0  0  0
 14  1  1  0  0  0
  1  2  1  0  0  0
  2  3  1  0  0  0
  3 16  1  0  0  0
 16 17  1  0  0  0
  3  4  1  0  0  0
  4  5  1  0  0  0
  4  6  1  0  0  0
  6  7  1  0  0  0
  6  8  1  0  0  0
  8  9  1  0  0  0
  8  1  1  0  0  0
 13 15  1  0  0  0
 17 18  1  0  0  0
  5 10  1  0  0  0
  7 11  1  0  0  0
  9 12  1  0  0  0
M  END
> <minimizedAffinity>
-5.33968

> <CNNscore>
0.3604500592

> <CNNaffinity>
3.3986885548

> <CNN_VS>
1.2250574827

> <CNNaffinity_variance>
0.3477999568

$$$$
[H]OC([H])([H])[C@@]1([H])O[C@]([H])(C([H])([H])O[H])[C@]([H])(O[H])[C@@]([H])(O[H])[C@]1([H])O[H]


 18 18  0  0  0  0  0  0  0  0999 V2000
   12.3800   23.5084   -1.4920 C   0  0  0  0  0  0  0  0  0  0  0  0
   12.3465   24.8028   -1.9159 O   0  0  0  0  0  0  0  0  0  0  0  0
   13.5470   25.3734   -2.2193 C   0  0  0  0  0  0  0  0  0  0  0  0
   14.7093   24.5168   -1.7254 C   0  0  0  0  0  0  0  0  0  0  0  0
   15.9172   25.1549   -1.8651 O   0  0  0  0  0  0  0  0  0  0  0  0
   14.3666   24.2533   -0.2518 C   0  0  0  0  0  0  0  0  0  0  0  0
   15.4582   23.8252    0.4644 O   0  0  0  0  0  0  0  0  0  0  0  0
   13.2405   23.2477   -0.2980 C   0  0  0  0  0  0  0  0  0  0  0  0
   12.5312   23.1899    0.8917 O   0  0  0  0  0  0  0  0  0  0  0  0
   16.4720   24.6737   -2.5456 H   0  0  0  0  0  0  0  0  0  0  0  0
   15.4083   24.2675    1.3702 H   0  0  0  0  0  0  0  0  0  0  0  0
   13.0220   22.6124    1.5278 H   0  0  0  0  0  0  0  0  0  0  0  0
   10.4866   22.1051   -1.9570 O   0  0  0  0  0  0  0  0  0  0  0  0
   10.9469   23.1273   -1.1013 C   0  0  0  0  0  0  0  0  0  0  0  0
   10.7135   21.2003   -1.5863 H   0  0  0  0  0  0  0  0  0  0  0  0
   13.7165   25.7609   -3.6592 C   0  0  0  0  0  0  0  0  0  0  0  0
   13.0217   26.8895   -4.0129 O   0  0  0  0  0  0  0  0  0  0  0  0
   13.5995   27.6960   -3.9805 H   0  0  0  0  0  0  0  0  0  0  0  0
 13 14  1  0  0  0
 14  1  1  0  0  0
  1  2  1  0  0  0
  2  3  1  0  0  0
  3 16  1  0  0  0
 16 17  1  0  0  0
  3  4  1  0  0  0
  4  5  1  0  0  0
  4  6  1  0  0  0
  6  7  1  0  0  0
  6  8  1  0  0  0
  8  9  1  0  0  0
  8  1  1  0  0  0
 13 15  1  0  0  0
 17 18  1  0  0  0
  5 10  1  0  0  0
  7 11  1  0  0  0
  9 12  1  0  0  0
M  END
> <minimizedAffinity>
-4.93480

> <CNNscore>
0.3594752252

> <CNNaffinity>
3.5896258354

> <CNN_VS>
1.2903815508

> <CNNaffinity_variance>
0.2342491597

$$$$
[H]OC([H])([H])[C@@]1([H])O[C@]([H])(C([H])([H])O[H])[C@]([H])(O[H])[C@@]([H])(O[H])[C@]1([H])O[H]


 18 18  0  0  0  0  0  0  0  0999 V2000
   13.5848   23.7129   -1.8854 C   0  0  0  0  0  0  0  0  0  0  0  0
   14.6220   23.3960   -1.0608 O   0  0  0  0  0  0  0  0  0  0  0  0
   14.3037   22.7346    0.0881 C   0  0  0  0  0  0  0  0  0  0  0  0
   12.7993   22.7580    0.3436 C   0  0  0  0  0  0  0  0  0  0  0  0
   12.4771   22.2514    1.5786 O   0  0  0  0  0  0  0  0  0  0  0  0
   12.4323   24.2440    0.2192 C   0  0  0  0  0  0  0  0  0  0  0  0
   11.2095   24.5232    0.7800 O   0  0  0  0  0  0  0  0  0  0  0  0
   12.4978   24.5284   -1.2628 C   0  0  0  0  0  0  0  0  0  0  0  0
   12.5964   25.8831   -1.5396 O   0  0  0  0  0  0  0  0  0  0  0  0
   11.9655   21.3982    1.4661 H   0  0  0  0  0  0  0  0  0  0  0  0
   11.2953   25.4146    1.2453 H   0  0  0  0  0  0  0  0  0  0  0  0
   11.6921   26.2829   -1.5019 H   0  0  0  0  0  0  0  0  0  0  0  0
   15.2698   25.2843   -2.5650 O   0  0  0  0  0  0  0  0  0  0  0  0
   14.1645   24.5454   -3.0354 C   0  0  0  0  0  0  0  0  0  0  0  0
   16.1186   24.7573   -2.6617 H   0  0  0  0  0  0  0  0  0  0  0  0
   14.8624   21.3457    0.1932 C   0  0  0  0  0  0  0  0  0  0  0  0
   14.8713   20.8492    1.4719 O   0  0  0  0  0  0  0  0  0  0  0  0
   14.0764   20.2807    1.6457 H   0  0  0  0  0  0  0  0  0  0  0  0
 13 14  1  0  0  0
 14  1  1  0  0  0
  1  2  1  0  0  0
  2  3  1  0  0  0
  3 16  1  0  0  0
 16 17  1  0  0  0
  3  4  1  0  0  0
  4  5  1  0  0  0
  4  6  1  0  0  0
  6  7  1  0  0  0
  6  8  1  0  0  0
  8  9  1  0  0  0
  8  1  1  0  0  0
 13 15  1  0  0  0
 17 18  1  0  0  0
  5 10  1  0  0  0
  7 11  1  0  0  0
  9 12  1  0  0  0
M  END
> <minimizedAffinity>
-4.84780

> <CNNscore>
0.3369777501

> <CNNaffinity>
3.5230758190

> <CNN_VS>
1.1871981621

> <CNNaffinity_variance>
0.2806337476

$$$$
[H]OC([H])([H])[C@@]1([H])O[C@]([H])(C([H])([H])O[H])[C@]([H])(O[H])[C@@]([H])(O[H])[C@]1([H])O[H]


 18 18  0  0  0  0  0  0  0  0999 V2000
   15.6346   24.6128   -3.9198 C   0  0  0  0  0  0  0  0  0  0  0  0
   14.5747   25.2758   -4.4614 O   0  0  0  0  0  0  0  0  0  0  0  0
   14.8401   26.4909   -5.0199 C   0  0  0  0  0  0  0  0  0  0  0  0
   16.2357   26.9813   -4.6450 C   0  0  0  0  0  0  0  0  0  0  0  0
   16.4553   28.2745   -5.0512 O   0  0  0  0  0  0  0  0  0  0  0  0
   16.2701   26.8464   -3.1156 C   0  0  0  0  0  0  0  0  0  0  0  0
   17.2866   27.5810   -2.5545 O   0  0  0  0  0  0  0  0  0  0  0  0
   16.3885   25.3611   -2.8682 C   0  0  0  0  0  0  0  0  0  0  0  0
   16.0313   25.0080   -1.5761 O   0  0  0  0  0  0  0  0  0  0  0  0
   17.1592   28.2857   -5.7631 H   0  0  0  0  0  0  0  0  0  0  0  0
   16.9240   27.9837   -1.7032 H   0  0  0  0  0  0  0  0  0  0  0  0
   16.8016   25.1702   -0.9767 H   0  0  0  0  0  0  0  0  0  0  0  0
   13.8499   23.6472   -2.6340 O   0  0  0  0  0  0  0  0  0  0  0  0
   15.0797   23.3468   -3.2557 C   0  0  0  0  0  0  0  0  0  0  0  0
   13.0863   23.5173   -3.2723 H   0  0  0  0  0  0  0  0  0  0  0  0
   14.6030   26.5716   -6.4995 C   0  0  0  0  0  0  0  0  0  0  0  0
   15.7359   26.3902   -7.2512 O   0  0  0  0  0  0  0  0  0  0  0  0
   15.8187   25.4509   -7.5616 H   0  0  0  0  0  0  0  0  0  0  0  0
 13 14  1  0  0  0
 14  1  1  0  0  0
  1  2  1  0  0  0
  2  3  1  0  0  0
  3 16  1  0  0  0
 16 17  1  0  0  0
  3  4  1  0  0  0
  4  5  1  0  0  0
  4  6  1  0  0  0
  6  7  1  0  0  0
  6  8  1  0  0  0
  8  9  1  0  0  0
  8  1  1  0  0  0
 13 15  1  0  0  0
 17 18  1  0  0  0
  5 10  1  0  0  0
  7 11  1  0  0  0
  9 12  1  0  0  0
M  END
> <minimizedAffinity>
-5.30894

> <CNNscore>
0.3270263374

> <CNNaffinity>
3.4586024284

> <CNN_VS>
1.1310540438

> <CNNaffinity_variance>
0.3644031882

$$$$
[H]OC([H])([H])[C@@]1([H])O[C@]([H])(C([H])([H])O[H])[C@]([H])(O[H])[C@@]([H])(O[H])[C@]1([H])O[H]


 18 18  0  0  0  0  0  0  0  0999 V2000
   14.6940   22.6977   -0.2702 C   0  0  0  0  0  0  0  0  0  0  0  0
   14.4463   22.3663   -1.5683 O   0  0  0  0  0  0  0  0  0  0  0  0
   14.1732   23.3981   -2.4166 C   0  0  0  0  0  0  0  0  0  0  0  0
   13.9083   24.6912   -1.6507 C   0  0  0  0  0  0  0  0  0  0  0  0
   13.4619   25.6964   -2.4729 O   0  0  0  0  0  0  0  0  0  0  0  0
   12.8520   24.2884   -0.6112 C   0  0  0  0  0  0  0  0  0  0  0  0
   12.2091   25.3793   -0.0780 O   0  0  0  0  0  0  0  0  0  0  0  0
   13.6141   23.4764    0.4092 C   0  0  0  0  0  0  0  0  0  0  0  0
   12.7814   22.6953    1.1954 O   0  0  0  0  0  0  0  0  0  0  0  0
   14.1508   26.4215   -2.5176 H   0  0  0  0  0  0  0  0  0  0  0  0
   11.2373   25.1273    0.0253 H   0  0  0  0  0  0  0  0  0  0  0  0
   12.4079   23.2564    1.9197 H   0  0  0  0  0  0  0  0  0  0  0  0
   15.7488   21.5810    1.5767 O   0  0  0  0  0  0  0  0  0  0  0  0
   14.8529   21.3844    0.5054 C   0  0  0  0  0  0  0  0  0  0  0  0
   15.2600   21.8827    2.3998 H   0  0  0  0  0  0  0  0  0  0  0  0
   15.1790   23.5987   -3.5120 C   0  0  0  0  0  0  0  0  0  0  0  0
   16.1444   24.5260   -3.2125 O   0  0  0  0  0  0  0  0  0  0  0  0
   16.9683   24.0932   -2.8672 H   0  0  0  0  0  0  0  0  0  0  0  0
 13 14  1  0  0  0
 14  1  1  0  0  0
  1  2  1  0  0  0
  2  3  1  0  0  0
  3 16  1  0  0  0
 16 17  1  0  0  0
  3  4  1  0  0  0
  4  5  1  0  0  0
  4  6  1  0  0  0
  6  7  1  0  0  0
  6  8  1  0  0  0
  8  9  1  0  0  0
  8  1  1  0  0  0
 13 15  1  0  0  0
 17 18  1  0  0  0
  5 10  1  0  0  0
  7 11  1  0  0  0
  9 12  1  0  0  0
M  END
> <minimizedAffinity>
-5.28782

> <CNNscore>
0.3192656636

> <CNNaffinity>
3.6008124352

> <CNN_VS>
1.1496157646

> <CNNaffinity_variance>
0.3188108504

$$$$
[H]OC([H])([H])[C@@]1([H])O[C@]([H])(C([H])([H])O[H])[C@]([H])(O[H])[C@@]([H])(O[H])[C@]1([H])O[H]


 18 18  0  0  0  0  0  0  0  0999 V2000
   13.1461   24.2573   -1.4074 C   0  0  0  0  0  0  0  0  0  0  0  0
   13.7342   24.8324   -0.3212 O   0  0  0  0  0  0  0  0  0  0  0  0
   14.5690   24.0389    0.4083 C   0  0  0  0  0  0  0  0  0  0  0  0
   14.4272   22.5720    0.0123 C   0  0  0  0  0  0  0  0  0  0  0  0
   15.1277   21.7405    0.8511 O   0  0  0  0  0  0  0  0  0  0  0  0
   12.9141   22.3198    0.0865 C   0  0  0  0  0  0  0  0  0  0  0  0
   12.6151   20.9796    0.1346 O   0  0  0  0  0  0  0  0  0  0  0  0
   12.3523   23.0222   -1.1269 C   0  0  0  0  0  0  0  0  0  0  0  0
   10.9895   23.2535   -1.0229 O   0  0  0  0  0  0  0  0  0  0  0  0
   15.8789   21.3128    0.3459 H   0  0  0  0  0  0  0  0  0  0  0  0
   11.8484   20.8718    0.7819 H   0  0  0  0  0  0  0  0  0  0  0  0
   10.5058   22.4283   -1.2756 H   0  0  0  0  0  0  0  0  0  0  0  0
   12.8558   26.0972   -2.9244 O   0  0  0  0  0  0  0  0  0  0  0  0
   12.1739   25.2901   -1.9903 C   0  0  0  0  0  0  0  0  0  0  0  0
   12.8108   25.6954   -3.8431 H   0  0  0  0  0  0  0  0  0  0  0  0
   16.0052   24.4740    0.4189 C   0  0  0  0  0  0  0  0  0  0  0  0
   16.4104   25.0701   -0.7482 O   0  0  0  0  0  0  0  0  0  0  0  0
   16.3634   26.0596   -0.6853 H   0  0  0  0  0  0  0  0  0  0  0  0
 13 14  1  0  0  0
 14  1  1  0  0  0
  1  2  1  0  0  0
  2  3  1  0  0  0
  3 16  1  0  0  0
 16 17  1  0  0  0
  3  4  1  0  0  0
  4  5  1  0  0  0
  4  6  1  0  0  0
  6  7  1  0  0  0
  6  8  1  0  0  0
  8  9  1  0  0  0
  8  1  1  0  0  0
 13 15  1  0  0  0
 17 18  1  0  0  0
  5 10  1  0  0  0
  7 11  1  0  0  0
  9 12  1  0  0  0
M  END
> <minimizedAffinity>
-4.62834

> <CNNscore>
0.3170086443

> <CNNaffinity>
3.4558048248

> <CNN_VS>
1.0955200195

> <CNNaffinity_variance>
0.2695909739

$$$$
[H]c1nc([H])c(-n2c([H])c(C(=O)OC3([H])C([H])([H])C4([H])N([H])C([H])(C([H])([H])OC4([H])[H])C3([H])[H])c3c([H])c([H])c([H])nc32)c([H])c1[H]


 28 32  0  0  0  0  0  0  0  0999 V2000
   13.7026   25.3037   -2.9465 C   0  0  0  0  0  0  0  0  0  0  0  0
   12.7861   26.3506   -2.7786 C   0  0  0  0  0  0  0  0  0  0  0  0
   12.8345   27.1846   -3.8231 N   0  0  0  0  0  0  0  0  0  0  0  0
   13.7627   26.7175   -4.6835 C   0  0  0  0  0  0  0  0  0  0  0  0
   14.2071   27.1670   -5.8792 N   0  0  0  0  0  0  0  0  0  0  0  0
   15.1559   26.5490   -6.5951 C   0  0  0  0  0  0  0  0  0  0  0  0
   15.7044   25.3964   -6.0831 C   0  0  0  0  0  0  0  0  0  0  0  0
   15.2825   24.8951   -4.8609 C   0  0  0  0  0  0  0  0  0  0  0  0
   14.3139   25.5491   -4.1570 C   0  0  0  0  0  0  0  0  0  0  0  0
   12.0503   28.3560   -4.0006 C   0  0  0  0  0  0  0  0  0  0  0  0
   10.8507   28.2631   -4.6737 C   0  0  0  0  0  0  0  0  0  0  0  0
   10.0893   29.3862   -4.8491 C   0  0  0  0  0  0  0  0  0  0  0  0
   10.5092   30.5928   -4.3633 C   0  0  0  0  0  0  0  0  0  0  0  0
   11.6739   30.6779   -3.7110 N   0  0  0  0  0  0  0  0  0  0  0  0
   12.4380   29.5907   -3.5264 C   0  0  0  0  0  0  0  0  0  0  0  0
   14.9408   24.1665   -1.2708 O   0  0  0  0  0  0  0  0  0  0  0  0
   13.9245   24.2074   -2.0058 C   0  0  0  0  0  0  0  0  0  0  0  0
   13.0125   23.2006   -1.9167 O   0  0  0  0  0  0  0  0  0  0  0  0
   12.0927   23.0113   -0.8776 C   0  0  0  0  0  0  0  0  0  0  0  0
   10.7957   23.7536   -1.0931 C   0  0  0  0  0  0  0  0  0  0  0  0
    9.9150   23.5315    0.1143 C   0  0  0  0  0  0  0  0  0  0  0  0
   10.5199   24.0307    1.3839 C   0  0  0  0  0  0  0  0  0  0  0  0
   10.7427   23.0394    2.3164 O   0  0  0  0  0  0  0  0  0  0  0  0
   11.4030   21.9372    1.8231 C   0  0  0  0  0  0  0  0  0  0  0  0
   10.8526   21.4166    0.5303 C   0  0  0  0  0  0  0  0  0  0  0  0
   11.8640   21.5390   -0.5746 C   0  0  0  0  0  0  0  0  0  0  0  0
    9.6140   22.1024    0.2483 N   0  0  0  0  0  0  0  0  0  0  0  0
    8.9957   21.9777    1.0671 H   0  0  0  0  0  0  0  0  0  0  0  0
 16 17  2  0  0  0
 17 18  1  0  0  0
 18 19  1  0  0  0
 19 20  1  0  0  0
 20 21  1  0  0  0
 21 22  1  0  0  0
 22 23  1  0  0  0
 23 24  1  0  0  0
 24 25  1  0  0  0
 25 26  1  0  0  0
 25 27  1  0  0  0
 17  1  1  0  0  0
  1  2  2  0  0  0
  2  3  1  0  0  0
  3 10  1  0  0  0
 10 11  2  0  0  0
 11 12  1  0  0  0
 12 13  2  0  0  0
 13 14  1  0  0  0
 14 15  2  0  0  0
  3  4  1  0  0  0
  4  5  2  0  0  0
  5  6  1  0  0  0
  6  7  2  0  0  0
  7  8  1  0  0  0
  8  9  2  0  0  0
 26 19  1  0  0  0
  9  1  1  0  0  0
 27 21  1  0  0  0
 15 10  1  0  0  0
  9  4  1  0  0  0
 27 28  1  0  0  0
M  END
> <minimizedAffinity>
4.34919

> <CNNscore>
0.6541128755

> <CNNaffinity>
6.8866109848

> <CNN_VS>
4.5046210289

> <CNNaffinity_variance>
0.6343391538

$$$$
[H]c1nc([H])c(-n2c([H])c(C(=O)OC3([H])C([H])([H])C4([H])N([H])C([H])(C([H])([H])OC4([H])[H])C3([H])[H])c3c([H])c([H])c([H])nc32)c([H])c1[H]


 28 32  0  0  0  0  0  0  0  0999 V2000
   12.6882   24.8590   -1.3442 C   0  0  0  0  0  0  0  0  0  0  0  0
   12.8609   25.3822   -2.6327 C   0  0  0  0  0  0  0  0  0  0  0  0
   14.1611   25.5513   -2.8967 N   0  0  0  0  0  0  0  0  0  0  0  0
   14.8592   25.1528   -1.8133 C   0  0  0  0  0  0  0  0  0  0  0  0
   16.1843   25.1109   -1.5459 N   0  0  0  0  0  0  0  0  0  0  0  0
   16.6909   24.6724   -0.3858 C   0  0  0  0  0  0  0  0  0  0  0  0
   15.8131   24.2428    0.5818 C   0  0  0  0  0  0  0  0  0  0  0  0
   14.4451   24.2661    0.3558 C   0  0  0  0  0  0  0  0  0  0  0  0
   13.9620   24.7189   -0.8371 C   0  0  0  0  0  0  0  0  0  0  0  0
   14.7150   26.0600   -4.1022 C   0  0  0  0  0  0  0  0  0  0  0  0
   14.9808   25.1886   -5.1370 C   0  0  0  0  0  0  0  0  0  0  0  0
   15.5142   25.6700   -6.3014 C   0  0  0  0  0  0  0  0  0  0  0  0
   15.7833   27.0025   -6.4433 C   0  0  0  0  0  0  0  0  0  0  0  0
   15.5237   27.8440   -5.4365 N   0  0  0  0  0  0  0  0  0  0  0  0
   15.0007   27.3958   -4.2851 C   0  0  0  0  0  0  0  0  0  0  0  0
   10.4582   24.0461   -1.3713 O   0  0  0  0  0  0  0  0  0  0  0  0
   11.4056   24.5457   -0.7174 C   0  0  0  0  0  0  0  0  0  0  0  0
   11.2234   24.7983    0.6079 O   0  0  0  0  0  0  0  0  0  0  0  0
   10.4063   24.0691    1.4811 C   0  0  0  0  0  0  0  0  0  0  0  0
   11.0579   22.8022    1.9815 C   0  0  0  0  0  0  0  0  0  0  0  0
   10.0651   22.0703    2.8541 C   0  0  0  0  0  0  0  0  0  0  0  0
    8.8174   21.6858    2.1313 C   0  0  0  0  0  0  0  0  0  0  0  0
    7.6792   22.2711    2.6450 O   0  0  0  0  0  0  0  0  0  0  0  0
    7.7765   23.6316    2.8285 C   0  0  0  0  0  0  0  0  0  0  0  0
    9.0295   24.0717    3.5225 C   0  0  0  0  0  0  0  0  0  0  0  0
    9.8746   24.9254    2.6194 C   0  0  0  0  0  0  0  0  0  0  0  0
    9.7196   22.9018    4.0117 N   0  0  0  0  0  0  0  0  0  0  0  0
    9.0564   22.3736    4.6027 H   0  0  0  0  0  0  0  0  0  0  0  0
 16 17  2  0  0  0
 17 18  1  0  0  0
 18 19  1  0  0  0
 19 20  1  0  0  0
 20 21  1  0  0  0
 21 22  1  0  0  0
 22 23  1  0  0  0
 23 24  1  0  0  0
 24 25  1  0  0  0
 25 26  1  0  0  0
 25 27  1  0  0  0
 17  1  1  0  0  0
  1  2  2  0  0  0
  2  3  1  0  0  0
  3 10  1  0  0  0
 10 11  2  0  0  0
 11 12  1  0  0  0
 12 13  2  0  0  0
 13 14  1  0  0  0
 14 15  2  0  0  0
  3  4  1  0  0  0
  4  5  2  0  0  0
  5  6  1  0  0  0
  6  7  2  0  0  0
  7  8  1  0  0  0
  8  9  2  0  0  0
 26 19  1  0  0  0
  9  1  1  0  0  0
 27 21  1  0  0  0
 15 10  1  0  0  0
  9  4  1  0  0  0
 27 28  1  0  0  0
M  END
> <minimizedAffinity>
-8.48986

> <CNNscore>
0.5160571337

> <CNNaffinity>
6.6556806564

> <CNN_VS>
3.4347114563

> <CNNaffinity_variance>
0.0503347702

$$$$
[H]c1nc([H])c(-n2c([H])c(C(=O)OC3([H])C([H])([H])C4([H])N([H])C([H])(C([H])([H])OC4([H])[H])C3([H])[H])c3c([H])c([H])c([H])nc32)c([H])c1[H]


 28 32  0  0  0  0  0  0  0  0999 V2000
   12.4038   24.9375    0.1386 C   0  0  0  0  0  0  0  0  0  0  0  0
   13.6732   24.6152    0.6373 C   0  0  0  0  0  0  0  0  0  0  0  0
   14.6056   24.8068   -0.3023 N   0  0  0  0  0  0  0  0  0  0  0  0
   13.9865   25.2494   -1.4162 C   0  0  0  0  0  0  0  0  0  0  0  0
   14.4465   25.5935   -2.6406 N   0  0  0  0  0  0  0  0  0  0  0  0
   13.6558   26.0184   -3.6349 C   0  0  0  0  0  0  0  0  0  0  0  0
   12.3048   26.1081   -3.3932 C   0  0  0  0  0  0  0  0  0  0  0  0
   11.7842   25.7668   -2.1541 C   0  0  0  0  0  0  0  0  0  0  0  0
   12.6175   25.3376   -1.1628 C   0  0  0  0  0  0  0  0  0  0  0  0
   16.0017   24.5852   -0.1588 C   0  0  0  0  0  0  0  0  0  0  0  0
   16.4756   24.0371    1.0142 C   0  0  0  0  0  0  0  0  0  0  0  0
   17.8185   23.8204    1.1608 C   0  0  0  0  0  0  0  0  0  0  0  0
   18.6877   24.1424    0.1562 C   0  0  0  0  0  0  0  0  0  0  0  0
   18.2231   24.6739   -0.9800 N   0  0  0  0  0  0  0  0  0  0  0  0
   16.9105   24.8958   -1.1472 C   0  0  0  0  0  0  0  0  0  0  0  0
   10.7374   25.8001    1.5924 O   0  0  0  0  0  0  0  0  0  0  0  0
   11.1492   24.8502    0.8832 C   0  0  0  0  0  0  0  0  0  0  0  0
   10.4011   23.7149    0.8129 O   0  0  0  0  0  0  0  0  0  0  0  0
   10.8855   22.4221    0.5764 C   0  0  0  0  0  0  0  0  0  0  0  0
   10.9325   21.5710    1.8227 C   0  0  0  0  0  0  0  0  0  0  0  0
   11.5308   20.2317    1.4609 C   0  0  0  0  0  0  0  0  0  0  0  0
   12.9203   20.3330    0.9260 C   0  0  0  0  0  0  0  0  0  0  0  0
   13.0468   19.8814   -0.3709 O   0  0  0  0  0  0  0  0  0  0  0  0
   12.1145   20.3963   -1.2425 C   0  0  0  0  0  0  0  0  0  0  0  0
   10.7049   20.3470   -0.7366 C   0  0  0  0  0  0  0  0  0  0  0  0
   10.1471   21.7312   -0.5589 C   0  0  0  0  0  0  0  0  0  0  0  0
   10.6778   19.5613    0.4742 N   0  0  0  0  0  0  0  0  0  0  0  0
   11.0957   18.6412    0.2576 H   0  0  0  0  0  0  0  0  0  0  0  0
 16 17  2  0  0  0
 17 18  1  0  0  0
 18 19  1  0  0  0
 19 20  1  0  0  0
 20 21  1  0  0  0
 21 22  1  0  0  0
 22 23  1  0  0  0
 23 24  1  0  0  0
 24 25  1  0  0  0
 25 26  1  0  0  0
 25 27  1  0  0  0
 17  1  1  0  0  0
  1  2  2  0  0  0
  2  3  1  0  0  0
  3 10  1  0  0  0
 10 11  2  0  0  0
 11 12  1  0  0  0
 12 13  2  0  0  0
 13 14  1  0  0  0
 14 15  2  0  0  0
  3  4  1  0  0  0
  4  5  2  0  0  0
  5  6  1  0  0  0
  6  7  2  0  0  0
  7  8  1  0  0  0
  8  9  2  0  0  0
 26 19  1  0  0  0
  9  1  1  0  0  0
 27 21  1  0  0  0
 15 10  1  0  0  0
  9  4  1  0  0  0
 27 28  1  0  0  0
M  END
> <minimizedAffinity>
0.96440

> <CNNscore>
0.4699337184

> <CNNaffinity>
6.7087378502

> <CNN_VS>
3.1526620388

> <CNNaffinity_variance>
0.9718200564

$$$$
[H]c1nc([H])c(-n2c([H])c(C(=O)OC3([H])C([H])([H])C4([H])N([H])C([H])(C([H])([H])OC4([H])[H])C3([H])[H])c3c([H])c([H])c([H])nc32)c([H])c1[H]


 28 32  0  0  0  0  0  0  0  0999 V2000
   12.7291   24.8929   -1.4289 C   0  0  0  0  0  0  0  0  0  0  0  0
   12.9042   25.4173   -2.7166 C   0  0  0  0  0  0  0  0  0  0  0  0
   14.2047   25.5907   -2.9764 N   0  0  0  0  0  0  0  0  0  0  0  0
   14.9006   25.1938   -1.8909 C   0  0  0  0  0  0  0  0  0  0  0  0
   16.2250   25.1560   -1.6194 N   0  0  0  0  0  0  0  0  0  0  0  0
   16.7293   24.7186   -0.4579 C   0  0  0  0  0  0  0  0  0  0  0  0
   15.8498   24.2858    0.5067 C   0  0  0  0  0  0  0  0  0  0  0  0
   14.4824   24.3048    0.2764 C   0  0  0  0  0  0  0  0  0  0  0  0
   14.0017   24.7566   -0.9178 C   0  0  0  0  0  0  0  0  0  0  0  0
   14.7608   26.1017   -4.1799 C   0  0  0  0  0  0  0  0  0  0  0  0
   14.9869   25.2398   -5.2320 C   0  0  0  0  0  0  0  0  0  0  0  0
   15.5220   25.7234   -6.3945 C   0  0  0  0  0  0  0  0  0  0  0  0
   15.8319   27.0490   -6.5178 C   0  0  0  0  0  0  0  0  0  0  0  0
   15.6108   27.8813   -5.4942 N   0  0  0  0  0  0  0  0  0  0  0  0
   15.0869   27.4307   -4.3442 C   0  0  0  0  0  0  0  0  0  0  0  0
   10.4488   24.2362   -1.4893 O   0  0  0  0  0  0  0  0  0  0  0  0
   11.4455   24.5753   -0.8063 C   0  0  0  0  0  0  0  0  0  0  0  0
   11.3169   24.6459    0.5472 O   0  0  0  0  0  0  0  0  0  0  0  0
   10.9008   23.6082    1.3907 C   0  0  0  0  0  0  0  0  0  0  0  0
    9.4042   23.5701    1.5876 C   0  0  0  0  0  0  0  0  0  0  0  0
    9.0815   22.4615    2.5622 C   0  0  0  0  0  0  0  0  0  0  0  0
    9.7123   22.6528    3.9011 C   0  0  0  0  0  0  0  0  0  0  0  0
   10.6015   21.6547    4.2401 O   0  0  0  0  0  0  0  0  0  0  0  0
   11.5283   21.3677    3.2640 C   0  0  0  0  0  0  0  0  0  0  0  0
   10.9473   21.1981    1.8933 C   0  0  0  0  0  0  0  0  0  0  0  0
   11.4539   22.2597    0.9578 C   0  0  0  0  0  0  0  0  0  0  0  0
    9.5081   21.1745    2.0034 N   0  0  0  0  0  0  0  0  0  0  0  0
    9.2596   20.4312    2.6772 H   0  0  0  0  0  0  0  0  0  0  0  0
 16 17  2  0  0  0
 17 18  1  0  0  0
 18 19  1  0  0  0
 19 20  1  0  0  0
 20 21  1  0  0  0
 21 22  1  0  0  0
 22 23  1  0  0  0
 23 24  1  0  0  0
 24 25  1  0  0  0
 25 26  1  0  0  0
 25 27  1  0  0  0
 17  1  1  0  0  0
  1  2  2  0  0  0
  2  3  1  0  0  0
  3 10  1  0  0  0
 10 11  2  0  0  0
 11 12  1  0  0  0
 12 13  2  0  0  0
 13 14  1  0  0  0
 14 15  2  0  0  0
  3  4  1  0  0  0
  4  5  2  0  0  0
  5  6  1  0  0  0
  6  7  2  0  0  0
  7  8  1  0  0  0
  8  9  2  0  0  0
 26 19  1  0  0  0
  9  1  1  0  0  0
 27 21  1  0  0  0
 15 10  1  0  0  0
  9  4  1  0  0  0
 27 28  1  0  0  0
M  END
> <minimizedAffinity>
-8.60965

> <CNNscore>
0.4455241859

> <CNNaffinity>
6.7437033653

> <CNN_VS>
3.0044829845

> <CNNaffinity_variance>
0.0651661009

$$$$
[H]c1nc([H])c(-n2c([H])c(C(=O)OC3([H])C([H])([H])C4([H])N([H])C([H])(C([H])([H])OC4([H])[H])C3([H])[H])c3c([H])c([H])c([H])nc32)c([H])c1[H]


 28 32  0  0  0  0  0  0  0  0999 V2000
   15.7755   26.7894   -3.6989 C   0  0  0  0  0  0  0  0  0  0  0  0
   14.6771   27.5669   -3.3078 C   0  0  0  0  0  0  0  0  0  0  0  0
   13.8355   27.7344   -4.3337 N   0  0  0  0  0  0  0  0  0  0  0  0
   14.3480   27.0861   -5.4001 C   0  0  0  0  0  0  0  0  0  0  0  0
   13.9125   26.9335   -6.6714 N   0  0  0  0  0  0  0  0  0  0  0  0
   14.5786   26.2379   -7.6026 C   0  0  0  0  0  0  0  0  0  0  0  0
   15.7681   25.6492   -7.2420 C   0  0  0  0  0  0  0  0  0  0  0  0
   16.2570   25.7765   -5.9507 C   0  0  0  0  0  0  0  0  0  0  0  0
   15.5537   26.4921   -5.0262 C   0  0  0  0  0  0  0  0  0  0  0  0
   12.6167   28.4643   -4.3108 C   0  0  0  0  0  0  0  0  0  0  0  0
   11.5090   27.9380   -4.9407 C   0  0  0  0  0  0  0  0  0  0  0  0
   10.3314   28.6342   -4.9235 C   0  0  0  0  0  0  0  0  0  0  0  0
   10.2478   29.8419   -4.2888 C   0  0  0  0  0  0  0  0  0  0  0  0
   11.3253   30.3485   -3.6792 N   0  0  0  0  0  0  0  0  0  0  0  0
   12.4911   29.6845   -3.6824 C   0  0  0  0  0  0  0  0  0  0  0  0
   17.9089   27.1307   -2.7158 O   0  0  0  0  0  0  0  0  0  0  0  0
   16.8939   26.4034   -2.8410 C   0  0  0  0  0  0  0  0  0  0  0  0
   16.8438   25.2278   -2.1562 O   0  0  0  0  0  0  0  0  0  0  0  0
   15.7419   24.7336   -1.4467 C   0  0  0  0  0  0  0  0  0  0  0  0
   15.8330   23.2522   -1.1695 C   0  0  0  0  0  0  0  0  0  0  0  0
   14.5676   22.8222   -0.4649 C   0  0  0  0  0  0  0  0  0  0  0  0
   13.3349   23.0595   -1.2718 C   0  0  0  0  0  0  0  0  0  0  0  0
   12.4527   23.9425   -0.6854 O   0  0  0  0  0  0  0  0  0  0  0  0
   13.0288   25.1167   -0.2571 C   0  0  0  0  0  0  0  0  0  0  0  0
   14.2895   24.9327    0.5316 C   0  0  0  0  0  0  0  0  0  0  0  0
   15.4660   25.5346   -0.1841 C   0  0  0  0  0  0  0  0  0  0  0  0
   14.4531   23.5269    0.8161 N   0  0  0  0  0  0  0  0  0  0  0  0
   13.5925   23.2026    1.2877 H   0  0  0  0  0  0  0  0  0  0  0  0
 16 17  2  0  0  0
 17 18  1  0  0  0
 18 19  1  0  0  0
 19 20  1  0  0  0
 20 21  1  0  0  0
 21 22  1  0  0  0
 22 23  1  0  0  0
 23 24  1  0  0  0
 24 25  1  0  0  0
 25 26  1  0  0  0
 25 27  1  0  0  0
 17  1  1  0  0  0
  1  2  2  0  0  0
  2  3  1  0  0  0
  3 10  1  0  0  0
 10 11  2  0  0  0
 11 12  1  0  0  0
 12 13  2  0  0  0
 13 14  1  0  0  0
 14 15  2  0  0  0
  3  4  1  0  0  0
  4  5  2  0  0  0
  5  6  1  0  0  0
  6  7  2  0  0  0
  7  8  1  0  0  0
  8  9  2  0  0  0
 26 19  1  0  0  0
  9  1  1  0  0  0
 27 21  1  0  0  0
 15 10  1  0  0  0
  9  4  1  0  0  0
 27 28  1  0  0  0
M  END
> <minimizedAffinity>
12.62546

> <CNNscore>
0.4325022995

> <CNNaffinity>
6.5721368790

> <CNN_VS>
2.8424642086

> <CNNaffinity_variance>
0.7515261769

$$$$
[H]c1nc([H])c(-n2c([H])c(C(=O)OC3([H])C([H])([H])C4([H])N([H])C([H])(C([H])([H])OC4([H])[H])C3([H])[H])c3c([H])c([H])c([H])nc32)c([H])c1[H]


 28 32  0  0  0  0  0  0  0  0999 V2000
   14.2774   24.5260   -0.7721 C   0  0  0  0  0  0  0  0  0  0  0  0
   14.4958   25.5317   -1.7233 C   0  0  0  0  0  0  0  0  0  0  0  0
   14.7341   24.9936   -2.9243 N   0  0  0  0  0  0  0  0  0  0  0  0
   14.6796   23.6518   -2.7953 C   0  0  0  0  0  0  0  0  0  0  0  0
   14.8426   22.6423   -3.6806 N   0  0  0  0  0  0  0  0  0  0  0  0
   14.7475   21.3474   -3.3510 C   0  0  0  0  0  0  0  0  0  0  0  0
   14.4690   21.0324   -2.0415 C   0  0  0  0  0  0  0  0  0  0  0  0
   14.2932   22.0314   -1.0960 C   0  0  0  0  0  0  0  0  0  0  0  0
   14.3969   23.3408   -1.4651 C   0  0  0  0  0  0  0  0  0  0  0  0
   14.9984   25.7036   -4.1263 C   0  0  0  0  0  0  0  0  0  0  0  0
   15.3859   25.0013   -5.2476 C   0  0  0  0  0  0  0  0  0  0  0  0
   15.6424   25.6771   -6.4092 C   0  0  0  0  0  0  0  0  0  0  0  0
   15.5171   27.0372   -6.4635 C   0  0  0  0  0  0  0  0  0  0  0  0
   15.1409   27.7142   -5.3730 N   0  0  0  0  0  0  0  0  0  0  0  0
   14.8839   27.0737   -4.2224 C   0  0  0  0  0  0  0  0  0  0  0  0
   14.2756   25.8204    1.2176 O   0  0  0  0  0  0  0  0  0  0  0  0
   13.9877   24.7420    0.6441 C   0  0  0  0  0  0  0  0  0  0  0  0
   13.3911   23.7556    1.3682 O   0  0  0  0  0  0  0  0  0  0  0  0
   12.1209   23.2140    1.1334 C   0  0  0  0  0  0  0  0  0  0  0  0
   11.6631   22.2828    2.2303 C   0  0  0  0  0  0  0  0  0  0  0  0
   10.3207   21.7109    1.8381 C   0  0  0  0  0  0  0  0  0  0  0  0
   10.3619   20.9311    0.5664 C   0  0  0  0  0  0  0  0  0  0  0  0
    9.5713   21.4607   -0.4318 O   0  0  0  0  0  0  0  0  0  0  0  0
    9.7527   22.8088   -0.6414 C   0  0  0  0  0  0  0  0  0  0  0  0
    9.7515   23.6326    0.6102 C   0  0  0  0  0  0  0  0  0  0  0  0
   11.0875   24.2862    0.8267 C   0  0  0  0  0  0  0  0  0  0  0  0
    9.3411   22.7950    1.7120 N   0  0  0  0  0  0  0  0  0  0  0  0
    8.4284   22.3786    1.4633 H   0  0  0  0  0  0  0  0  0  0  0  0
 16 17  2  0  0  0
 17 18  1  0  0  0
 18 19  1  0  0  0
 19 20  1  0  0  0
 20 21  1  0  0  0
 21 22  1  0  0  0
 22 23  1  0  0  0
 23 24  1  0  0  0
 24 25  1  0  0  0
 25 26  1  0  0  0
 25 27  1  0  0  0
 17  1  1  0  0  0
  1  2  2  0  0  0
  2  3  1  0  0  0
  3 10  1  0  0  0
 10 11  2  0  0  0
 11 12  1  0  0  0
 12 13  2  0  0  0
 13 14  1  0  0  0
 14 15  2  0  0  0
  3  4  1  0  0  0
  4  5  2  0  0  0
  5  6  1  0  0  0
  6  7  2  0  0  0
  7  8  1  0  0  0
  8  9  2  0  0  0
 26 19  1  0  0  0
  9  1  1  0  0  0
 27 21  1  0  0  0
 15 10  1  0  0  0
  9  4  1  0  0  0
 27 28  1  0  0  0
M  END
> <minimizedAffinity>
-5.90744

> <CNNscore>
0.4314194322

> <CNNaffinity>
7.0140290260

> <CNN_VS>
3.0259883404

> <CNNaffinity_variance>
0.1547567546

$$$$
[H]c1nc([H])c(-n2c([H])c(C(=O)OC3([H])C([H])([H])C4([H])N([H])C([H])(C([H])([H])OC4([H])[H])C3([H])[H])c3c([H])c([H])c([H])nc32)c([H])c1[H]


 28 32  0  0  0  0  0  0  0  0999 V2000
   15.3946   24.2806   -1.0382 C   0  0  0  0  0  0  0  0  0  0  0  0
   15.6443   25.3959   -1.8493 C   0  0  0  0  0  0  0  0  0  0  0  0
   15.5091   25.0731   -3.1401 N   0  0  0  0  0  0  0  0  0  0  0  0
   15.1749   23.7678   -3.2080 C   0  0  0  0  0  0  0  0  0  0  0  0
   14.9225   22.9432   -4.2499 N   0  0  0  0  0  0  0  0  0  0  0  0
   14.6002   21.6506   -4.1086 C   0  0  0  0  0  0  0  0  0  0  0  0
   14.5229   21.1393   -2.8342 C   0  0  0  0  0  0  0  0  0  0  0  0
   14.7727   21.9443   -1.7331 C   0  0  0  0  0  0  0  0  0  0  0  0
   15.0986   23.2570   -1.9121 C   0  0  0  0  0  0  0  0  0  0  0  0
   15.6849   25.9454   -4.2478 C   0  0  0  0  0  0  0  0  0  0  0  0
   15.6107   25.4301   -5.5244 C   0  0  0  0  0  0  0  0  0  0  0  0
   15.7788   26.2631   -6.5967 C   0  0  0  0  0  0  0  0  0  0  0  0
   16.0184   27.5958   -6.4100 C   0  0  0  0  0  0  0  0  0  0  0  0
   16.0895   28.0910   -5.1695 N   0  0  0  0  0  0  0  0  0  0  0  0
   15.9281   27.2942   -4.1022 C   0  0  0  0  0  0  0  0  0  0  0  0
   16.1008   25.1172    1.0680 O   0  0  0  0  0  0  0  0  0  0  0  0
   15.4497   24.2606    0.4222 C   0  0  0  0  0  0  0  0  0  0  0  0
   14.7819   23.2931    1.1088 O   0  0  0  0  0  0  0  0  0  0  0  0
   13.5104   22.7927    0.8011 C   0  0  0  0  0  0  0  0  0  0  0  0
   13.0931   21.6488    1.6939 C   0  0  0  0  0  0  0  0  0  0  0  0
   11.7451   21.1501    1.2280 C   0  0  0  0  0  0  0  0  0  0  0  0
   11.7563   20.6498   -0.1779 C   0  0  0  0  0  0  0  0  0  0  0  0
   10.9323   21.3620   -1.0238 O   0  0  0  0  0  0  0  0  0  0  0  0
   11.0953   22.7268   -0.9554 C   0  0  0  0  0  0  0  0  0  0  0  0
   11.1231   23.2750    0.4389 C   0  0  0  0  0  0  0  0  0  0  0  0
   12.4588   23.8897    0.7500 C   0  0  0  0  0  0  0  0  0  0  0  0
   10.7525   22.2222    1.3545 N   0  0  0  0  0  0  0  0  0  0  0  0
    9.8367   21.8526    1.0496 H   0  0  0  0  0  0  0  0  0  0  0  0
 16 17  2  0  0  0
 17 18  1  0  0  0
 18 19  1  0  0  0
 19 20  1  0  0  0
 20 21  1  0  0  0
 21 22  1  0  0  0
 22 23  1  0  0  0
 23 24  1  0  0  0
 24 25  1  0  0  0
 25 26  1  0  0  0
 25 27  1  0  0  0
 17  1  1  0  0  0
  1  2  2  0  0  0
  2  3  1  0  0  0
  3 10  1  0  0  0
 10 11  2  0  0  0
 11 12  1  0  0  0
 12 13  2  0  0  0
 13 14  1  0  0  0
 14 15  2  0  0  0
  3  4  1  0  0  0
  4  5  2  0  0  0
  5  6  1  0  0  0
  6  7  2  0  0  0
  7  8  1  0  0  0
  8  9  2  0  0  0
 26 19  1  0  0  0
  9  1  1  0  0  0
 27 21  1  0  0  0
 15 10  1  0  0  0
  9  4  1  0  0  0
 27 28  1  0  0  0
M  END
> <minimizedAffinity>
-4.34390

> <CNNscore>
0.4282341003

> <CNNaffinity>
7.1792349815

> <CNN_VS>
3.0743932724

> <CNNaffinity_variance>
0.1444523036

$$$$
[H]c1nc([H])c(-n2c([H])c(C(=O)OC3([H])C([H])([H])C4([H])N([H])C([H])(C([H])([H])OC4([H])[H])C3([H])[H])c3c([H])c([H])c([H])nc32)c([H])c1[H]


 28 32  0  0  0  0  0  0  0  0999 V2000
   14.6303   23.6102   -1.9653 C   0  0  0  0  0  0  0  0  0  0  0  0
   14.2746   23.8740   -3.2949 C   0  0  0  0  0  0  0  0  0  0  0  0
   15.0150   24.8737   -3.7860 N   0  0  0  0  0  0  0  0  0  0  0  0
   15.8563   25.2825   -2.8139 C   0  0  0  0  0  0  0  0  0  0  0  0
   16.8053   26.2453   -2.7733 N   0  0  0  0  0  0  0  0  0  0  0  0
   17.5512   26.5030   -1.6908 C   0  0  0  0  0  0  0  0  0  0  0  0
   17.3373   25.7455   -0.5630 C   0  0  0  0  0  0  0  0  0  0  0  0
   16.3758   24.7463   -0.5544 C   0  0  0  0  0  0  0  0  0  0  0  0
   15.6330   24.5097   -1.6741 C   0  0  0  0  0  0  0  0  0  0  0  0
   14.9344   25.4138   -5.0978 C   0  0  0  0  0  0  0  0  0  0  0  0
   15.4014   24.6677   -6.1589 C   0  0  0  0  0  0  0  0  0  0  0  0
   15.3277   25.1801   -7.4254 C   0  0  0  0  0  0  0  0  0  0  0  0
   14.7965   26.4206   -7.6428 C   0  0  0  0  0  0  0  0  0  0  0  0
   14.3447   27.1407   -6.6100 N   0  0  0  0  0  0  0  0  0  0  0  0
   14.4063   26.6597   -5.3591 C   0  0  0  0  0  0  0  0  0  0  0  0
   14.4481   21.4017   -1.1148 O   0  0  0  0  0  0  0  0  0  0  0  0
   14.0326   22.5857   -1.1114 C   0  0  0  0  0  0  0  0  0  0  0  0
   12.9990   22.9133   -0.2881 O   0  0  0  0  0  0  0  0  0  0  0  0
   11.7572   22.2683   -0.2276 C   0  0  0  0  0  0  0  0  0  0  0  0
   11.2685   22.0573    1.1853 C   0  0  0  0  0  0  0  0  0  0  0  0
    9.9635   21.2981    1.1281 C   0  0  0  0  0  0  0  0  0  0  0  0
   10.0902   19.9574    0.4850 C   0  0  0  0  0  0  0  0  0  0  0  0
    9.3380   19.8224   -0.6629 O   0  0  0  0  0  0  0  0  0  0  0  0
    9.4943   20.8497   -1.5654 C   0  0  0  0  0  0  0  0  0  0  0  0
    9.4075   22.2185   -0.9620 C   0  0  0  0  0  0  0  0  0  0  0  0
   10.7129   22.9509   -1.0967 C   0  0  0  0  0  0  0  0  0  0  0  0
    8.9634   22.0910    0.4057 N   0  0  0  0  0  0  0  0  0  0  0  0
    8.0759   21.5614    0.3967 H   0  0  0  0  0  0  0  0  0  0  0  0
 16 17  2  0  0  0
 17 18  1  0  0  0
 18 19  1  0  0  0
 19 20  1  0  0  0
 20 21  1  0  0  0
 21 22  1  0  0  0
 22 23  1  0  0  0
 23 24  1  0  0  0
 24 25  1  0  0  0
 25 26  1  0  0  0
 25 27  1  0  0  0
 17  1  1  0  0  0
  1  2  2  0  0  0
  2  3  1  0  0  0
  3 10  1  0  0  0
 10 11  2  0  0  0
 11 12  1  0  0  0
 12 13  2  0  0  0
 13 14  1  0  0  0
 14 15  2  0  0  0
  3  4  1  0  0  0
  4  5  2  0  0  0
  5  6  1  0  0  0
  6  7  2  0  0  0
  7  8  1  0  0  0
  8  9  2  0  0  0
 26 19  1  0  0  0
  9  1  1  0  0  0
 27 21  1  0  0  0
 15 10  1  0  0  0
  9  4  1  0  0  0
 27 28  1  0  0  0
M  END
> <minimizedAffinity>
-0.92256

> <CNNscore>
0.4265337586

> <CNNaffinity>
6.9516739845

> <CNN_VS>
2.9651236534

> <CNNaffinity_variance>
1.1213805676

$$$$
[H]c1nc([H])c(-n2c([H])c(C(=O)OC3([H])C([H])([H])C4([H])N([H])C([H])(C([H])([H])OC4([H])[H])C3([H])[H])c3c([H])c([H])c([H])nc32)c([H])c1[H]


 28 32  0  0  0  0  0  0  0  0999 V2000
   13.0136   25.0346   -1.2155 C   0  0  0  0  0  0  0  0  0  0  0  0
   13.0963   25.5104   -2.5311 C   0  0  0  0  0  0  0  0  0  0  0  0
   14.3748   25.6129   -2.9103 N   0  0  0  0  0  0  0  0  0  0  0  0
   15.1463   25.2161   -1.8772 C   0  0  0  0  0  0  0  0  0  0  0  0
   16.4867   25.1227   -1.7222 N   0  0  0  0  0  0  0  0  0  0  0  0
   17.0727   24.6970   -0.5952 C   0  0  0  0  0  0  0  0  0  0  0  0
   16.2644   24.3367    0.4575 C   0  0  0  0  0  0  0  0  0  0  0  0
   14.8842   24.4146    0.3480 C   0  0  0  0  0  0  0  0  0  0  0  0
   14.3194   24.8526   -0.8141 C   0  0  0  0  0  0  0  0  0  0  0  0
   14.8434   26.0596   -4.1750 C   0  0  0  0  0  0  0  0  0  0  0  0
   15.0323   25.1379   -5.1828 C   0  0  0  0  0  0  0  0  0  0  0  0
   15.4833   25.5595   -6.4038 C   0  0  0  0  0  0  0  0  0  0  0  0
   15.7460   26.8819   -6.6284 C   0  0  0  0  0  0  0  0  0  0  0  0
   15.5612   27.7723   -5.6475 N   0  0  0  0  0  0  0  0  0  0  0  0
   15.1198   27.3832   -4.4418 C   0  0  0  0  0  0  0  0  0  0  0  0
   11.5782   25.3156    0.6540 O   0  0  0  0  0  0  0  0  0  0  0  0
   11.7778   24.7983   -0.4718 C   0  0  0  0  0  0  0  0  0  0  0  0
   10.8129   23.9990   -1.0042 O   0  0  0  0  0  0  0  0  0  0  0  0
   10.3635   22.7837   -0.4725 C   0  0  0  0  0  0  0  0  0  0  0  0
   11.4359   22.0361    0.2830 C   0  0  0  0  0  0  0  0  0  0  0  0
   10.8588   20.7197    0.7486 C   0  0  0  0  0  0  0  0  0  0  0  0
   10.4005   19.8484   -0.3729 C   0  0  0  0  0  0  0  0  0  0  0  0
    9.0485   19.5776   -0.3446 O   0  0  0  0  0  0  0  0  0  0  0  0
    8.2523   20.6894   -0.1899 C   0  0  0  0  0  0  0  0  0  0  0  0
    8.6908   21.6140    0.9047 C   0  0  0  0  0  0  0  0  0  0  0  0
    9.0964   22.9510    0.3511 C   0  0  0  0  0  0  0  0  0  0  0  0
    9.7375   20.9682    1.6605 N   0  0  0  0  0  0  0  0  0  0  0  0
    9.3727   20.0556    1.9806 H   0  0  0  0  0  0  0  0  0  0  0  0
 16 17  2  0  0  0
 17 18  1  0  0  0
 18 19  1  0  0  0
 19 20  1  0  0  0
 20 21  1  0  0  0
 21 22  1  0  0  0
 22 23  1  0  0  0
 23 24  1  0  0  0
 24 25  1  0  0  0
 25 26  1  0  0  0
 25 27  1  0  0  0
 17  1  1  0  0  0
  1  2  2  0  0  0
  2  3  1  0  0  0
  3 10  1  0  0  0
 10 11  2  0  0  0
 11 12  1  0  0  0
 12 13  2  0  0  0
 13 14  1  0  0  0
 14 15  2  0  0  0
  3  4  1  0  0  0
  4  5  2  0  0  0
  5  6  1  0  0  0
  6  7  2  0  0  0
  7  8  1  0  0  0
  8  9  2  0  0  0
 26 19  1  0  0  0
  9  1  1  0  0  0
 27 21  1  0  0  0
 15 10  1  0  0  0
  9  4  1  0  0  0
 27 28  1  0  0  0
M  END
> <minimizedAffinity>
-8.20826

> <CNNscore>
0.4218650758

> <CNNaffinity>
6.9301958084

> <CNN_VS>
2.9236075878

> <CNNaffinity_variance>
0.0879586488

$$$$
[H]OC(=O)O[C@@]1([H])[C@@]([H])(C([H])(O[H])c2nsnc2C([H])(O[H])c2c([H])c([H])c([H])c([H])c2[H])[C@@]([H])(O[H])[C@@]1([H])O[H]


 30 32  0  0  0  0  0  0  0  0999 V2000
   14.8539   23.3919   -0.3519 C   0  0  0  0  0  0  0  0  0  0  0  0
   14.9182   23.9205    0.9495 O   0  0  0  0  0  0  0  0  0  0  0  0
   14.0702   24.4334    1.1243 H   0  0  0  0  0  0  0  0  0  0  0  0
   14.4071   21.9761   -0.3514 C   0  0  0  0  0  0  0  0  0  0  0  0
   13.1536   21.6181    0.3872 C   0  0  0  0  0  0  0  0  0  0  0  0
   13.8291   20.2714    0.7501 C   0  0  0  0  0  0  0  0  0  0  0  0
   13.6838   19.9238    2.0900 O   0  0  0  0  0  0  0  0  0  0  0  0
   15.1543   21.0025    0.4908 C   0  0  0  0  0  0  0  0  0  0  0  0
   15.6850   21.4790    1.6834 O   0  0  0  0  0  0  0  0  0  0  0  0
   12.9290   20.4488    2.4489 H   0  0  0  0  0  0  0  0  0  0  0  0
   16.3370   20.8018    2.0037 H   0  0  0  0  0  0  0  0  0  0  0  0
   12.8777   22.3136    1.5764 O   0  0  0  0  0  0  0  0  0  0  0  0
   11.5611   22.4392    1.9890 C   0  0  0  0  0  0  0  0  0  0  0  0
   11.0361   21.5427    2.7254 O   0  0  0  0  0  0  0  0  0  0  0  0
   10.7747   23.5265    1.6239 O   0  0  0  0  0  0  0  0  0  0  0  0
    9.7656   23.4661    1.6824 H   0  0  0  0  0  0  0  0  0  0  0  0
   14.1254   24.6955   -2.4218 C   0  0  0  0  0  0  0  0  0  0  0  0
   13.1550   25.4256   -2.9754 N   0  0  0  0  0  0  0  0  0  0  0  0
   11.9497   25.4713   -1.8193 S   0  0  0  0  0  0  0  0  0  0  0  0
   12.7007   24.5557   -0.6388 N   0  0  0  0  0  0  0  0  0  0  0  0
   13.8823   24.2279   -1.1647 C   0  0  0  0  0  0  0  0  0  0  0  0
   15.3787   24.4434   -3.2546 C   0  0  0  0  0  0  0  0  0  0  0  0
   15.0741   23.3183   -4.0343 O   0  0  0  0  0  0  0  0  0  0  0  0
   14.2654   23.4114   -4.5691 H   0  0  0  0  0  0  0  0  0  0  0  0
   15.4952   26.4862   -6.4314 C   0  0  0  0  0  0  0  0  0  0  0  0
   16.0241   27.6720   -5.9998 C   0  0  0  0  0  0  0  0  0  0  0  0
   16.3464   27.8109   -4.6754 C   0  0  0  0  0  0  0  0  0  0  0  0
   16.1353   26.7493   -3.7788 C   0  0  0  0  0  0  0  0  0  0  0  0
   15.6052   25.5597   -4.2085 C   0  0  0  0  0  0  0  0  0  0  0  0
   15.2898   25.4485   -5.5499 C   0  0  0  0  0  0  0  0  0  0  0  0
 25 26  2  0  0  0
 26 27  1  0  0  0
 27 28  2  0  0  0
 28 29  1  0  0  0
 29 22  1  0  0  0
 22 17  1  0  0  0
 17 18  2  0  0  0
 18 19  1  0  0  0
 19 20  1  0  0  0
 20 21  2  0  0  0
 21  1  1  0  0  0
  1  2  1  0  0  0
  1  4  1  0  0  0
  4  5  1  0  0  0
  5 12  1  0  0  0
 12 13  1  0  0  0
 13 14  2  0  0  0
 13 15  1  0  0  0
  5  6  1  0  0  0
  6  7  1  0  0  0
  6  8  1  0  0  0
  8  9  1  0  0  0
 22 23  1  0  0  0
 29 30  2  0  0  0
 30 25  1  0  0  0
 21 17  1  0  0  0
  8  4  1  0  0  0
  2  3  1  0  0  0
 15 16  1  0  0  0
  7 10  1  0  0  0
  9 11  1  0  0  0
 23 24  1  0  0  0
M  END
> <minimizedAffinity>
-8.44700

> <CNNscore>
0.4986968040

> <CNNaffinity>
6.4456100464

> <CNN_VS>
3.2144050598

> <CNNaffinity_variance>
0.4827365279

$$$$
[H]OC(=O)O[C@@]1([H])[C@@]([H])(C([H])(O[H])c2nsnc2C([H])(O[H])c2c([H])c([H])c([H])c([H])c2[H])[C@@]([H])(O[H])[C@@]1([H])O[H]


 30 32  0  0  0  0  0  0  0  0999 V2000
   12.5035   23.4607    0.6202 C   0  0  0  0  0  0  0  0  0  0  0  0
   11.5682   24.5050    0.5104 O   0  0  0  0  0  0  0  0  0  0  0  0
   11.9259   25.1820   -0.1425 H   0  0  0  0  0  0  0  0  0  0  0  0
   12.1456   22.3060   -0.2416 C   0  0  0  0  0  0  0  0  0  0  0  0
   10.7120   21.8754   -0.3080 C   0  0  0  0  0  0  0  0  0  0  0  0
   11.2228   20.4173   -0.4287 C   0  0  0  0  0  0  0  0  0  0  0  0
   10.5482   19.5252    0.3997 O   0  0  0  0  0  0  0  0  0  0  0  0
   12.5104   20.9402    0.2243 C   0  0  0  0  0  0  0  0  0  0  0  0
   12.4834   20.7146    1.5953 O   0  0  0  0  0  0  0  0  0  0  0  0
    9.6950   19.9503    0.6553 H   0  0  0  0  0  0  0  0  0  0  0  0
   12.9674   19.8632    1.7603 H   0  0  0  0  0  0  0  0  0  0  0  0
    9.9450   21.9839    0.8642 O   0  0  0  0  0  0  0  0  0  0  0  0
    8.5633   21.9549    0.7659 C   0  0  0  0  0  0  0  0  0  0  0  0
    7.9195   20.9222    1.1410 O   0  0  0  0  0  0  0  0  0  0  0  0
    7.8374   23.0297    0.2641 O   0  0  0  0  0  0  0  0  0  0  0  0
    6.8903   22.8927   -0.0670 H   0  0  0  0  0  0  0  0  0  0  0  0
   14.1620   24.5181   -1.0064 C   0  0  0  0  0  0  0  0  0  0  0  0
   15.4217   24.9216   -1.1838 N   0  0  0  0  0  0  0  0  0  0  0  0
   16.1786   24.5926    0.2687 S   0  0  0  0  0  0  0  0  0  0  0  0
   14.8748   23.9412    1.0882 N   0  0  0  0  0  0  0  0  0  0  0  0
   13.8671   23.9899    0.2150 C   0  0  0  0  0  0  0  0  0  0  0  0
   13.1908   24.7118   -2.1671 C   0  0  0  0  0  0  0  0  0  0  0  0
   12.3785   25.7883   -1.7827 O   0  0  0  0  0  0  0  0  0  0  0  0
   12.8710   26.5959   -1.5504 H   0  0  0  0  0  0  0  0  0  0  0  0
   15.5592   24.7840   -5.1106 C   0  0  0  0  0  0  0  0  0  0  0  0
   15.2705   25.9887   -5.6914 C   0  0  0  0  0  0  0  0  0  0  0  0
   14.3068   26.7824   -5.1273 C   0  0  0  0  0  0  0  0  0  0  0  0
   13.6285   26.3612   -3.9705 C   0  0  0  0  0  0  0  0  0  0  0  0
   13.9156   25.1541   -3.3862 C   0  0  0  0  0  0  0  0  0  0  0  0
   14.8925   24.3748   -3.9774 C   0  0  0  0  0  0  0  0  0  0  0  0
 25 26  2  0  0  0
 26 27  1  0  0  0
 27 28  2  0  0  0
 28 29  1  0  0  0
 29 22  1  0  0  0
 22 17  1  0  0  0
 17 18  2  0  0  0
 18 19  1  0  0  0
 19 20  1  0  0  0
 20 21  2  0  0  0
 21  1  1  0  0  0
  1  2  1  0  0  0
  1  4  1  0  0  0
  4  5  1  0  0  0
  5 12  1  0  0  0
 12 13  1  0  0  0
 13 14  2  0  0  0
 13 15  1  0  0  0
  5  6  1  0  0  0
  6  7  1  0  0  0
  6  8  1  0  0  0
  8  9  1  0  0  0
 22 23  1  0  0  0
 29 30  2  0  0  0
 30 25  1  0  0  0
 21 17  1  0  0  0
  8  4  1  0  0  0
  2  3  1  0  0  0
 15 16  1  0  0  0
  7 10  1  0  0  0
  9 11  1  0  0  0
 23 24  1  0  0  0
M  END
> <minimizedAffinity>
-8.38523

> <CNNscore>
0.4592946768

> <CNNaffinity>
6.4485764503

> <CNN_VS>
2.9617967606

> <CNNaffinity_variance>
0.7859381437

$$$$
[H]OC(=O)O[C@@]1([H])[C@@]([H])(C([H])(O[H])c2nsnc2C([H])(O[H])c2c([H])c([H])c([H])c([H])c2[H])[C@@]([H])(O[H])[C@@]1([H])O[H]


 30 32  0  0  0  0  0  0  0  0999 V2000
   13.3457   25.2395   -2.7653 C   0  0  0  0  0  0  0  0  0  0  0  0
   13.6616   24.3954   -3.8447 O   0  0  0  0  0  0  0  0  0  0  0  0
   14.1694   24.9325   -4.5275 H   0  0  0  0  0  0  0  0  0  0  0  0
   14.3147   25.0955   -1.6497 C   0  0  0  0  0  0  0  0  0  0  0  0
   14.7064   23.7174   -1.2111 C   0  0  0  0  0  0  0  0  0  0  0  0
   14.7793   24.2686    0.2355 C   0  0  0  0  0  0  0  0  0  0  0  0
   14.1555   23.4485    1.1713 O   0  0  0  0  0  0  0  0  0  0  0  0
   13.8424   25.3768   -0.2665 C   0  0  0  0  0  0  0  0  0  0  0  0
   12.5206   25.0609    0.0239 O   0  0  0  0  0  0  0  0  0  0  0  0
   14.0705   22.5528    0.7657 H   0  0  0  0  0  0  0  0  0  0  0  0
   12.2935   25.5136    0.8782 H   0  0  0  0  0  0  0  0  0  0  0  0
   13.7227   22.7153   -1.2577 O   0  0  0  0  0  0  0  0  0  0  0  0
   14.1178   21.3944   -1.3942 C   0  0  0  0  0  0  0  0  0  0  0  0
   13.3317   20.5462   -1.9273 O   0  0  0  0  0  0  0  0  0  0  0  0
   15.3630   20.9493   -0.9639 O   0  0  0  0  0  0  0  0  0  0  0  0
   15.5224   19.9621   -0.8043 H   0  0  0  0  0  0  0  0  0  0  0  0
   14.4465   27.3206   -3.7510 C   0  0  0  0  0  0  0  0  0  0  0  0
   14.2624   28.5884   -4.1251 N   0  0  0  0  0  0  0  0  0  0  0  0
   12.6485   28.8895   -3.8156 S   0  0  0  0  0  0  0  0  0  0  0  0
   12.2260   27.3894   -3.2097 N   0  0  0  0  0  0  0  0  0  0  0  0
   13.3521   26.6751   -3.2576 C   0  0  0  0  0  0  0  0  0  0  0  0
   15.8400   26.7274   -3.9364 C   0  0  0  0  0  0  0  0  0  0  0  0
   16.0524   25.9405   -2.7954 O   0  0  0  0  0  0  0  0  0  0  0  0
   15.3632   25.2700   -2.6400 H   0  0  0  0  0  0  0  0  0  0  0  0
   15.5852   23.5892   -6.0256 C   0  0  0  0  0  0  0  0  0  0  0  0
   15.8913   24.0442   -7.2792 C   0  0  0  0  0  0  0  0  0  0  0  0
   16.1834   25.3719   -7.4492 C   0  0  0  0  0  0  0  0  0  0  0  0
   16.1676   26.2482   -6.3504 C   0  0  0  0  0  0  0  0  0  0  0  0
   15.8610   25.7950   -5.0929 C   0  0  0  0  0  0  0  0  0  0  0  0
   15.5707   24.4507   -4.9517 C   0  0  0  0  0  0  0  0  0  0  0  0
 25 26  2  0  0  0
 26 27  1  0  0  0
 27 28  2  0  0  0
 28 29  1  0  0  0
 29 22  1  0  0  0
 22 17  1  0  0  0
 17 18  2  0  0  0
 18 19  1  0  0  0
 19 20  1  0  0  0
 20 21  2  0  0  0
 21  1  1  0  0  0
  1  2  1  0  0  0
  1  4  1  0  0  0
  4  5  1  0  0  0
  5 12  1  0  0  0
 12 13  1  0  0  0
 13 14  2  0  0  0
 13 15  1  0  0  0
  5  6  1  0  0  0
  6  7  1  0  0  0
  6  8  1  0  0  0
  8  9  1  0  0  0
 22 23  1  0  0  0
 29 30  2  0  0  0
 30 25  1  0  0  0
 21 17  1  0  0  0
  8  4  1  0  0  0
  2  3  1  0  0  0
 15 16  1  0  0  0
  7 10  1  0  0  0
  9 11  1  0  0  0
 23 24  1  0  0  0
M  END
> <minimizedAffinity>
5.88525

> <CNNscore>
0.4337790608

> <CNNaffinity>
5.6458601952

> <CNN_VS>
2.4490559101

> <CNNaffinity_variance>
0.8696993589

$$$$
[H]OC(=O)O[C@@]1([H])[C@@]([H])(C([H])(O[H])c2nsnc2C([H])(O[H])c2c([H])c([H])c([H])c([H])c2[H])[C@@]([H])(O[H])[C@@]1([H])O[H]


 30 32  0  0  0  0  0  0  0  0999 V2000
   16.3190   27.7234   -5.5745 C   0  0  0  0  0  0  0  0  0  0  0  0
   14.9429   27.9908   -5.4648 O   0  0  0  0  0  0  0  0  0  0  0  0
   14.4431   27.2976   -5.9961 H   0  0  0  0  0  0  0  0  0  0  0  0
   16.8284   26.9616   -4.4064 C   0  0  0  0  0  0  0  0  0  0  0  0
   15.8595   26.5436   -3.3428 C   0  0  0  0  0  0  0  0  0  0  0  0
   16.9918   26.7764   -2.3106 C   0  0  0  0  0  0  0  0  0  0  0  0
   16.5785   27.4887   -1.1884 O   0  0  0  0  0  0  0  0  0  0  0  0
   17.6100   27.6955   -3.3740 C   0  0  0  0  0  0  0  0  0  0  0  0
   17.2538   29.0176   -3.1366 O   0  0  0  0  0  0  0  0  0  0  0  0
   15.5944   27.4261   -1.1475 H   0  0  0  0  0  0  0  0  0  0  0  0
   17.9936   29.4305   -2.6184 H   0  0  0  0  0  0  0  0  0  0  0  0
   14.7999   27.4178   -3.0476 O   0  0  0  0  0  0  0  0  0  0  0  0
   13.5013   26.9377   -3.0983 C   0  0  0  0  0  0  0  0  0  0  0  0
   12.8602   26.9497   -4.1986 O   0  0  0  0  0  0  0  0  0  0  0  0
   12.8574   26.4334   -1.9736 O   0  0  0  0  0  0  0  0  0  0  0  0
   11.8475   26.3614   -1.9559 H   0  0  0  0  0  0  0  0  0  0  0  0
   15.7804   25.8804   -7.2561 C   0  0  0  0  0  0  0  0  0  0  0  0
   16.1509   25.2877   -8.3930 N   0  0  0  0  0  0  0  0  0  0  0  0
   17.5110   26.1257   -8.8818 S   0  0  0  0  0  0  0  0  0  0  0  0
   17.5919   27.2259   -7.6253 N   0  0  0  0  0  0  0  0  0  0  0  0
   16.5553   26.9224   -6.8418 C   0  0  0  0  0  0  0  0  0  0  0  0
   14.5289   25.3512   -6.5620 C   0  0  0  0  0  0  0  0  0  0  0  0
   13.8774   24.5770   -7.5328 O   0  0  0  0  0  0  0  0  0  0  0  0
   14.4312   23.8760   -7.9208 H   0  0  0  0  0  0  0  0  0  0  0  0
   16.1519   22.5385   -4.6299 C   0  0  0  0  0  0  0  0  0  0  0  0
   15.5894   22.6701   -3.3896 C   0  0  0  0  0  0  0  0  0  0  0  0
   14.6793   23.6721   -3.1777 C   0  0  0  0  0  0  0  0  0  0  0  0
   14.3326   24.5479   -4.2209 C   0  0  0  0  0  0  0  0  0  0  0  0
   14.8949   24.4185   -5.4650 C   0  0  0  0  0  0  0  0  0  0  0  0
   15.8097   23.3985   -5.6493 C   0  0  0  0  0  0  0  0  0  0  0  0
 25 26  2  0  0  0
 26 27  1  0  0  0
 27 28  2  0  0  0
 28 29  1  0  0  0
 29 22  1  0  0  0
 22 17  1  0  0  0
 17 18  2  0  0  0
 18 19  1  0  0  0
 19 20  1  0  0  0
 20 21  2  0  0  0
 21  1  1  0  0  0
  1  2  1  0  0  0
  1  4  1  0  0  0
  4  5  1  0  0  0
  5 12  1  0  0  0
 12 13  1  0  0  0
 13 14  2  0  0  0
 13 15  1  0  0  0
  5  6  1  0  0  0
  6  7  1  0  0  0
  6  8  1  0  0  0
  8  9  1  0  0  0
 22 23  1  0  0  0
 29 30  2  0  0  0
 30 25  1  0  0  0
 21 17  1  0  0  0
  8  4  1  0  0  0
  2  3  1  0  0  0
 15 16  1  0  0  0
  7 10  1  0  0  0
  9 11  1  0  0  0
 23 24  1  0  0  0
M  END
> <minimizedAffinity>
14.61859

> <CNNscore>
0.4300838113

> <CNNaffinity>
5.5394792557

> <CNN_VS>
2.3824403286

> <CNNaffinity_variance>
1.0424401760

$$$$
[H]OC(=O)O[C@@]1([H])[C@@]([H])(C([H])(O[H])c2nsnc2C([H])(O[H])c2c([H])c([H])c([H])c([H])c2[H])[C@@]([H])(O[H])[C@@]1([H])O[H]


 30 32  0  0  0  0  0  0  0  0999 V2000
   14.1563   24.3015   -1.6802 C   0  0  0  0  0  0  0  0  0  0  0  0
   12.7894   24.0280   -1.4955 O   0  0  0  0  0  0  0  0  0  0  0  0
   12.5812   23.1475   -1.9359 H   0  0  0  0  0  0  0  0  0  0  0  0
   14.9622   23.9127   -0.4955 C   0  0  0  0  0  0  0  0  0  0  0  0
   14.7413   24.6413    0.7949 C   0  0  0  0  0  0  0  0  0  0  0  0
   16.2593   24.4878    1.0667 C   0  0  0  0  0  0  0  0  0  0  0  0
   16.8622   25.6605    1.5122 O   0  0  0  0  0  0  0  0  0  0  0  0
   16.3935   24.3192   -0.4536 C   0  0  0  0  0  0  0  0  0  0  0  0
   16.7211   25.5321   -1.0476 O   0  0  0  0  0  0  0  0  0  0  0  0
   16.1453   26.2486    1.8504 H   0  0  0  0  0  0  0  0  0  0  0  0
   17.7087   25.5492   -1.1503 H   0  0  0  0  0  0  0  0  0  0  0  0
   14.4369   26.0112    0.7249 O   0  0  0  0  0  0  0  0  0  0  0  0
   13.1725   26.4365    1.0992 C   0  0  0  0  0  0  0  0  0  0  0  0
   12.1436   25.7937    0.7120 O   0  0  0  0  0  0  0  0  0  0  0  0
   12.9784   27.5592    1.8964 O   0  0  0  0  0  0  0  0  0  0  0  0
   12.0750   28.0160    1.9193 H   0  0  0  0  0  0  0  0  0  0  0  0
   14.2518   22.2685   -3.2203 C   0  0  0  0  0  0  0  0  0  0  0  0
   14.7961   21.7499   -4.3230 N   0  0  0  0  0  0  0  0  0  0  0  0
   15.8061   22.9495   -4.8991 S   0  0  0  0  0  0  0  0  0  0  0  0
   15.5216   24.1025   -3.7221 N   0  0  0  0  0  0  0  0  0  0  0  0
   14.6421   23.5335   -2.8957 C   0  0  0  0  0  0  0  0  0  0  0  0
   13.2432   21.4100   -2.4627 C   0  0  0  0  0  0  0  0  0  0  0  0
   13.2129   20.1916   -3.1562 O   0  0  0  0  0  0  0  0  0  0  0  0
   14.0844   19.7684   -3.2562 H   0  0  0  0  0  0  0  0  0  0  0  0
   13.3843   20.8643    1.2737 C   0  0  0  0  0  0  0  0  0  0  0  0
   14.6881   20.4983    1.4689 C   0  0  0  0  0  0  0  0  0  0  0  0
   15.5262   20.4297    0.3872 C   0  0  0  0  0  0  0  0  0  0  0  0
   15.0493   20.7314   -0.9000 C   0  0  0  0  0  0  0  0  0  0  0  0
   13.7429   21.0983   -1.0987 C   0  0  0  0  0  0  0  0  0  0  0  0
   12.9208   21.1590    0.0111 C   0  0  0  0  0  0  0  0  0  0  0  0
 25 26  2  0  0  0
 26 27  1  0  0  0
 27 28  2  0  0  0
 28 29  1  0  0  0
 29 22  1  0  0  0
 22 17  1  0  0  0
 17 18  2  0  0  0
 18 19  1  0  0  0
 19 20  1  0  0  0
 20 21  2  0  0  0
 21  1  1  0  0  0
  1  2  1  0  0  0
  1  4  1  0  0  0
  4  5  1  0  0  0
  5 12  1  0  0  0
 12 13  1  0  0  0
 13 14  2  0  0  0
 13 15  1  0  0  0
  5  6  1  0  0  0
  6  7  1  0  0  0
  6  8  1  0  0  0
  8  9  1  0  0  0
 22 23  1  0  0  0
 29 30  2  0  0  0
 30 25  1  0  0  0
 21 17  1  0  0  0
  8  4  1  0  0  0
  2  3  1  0  0  0
 15 16  1  0  0  0
  7 10  1  0  0  0
  9 11  1  0  0  0
 23 24  1  0  0  0
M  END
> <minimizedAffinity>
4.89991

> <CNNscore>
0.4226639271

> <CNNaffinity>
5.3493413925

> <CNN_VS>
2.2609736919

> <CNNaffinity_variance>
0.8668431044

$$$$
[H]OC(=O)O[C@@]1([H])[C@@]([H])(C([H])(O[H])c2nsnc2C([H])(O[H])c2c([H])c([H])c([H])c([H])c2[H])[C@@]([H])(O[H])[C@@]1([H])O[H]


 30 32  0  0  0  0  0  0  0  0999 V2000
   12.8382   22.8500   -1.3700 C   0  0  0  0  0  0  0  0  0  0  0  0
   13.1212   21.4780   -1.2484 O   0  0  0  0  0  0  0  0  0  0  0  0
   13.7755   21.3562   -0.4937 H   0  0  0  0  0  0  0  0  0  0  0  0
   11.5774   23.2173   -0.6774 C   0  0  0  0  0  0  0  0  0  0  0  0
   11.2367   22.5284    0.6087 C   0  0  0  0  0  0  0  0  0  0  0  0
    9.7495   22.6026    0.1794 C   0  0  0  0  0  0  0  0  0  0  0  0
    9.0607   21.4073    0.3646 O   0  0  0  0  0  0  0  0  0  0  0  0
   10.2923   22.7325   -1.2510 C   0  0  0  0  0  0  0  0  0  0  0  0
   10.3102   21.4915   -1.8761 O   0  0  0  0  0  0  0  0  0  0  0  0
    9.5786   20.8671    1.0080 H   0  0  0  0  0  0  0  0  0  0  0  0
    9.4706   21.4172   -2.4012 H   0  0  0  0  0  0  0  0  0  0  0  0
   11.5968   21.1765    0.7382 O   0  0  0  0  0  0  0  0  0  0  0  0
   12.4575   20.8073    1.7593 C   0  0  0  0  0  0  0  0  0  0  0  0
   11.9965   20.2717    2.8186 O   0  0  0  0  0  0  0  0  0  0  0  0
   13.8316   21.0021    1.6716 O   0  0  0  0  0  0  0  0  0  0  0  0
   14.3994   21.0011    2.5100 H   0  0  0  0  0  0  0  0  0  0  0  0
   15.1099   24.0106   -1.4524 C   0  0  0  0  0  0  0  0  0  0  0  0
   16.0241   24.6874   -0.7542 N   0  0  0  0  0  0  0  0  0  0  0  0
   15.3770   24.8091    0.7812 S   0  0  0  0  0  0  0  0  0  0  0  0
   13.9431   23.9918    0.5139 N   0  0  0  0  0  0  0  0  0  0  0  0
   13.9907   23.6352   -0.7710 C   0  0  0  0  0  0  0  0  0  0  0  0
   15.3998   23.7537   -2.9282 C   0  0  0  0  0  0  0  0  0  0  0  0
   14.6156   22.6401   -3.2620 O   0  0  0  0  0  0  0  0  0  0  0  0
   13.6676   22.7474   -3.0661 H   0  0  0  0  0  0  0  0  0  0  0  0
   13.3923   26.7230   -4.1248 C   0  0  0  0  0  0  0  0  0  0  0  0
   13.9702   27.0016   -5.3333 C   0  0  0  0  0  0  0  0  0  0  0  0
   15.0128   26.2241   -5.7642 C   0  0  0  0  0  0  0  0  0  0  0  0
   15.4774   25.1588   -4.9738 C   0  0  0  0  0  0  0  0  0  0  0  0
   14.9002   24.8773   -3.7619 C   0  0  0  0  0  0  0  0  0  0  0  0
   13.8503   25.6785   -3.3532 C   0  0  0  0  0  0  0  0  0  0  0  0
 25 26  2  0  0  0
 26 27  1  0  0  0
 27 28  2  0  0  0
 28 29  1  0  0  0
 29 22  1  0  0  0
 22 17  1  0  0  0
 17 18  2  0  0  0
 18 19  1  0  0  0
 19 20  1  0  0  0
 20 21  2  0  0  0
 21  1  1  0  0  0
  1  2  1  0  0  0
  1  4  1  0  0  0
  4  5  1  0  0  0
  5 12  1  0  0  0
 12 13  1  0  0  0
 13 14  2  0  0  0
 13 15  1  0  0  0
  5  6  1  0  0  0
  6  7  1  0  0  0
  6  8  1  0  0  0
  8  9  1  0  0  0
 22 23  1  0  0  0
 29 30  2  0  0  0
 30 25  1  0  0  0
 21 17  1  0  0  0
  8  4  1  0  0  0
  2  3  1  0  0  0
 15 16  1  0  0  0
  7 10  1  0  0  0
  9 11  1  0  0  0
 23 24  1  0  0  0
M  END
> <minimizedAffinity>
-8.24039

> <CNNscore>
0.4127087295

> <CNNaffinity>
6.4693870544

> <CNN_VS>
2.6699724197

> <CNNaffinity_variance>
0.5806578398

$$$$
[H]OC(=O)O[C@@]1([H])[C@@]([H])(C([H])(O[H])c2nsnc2C([H])(O[H])c2c([H])c([H])c([H])c([H])c2[H])[C@@]([H])(O[H])[C@@]1([H])O[H]


 30 32  0  0  0  0  0  0  0  0999 V2000
   12.7510   21.7773   -0.6648 C   0  0  0  0  0  0  0  0  0  0  0  0
   13.0699   20.5765   -0.0061 O   0  0  0  0  0  0  0  0  0  0  0  0
   13.6581   20.7946    0.7807 H   0  0  0  0  0  0  0  0  0  0  0  0
   11.4213   22.2953   -0.2553 C   0  0  0  0  0  0  0  0  0  0  0  0
   11.0366   22.2253    1.1910 C   0  0  0  0  0  0  0  0  0  0  0  0
    9.5827   21.9600    0.7248 C   0  0  0  0  0  0  0  0  0  0  0  0
    8.9659   20.9149    1.4064 O   0  0  0  0  0  0  0  0  0  0  0  0
   10.2171   21.4873   -0.5911 C   0  0  0  0  0  0  0  0  0  0  0  0
   10.3652   20.1056   -0.5877 O   0  0  0  0  0  0  0  0  0  0  0  0
    9.4718   20.7703    2.2413 H   0  0  0  0  0  0  0  0  0  0  0  0
    9.5727   19.7262   -1.0506 H   0  0  0  0  0  0  0  0  0  0  0  0
   11.4783   21.1141    1.9288 O   0  0  0  0  0  0  0  0  0  0  0  0
   11.2744   21.0958    3.2991 C   0  0  0  0  0  0  0  0  0  0  0  0
   11.8058   20.1827    4.0101 O   0  0  0  0  0  0  0  0  0  0  0  0
   10.4972   22.0534    3.9416 O   0  0  0  0  0  0  0  0  0  0  0  0
   10.1256   21.8698    4.8655 H   0  0  0  0  0  0  0  0  0  0  0  0
   13.9208   24.0308   -0.9247 C   0  0  0  0  0  0  0  0  0  0  0  0
   14.9330   24.7973   -0.5135 N   0  0  0  0  0  0  0  0  0  0  0  0
   15.7166   23.8779    0.6404 S   0  0  0  0  0  0  0  0  0  0  0  0
   14.7408   22.5213    0.5843 N   0  0  0  0  0  0  0  0  0  0  0  0
   13.8171   22.8061   -0.3355 C   0  0  0  0  0  0  0  0  0  0  0  0
   12.9832   24.6097   -1.9801 C   0  0  0  0  0  0  0  0  0  0  0  0
   12.4331   25.7545   -1.3857 O   0  0  0  0  0  0  0  0  0  0  0  0
   13.0944   26.3925   -1.0627 H   0  0  0  0  0  0  0  0  0  0  0  0
   14.2157   26.7456   -4.8432 C   0  0  0  0  0  0  0  0  0  0  0  0
   15.2156   25.9775   -5.3745 C   0  0  0  0  0  0  0  0  0  0  0  0
   15.4912   24.7622   -4.8053 C   0  0  0  0  0  0  0  0  0  0  0  0
   14.7557   24.3162   -3.6937 C   0  0  0  0  0  0  0  0  0  0  0  0
   13.7530   25.0840   -3.1589 C   0  0  0  0  0  0  0  0  0  0  0  0
   13.4974   26.3053   -3.7541 C   0  0  0  0  0  0  0  0  0  0  0  0
 25 26  2  0  0  0
 26 27  1  0  0  0
 27 28  2  0  0  0
 28 29  1  0  0  0
 29 22  1  0  0  0
 22 17  1  0  0  0
 17 18  2  0  0  0
 18 19  1  0  0  0
 19 20  1  0  0  0
 20 21  2  0  0  0
 21  1  1  0  0  0
  1  2  1  0  0  0
  1  4  1  0  0  0
  4  5  1  0  0  0
  5 12  1  0  0  0
 12 13  1  0  0  0
 13 14  2  0  0  0
 13 15  1  0  0  0
  5  6  1  0  0  0
  6  7  1  0  0  0
  6  8  1  0  0  0
  8  9  1  0  0  0
 22 23  1  0  0  0
 29 30  2  0  0  0
 30 25  1  0  0  0
 21 17  1  0  0  0
  8  4  1  0  0  0
  2  3  1  0  0  0
 15 16  1  0  0  0
  7 10  1  0  0  0
  9 11  1  0  0  0
 23 24  1  0  0  0
M  END
> <minimizedAffinity>
-7.93425

> <CNNscore>
0.4121115208

> <CNNaffinity>
6.3897480965

> <CNN_VS>
2.6332888603

> <CNNaffinity_variance>
0.7148445845

$$$$
[H]OC(=O)O[C@@]1([H])[C@@]([H])(C([H])(O[H])c2nsnc2C([H])(O[H])c2c([H])c([H])c([H])c([H])c2[H])[C@@]([H])(O[H])[C@@]1([H])O[H]


 30 32  0  0  0  0  0  0  0  0999 V2000
   13.8066   23.7597   -1.3473 C   0  0  0  0  0  0  0  0  0  0  0  0
   12.5444   23.3364   -0.8946 O   0  0  0  0  0  0  0  0  0  0  0  0
   12.4627   22.3481   -1.0654 H   0  0  0  0  0  0  0  0  0  0  0  0
   14.7926   23.8381   -0.2402 C   0  0  0  0  0  0  0  0  0  0  0  0
   14.4248   24.5980    0.9976 C   0  0  0  0  0  0  0  0  0  0  0  0
   15.9094   25.0319    1.0945 C   0  0  0  0  0  0  0  0  0  0  0  0
   16.0724   26.3890    1.3570 O   0  0  0  0  0  0  0  0  0  0  0  0
   15.9720   24.7301   -0.4098 C   0  0  0  0  0  0  0  0  0  0  0  0
   15.7806   25.8939   -1.1448 O   0  0  0  0  0  0  0  0  0  0  0  0
   15.2194   26.7207    1.7265 H   0  0  0  0  0  0  0  0  0  0  0  0
   16.6808   26.2489   -1.3685 H   0  0  0  0  0  0  0  0  0  0  0  0
   13.6329   25.7484    0.8439 O   0  0  0  0  0  0  0  0  0  0  0  0
   12.3482   25.6153    0.3422 C   0  0  0  0  0  0  0  0  0  0  0  0
   11.4236   25.1389    1.0770 O   0  0  0  0  0  0  0  0  0  0  0  0
   12.0220   25.9884   -0.9571 O   0  0  0  0  0  0  0  0  0  0  0  0
   11.1828   25.6273   -1.3938 H   0  0  0  0  0  0  0  0  0  0  0  0
   14.4341   21.4347   -2.1930 C   0  0  0  0  0  0  0  0  0  0  0  0
   14.8941   20.7292   -3.2282 N   0  0  0  0  0  0  0  0  0  0  0  0
   15.1325   21.8587   -4.4359 S   0  0  0  0  0  0  0  0  0  0  0  0
   14.6415   23.2228   -3.6030 N   0  0  0  0  0  0  0  0  0  0  0  0
   14.2987   22.7762   -2.3933 C   0  0  0  0  0  0  0  0  0  0  0  0
   14.0888   20.6705   -0.9184 C   0  0  0  0  0  0  0  0  0  0  0  0
   14.7503   21.3610    0.1073 O   0  0  0  0  0  0  0  0  0  0  0  0
   14.5336   22.3095    0.1532 H   0  0  0  0  0  0  0  0  0  0  0  0
   10.8161   20.9712    0.9465 C   0  0  0  0  0  0  0  0  0  0  0  0
    9.8995   20.9942   -0.0690 C   0  0  0  0  0  0  0  0  0  0  0  0
   10.3417   20.9101   -1.3629 C   0  0  0  0  0  0  0  0  0  0  0  0
   11.7160   20.8019   -1.6374 C   0  0  0  0  0  0  0  0  0  0  0  0
   12.6371   20.7788   -0.6216 C   0  0  0  0  0  0  0  0  0  0  0  0
   12.1616   20.8653    0.6737 C   0  0  0  0  0  0  0  0  0  0  0  0
 25 26  2  0  0  0
 26 27  1  0  0  0
 27 28  2  0  0  0
 28 29  1  0  0  0
 29 22  1  0  0  0
 22 17  1  0  0  0
 17 18  2  0  0  0
 18 19  1  0  0  0
 19 20  1  0  0  0
 20 21  2  0  0  0
 21  1  1  0  0  0
  1  2  1  0  0  0
  1  4  1  0  0  0
  4  5  1  0  0  0
  5 12  1  0  0  0
 12 13  1  0  0  0
 13 14  2  0  0  0
 13 15  1  0  0  0
  5  6  1  0  0  0
  6  7  1  0  0  0
  6  8  1  0  0  0
  8  9  1  0  0  0
 22 23  1  0  0  0
 29 30  2  0  0  0
 30 25  1  0  0  0
 21 17  1  0  0  0
  8  4  1  0  0  0
  2  3  1  0  0  0
 15 16  1  0  0  0
  7 10  1  0  0  0
  9 11  1  0  0  0
 23 24  1  0  0  0
M  END
> <minimizedAffinity>
1.11367

> <CNNscore>
0.4029112160

> <CNNaffinity>
5.1914215088

> <CNN_VS>
2.0916819572

> <CNNaffinity_variance>
0.7208762765

$$$$
[H]OC(=O)O[C@@]1([H])[C@@]([H])(C([H])(O[H])c2nsnc2C([H])(O[H])c2c([H])c([H])c([H])c([H])c2[H])[C@@]([H])(O[H])[C@@]1([H])O[H]


 30 32  0  0  0  0  0  0  0  0999 V2000
   11.7448   23.7167    0.5082 C   0  0  0  0  0  0  0  0  0  0  0  0
   12.7102   23.0224    1.2587 O   0  0  0  0  0  0  0  0  0  0  0  0
   12.6218   22.0408    1.0559 H   0  0  0  0  0  0  0  0  0  0  0  0
   12.3158   24.2772   -0.7424 C   0  0  0  0  0  0  0  0  0  0  0  0
   13.5841   23.6885   -1.2806 C   0  0  0  0  0  0  0  0  0  0  0  0
   13.9715   25.1143   -1.7481 C   0  0  0  0  0  0  0  0  0  0  0  0
   15.2843   25.4592   -1.4401 O   0  0  0  0  0  0  0  0  0  0  0  0
   12.9865   25.6044   -0.6770 C   0  0  0  0  0  0  0  0  0  0  0  0
   13.6626   25.9109    0.4978 O   0  0  0  0  0  0  0  0  0  0  0  0
   15.7749   24.6205   -1.2675 H   0  0  0  0  0  0  0  0  0  0  0  0
   13.8434   26.8873    0.4840 H   0  0  0  0  0  0  0  0  0  0  0  0
   14.5422   23.2477   -0.3523 O   0  0  0  0  0  0  0  0  0  0  0  0
   14.6890   21.8871   -0.1359 C   0  0  0  0  0  0  0  0  0  0  0  0
   13.7267   21.0937   -0.3931 O   0  0  0  0  0  0  0  0  0  0  0  0
   15.8683   21.3427    0.3608 O   0  0  0  0  0  0  0  0  0  0  0  0
   15.8657   20.4202    0.7783 H   0  0  0  0  0  0  0  0  0  0  0  0
    9.6825   22.3135    1.0486 C   0  0  0  0  0  0  0  0  0  0  0  0
    8.7753   21.4620    0.5656 N   0  0  0  0  0  0  0  0  0  0  0  0
    9.1866   21.2751   -1.0428 S   0  0  0  0  0  0  0  0  0  0  0  0
   10.5161   22.2884   -1.0804 N   0  0  0  0  0  0  0  0  0  0  0  0
   10.6197   22.7578    0.1643 C   0  0  0  0  0  0  0  0  0  0  0  0
    9.5607   22.7140    2.5159 C   0  0  0  0  0  0  0  0  0  0  0  0
   10.8412   22.5159    3.0520 O   0  0  0  0  0  0  0  0  0  0  0  0
   11.5488   22.9889    2.5784 H   0  0  0  0  0  0  0  0  0  0  0  0
    9.6454   26.3013    3.7003 C   0  0  0  0  0  0  0  0  0  0  0  0
    8.7556   26.9106    2.8582 C   0  0  0  0  0  0  0  0  0  0  0  0
    8.1236   26.1573    1.9042 C   0  0  0  0  0  0  0  0  0  0  0  0
    8.3886   24.7812    1.7964 C   0  0  0  0  0  0  0  0  0  0  0  0
    9.2802   24.1678    2.6388 C   0  0  0  0  0  0  0  0  0  0  0  0
    9.9025   24.9529    3.5915 C   0  0  0  0  0  0  0  0  0  0  0  0
 25 26  2  0  0  0
 26 27  1  0  0  0
 27 28  2  0  0  0
 28 29  1  0  0  0
 29 22  1  0  0  0
 22 17  1  0  0  0
 17 18  2  0  0  0
 18 19  1  0  0  0
 19 20  1  0  0  0
 20 21  2  0  0  0
 21  1  1  0  0  0
  1  2  1  0  0  0
  1  4  1  0  0  0
  4  5  1  0  0  0
  5 12  1  0  0  0
 12 13  1  0  0  0
 13 14  2  0  0  0
 13 15  1  0  0  0
  5  6  1  0  0  0
  6  7  1  0  0  0
  6  8  1  0  0  0
  8  9  1  0  0  0
 22 23  1  0  0  0
 29 30  2  0  0  0
 30 25  1  0  0  0
 21 17  1  0  0  0
  8  4  1  0  0  0
  2  3  1  0  0  0
 15 16  1  0  0  0
  7 10  1  0  0  0
  9 11  1  0  0  0
 23 24  1  0  0  0
M  END
> <minimizedAffinity>
-0.71864

> <CNNscore>
0.3956967294

> <CNNaffinity>
5.4778051376

> <CNN_VS>
2.1675496101

> <CNNaffinity_variance>
2.1138014793

$$$$
[H]c1c([H])c(OC(F)(F)F)c([H])c(C(=O)N([H])C(c2c([H])c([H])c(OC([H])([H])C([H])([H])C([H])([H])C([H])([H])C([H])([H])N(C(F)(F)F)C([H])([H])C([H])([H])C([H])([H])[H])c([H])c2[H])(C([H])([H])[H])C([H])([H])[H])c1[H]


 38 39  0  0  0  0  0  0  0  0999 V2000
   10.1098   23.4022    2.8458 C   0  0  0  0  0  0  0  0  0  0  0  0
   10.6419   22.1407    2.7418 C   0  0  0  0  0  0  0  0  0  0  0  0
   11.1644   21.7304    1.5093 C   0  0  0  0  0  0  0  0  0  0  0  0
   11.1643   22.5341    0.4163 C   0  0  0  0  0  0  0  0  0  0  0  0
   10.6282   23.7949    0.5407 C   0  0  0  0  0  0  0  0  0  0  0  0
   10.1008   24.2451    1.7328 C   0  0  0  0  0  0  0  0  0  0  0  0
   11.6788   22.1160   -0.9066 C   0  0  0  0  0  0  0  0  0  0  0  0
   12.5092   20.8366   -0.5970 C   0  0  0  0  0  0  0  0  0  0  0  0
   10.4755   21.7675   -1.7582 C   0  0  0  0  0  0  0  0  0  0  0  0
   12.5716   23.0402   -1.5201 N   0  0  0  0  0  0  0  0  0  0  0  0
   13.7825   23.5416   -0.9559 C   0  0  0  0  0  0  0  0  0  0  0  0
   14.1329   23.1783    0.1817 O   0  0  0  0  0  0  0  0  0  0  0  0
   12.3400   23.4044   -2.4887 H   0  0  0  0  0  0  0  0  0  0  0  0
   14.6321   24.4741   -1.6687 C   0  0  0  0  0  0  0  0  0  0  0  0
   15.8994   24.7451   -1.2341 C   0  0  0  0  0  0  0  0  0  0  0  0
   16.7332   25.6417   -1.9262 C   0  0  0  0  0  0  0  0  0  0  0  0
   16.2477   26.2538   -3.0671 C   0  0  0  0  0  0  0  0  0  0  0  0
   14.9543   25.9928   -3.5317 C   0  0  0  0  0  0  0  0  0  0  0  0
   14.1722   25.1067   -2.8218 C   0  0  0  0  0  0  0  0  0  0  0  0
   14.5067   26.6245   -4.6767 O   0  0  0  0  0  0  0  0  0  0  0  0
   15.0688   26.4854   -5.9603 C   0  0  0  0  0  0  0  0  0  0  0  0
   14.1386   26.7906   -6.9510 F   0  0  0  0  0  0  0  0  0  0  0  0
   16.1293   27.3730   -6.1454 F   0  0  0  0  0  0  0  0  0  0  0  0
   15.5405   25.2146   -6.2174 F   0  0  0  0  0  0  0  0  0  0  0  0
    9.5686   23.8728    4.0531 O   0  0  0  0  0  0  0  0  0  0  0  0
    8.1507   23.7429    4.2196 C   0  0  0  0  0  0  0  0  0  0  0  0
    7.6217   24.9868    4.8450 C   0  0  0  0  0  0  0  0  0  0  0  0
    8.6684   26.0828    4.9219 C   0  0  0  0  0  0  0  0  0  0  0  0
    8.5268   27.0412    3.7376 C   0  0  0  0  0  0  0  0  0  0  0  0
    7.0787   27.0829    3.3648 C   0  0  0  0  0  0  0  0  0  0  0  0
    6.4631   28.3064    3.7623 N   0  0  0  0  0  0  0  0  0  0  0  0
    6.3531   29.3303    2.7818 C   0  0  0  0  0  0  0  0  0  0  0  0
    6.7512   28.9726    1.5160 F   0  0  0  0  0  0  0  0  0  0  0  0
    7.0089   30.4815    3.1503 F   0  0  0  0  0  0  0  0  0  0  0  0
    4.9718   29.6680    2.6034 F   0  0  0  0  0  0  0  0  0  0  0  0
    5.1241   28.0425    4.3132 C   0  0  0  0  0  0  0  0  0  0  0  0
    4.5638   26.5948    6.2145 C   0  0  0  0  0  0  0  0  0  0  0  0
    5.2132   27.9075    5.8192 C   0  0  0  0  0  0  0  0  0  0  0  0
 37 38  1  0  0  0
 38 36  1  0  0  0
 36 31  1  0  0  0
 31 30  1  0  0  0
 30 29  1  0  0  0
 29 28  1  0  0  0
 28 27  1  0  0  0
 27 26  1  0  0  0
 26 25  1  0  0  0
 25  1  1  0  0  0
  1  2  2  0  0  0
  2  3  1  0  0  0
  3  4  2  0  0  0
  4  5  1  0  0  0
  5  6  2  0  0  0
  4  7  1  0  0  0
  7  8  1  0  0  0
  7  9  1  0  0  0
  7 10  1  0  0  0
 10 11  1  0  0  0
 11 12  2  0  0  0
 11 14  1  0  0  0
 14 15  2  0  0  0
 15 16  1  0  0  0
 16 17  2  0  0  0
 17 18  1  0  0  0
 18 20  1  0  0  0
 20 21  1  0  0  0
 21 22  1  0  0  0
 21 23  1  0  0  0
 21 24  1  0  0  0
 18 19  2  0  0  0
 31 32  1  0  0  0
 32 33  1  0  0  0
 32 34  1  0  0  0
 32 35  1  0  0  0
  6  1  1  0  0  0
 19 14  1  0  0  0
 10 13  1  0  0  0
M  END
> <minimizedAffinity>
-8.73251

> <CNNscore>
0.2660207748

> <CNNaffinity>
6.7891550064

> <CNN_VS>
1.8060562611

> <CNNaffinity_variance>
0.2496682853

$$$$
[H]c1c([H])c(OC(F)(F)F)c([H])c(C(=O)N([H])C(c2c([H])c([H])c(OC([H])([H])C([H])([H])C([H])([H])C([H])([H])C([H])([H])N(C(F)(F)F)C([H])([H])C([H])([H])C([H])([H])[H])c([H])c2[H])(C([H])([H])[H])C([H])([H])[H])c1[H]


 38 39  0  0  0  0  0  0  0  0999 V2000
   10.8032   22.6979    2.3533 C   0  0  0  0  0  0  0  0  0  0  0  0
   10.3779   23.9048    1.8554 C   0  0  0  0  0  0  0  0  0  0  0  0
    9.3898   24.6098    2.5531 C   0  0  0  0  0  0  0  0  0  0  0  0
    8.8392   24.1441    3.7022 C   0  0  0  0  0  0  0  0  0  0  0  0
    9.2795   22.9338    4.1860 C   0  0  0  0  0  0  0  0  0  0  0  0
   10.2497   22.2013    3.5350 C   0  0  0  0  0  0  0  0  0  0  0  0
    7.7706   24.8509    4.4426 C   0  0  0  0  0  0  0  0  0  0  0  0
    6.6889   23.7558    4.6730 C   0  0  0  0  0  0  0  0  0  0  0  0
    8.3652   25.2881    5.7654 C   0  0  0  0  0  0  0  0  0  0  0  0
    7.1367   25.9012    3.7196 N   0  0  0  0  0  0  0  0  0  0  0  0
    7.6159   27.2385    3.5848 C   0  0  0  0  0  0  0  0  0  0  0  0
    8.6772   27.5752    4.1406 O   0  0  0  0  0  0  0  0  0  0  0  0
    6.2224   25.6970    3.2231 H   0  0  0  0  0  0  0  0  0  0  0  0
    6.9005   28.2353    2.8140 C   0  0  0  0  0  0  0  0  0  0  0  0
    6.5646   29.4413    3.3625 C   0  0  0  0  0  0  0  0  0  0  0  0
    5.8789   30.4174    2.6175 C   0  0  0  0  0  0  0  0  0  0  0  0
    5.5442   30.1373    1.3054 C   0  0  0  0  0  0  0  0  0  0  0  0
    5.8770   28.9104    0.7217 C   0  0  0  0  0  0  0  0  0  0  0  0
    6.5495   27.9835    1.4893 C   0  0  0  0  0  0  0  0  0  0  0  0
    5.5252   28.6694   -0.5931 O   0  0  0  0  0  0  0  0  0  0  0  0
    5.9793   29.4000   -1.7081 C   0  0  0  0  0  0  0  0  0  0  0  0
    5.2003   30.5360   -1.9144 F   0  0  0  0  0  0  0  0  0  0  0  0
    7.2820   29.8601   -1.5131 F   0  0  0  0  0  0  0  0  0  0  0  0
    5.9659   28.6743   -2.8814 F   0  0  0  0  0  0  0  0  0  0  0  0
   11.7895   21.9413    1.7000 O   0  0  0  0  0  0  0  0  0  0  0  0
   11.4108   20.6320    1.2560 C   0  0  0  0  0  0  0  0  0  0  0  0
   11.0848   20.6897   -0.1961 C   0  0  0  0  0  0  0  0  0  0  0  0
   11.4898   22.0099   -0.8252 C   0  0  0  0  0  0  0  0  0  0  0  0
   12.9705   21.9868   -1.2100 C   0  0  0  0  0  0  0  0  0  0  0  0
   13.5764   23.2709   -0.7391 C   0  0  0  0  0  0  0  0  0  0  0  0
   13.6154   24.2508   -1.7745 N   0  0  0  0  0  0  0  0  0  0  0  0
   12.6236   25.2693   -1.7469 C   0  0  0  0  0  0  0  0  0  0  0  0
   11.3480   24.8511   -2.0414 F   0  0  0  0  0  0  0  0  0  0  0  0
   12.9443   26.3353   -2.5544 F   0  0  0  0  0  0  0  0  0  0  0  0
   12.4989   25.7721   -0.4107 F   0  0  0  0  0  0  0  0  0  0  0  0
   14.9401   24.8909   -1.8147 C   0  0  0  0  0  0  0  0  0  0  0  0
   15.1721   23.4508   -3.7888 C   0  0  0  0  0  0  0  0  0  0  0  0
   15.4945   24.8207   -3.2225 C   0  0  0  0  0  0  0  0  0  0  0  0
 37 38  1  0  0  0
 38 36  1  0  0  0
 36 31  1  0  0  0
 31 30  1  0  0  0
 30 29  1  0  0  0
 29 28  1  0  0  0
 28 27  1  0  0  0
 27 26  1  0  0  0
 26 25  1  0  0  0
 25  1  1  0  0  0
  1  2  2  0  0  0
  2  3  1  0  0  0
  3  4  2  0  0  0
  4  5  1  0  0  0
  5  6  2  0  0  0
  4  7  1  0  0  0
  7  8  1  0  0  0
  7  9  1  0  0  0
  7 10  1  0  0  0
 10 11  1  0  0  0
 11 12  2  0  0  0
 11 14  1  0  0  0
 14 15  2  0  0  0
 15 16  1  0  0  0
 16 17  2  0  0  0
 17 18  1  0  0  0
 18 20  1  0  0  0
 20 21  1  0  0  0
 21 22  1  0  0  0
 21 23  1  0  0  0
 21 24  1  0  0  0
 18 19  2  0  0  0
 31 32  1  0  0  0
 32 33  1  0  0  0
 32 34  1  0  0  0
 32 35  1  0  0  0
  6  1  1  0  0  0
 19 14  1  0  0  0
 10 13  1  0  0  0
M  END
> <minimizedAffinity>
-7.92293

> <CNNscore>
0.1473549604

> <CNNaffinity>
6.4119062424

> <CNN_VS>
0.9448261857

> <CNNaffinity_variance>
0.3015515208

$$$$
[H]c1c([H])c(OC(F)(F)F)c([H])c(C(=O)N([H])C(c2c([H])c([H])c(OC([H])([H])C([H])([H])C([H])([H])C([H])([H])C([H])([H])N(C(F)(F)F)C([H])([H])C([H])([H])C([H])([H])[H])c([H])c2[H])(C([H])([H])[H])C([H])([H])[H])c1[H]


 38 39  0  0  0  0  0  0  0  0999 V2000
   10.6127   22.1687    2.9346 C   0  0  0  0  0  0  0  0  0  0  0  0
   11.4319   21.0683    2.9923 C   0  0  0  0  0  0  0  0  0  0  0  0
   12.3930   20.8917    1.9895 C   0  0  0  0  0  0  0  0  0  0  0  0
   12.5437   21.7683    0.9651 C   0  0  0  0  0  0  0  0  0  0  0  0
   11.7146   22.8654    0.9254 C   0  0  0  0  0  0  0  0  0  0  0  0
   10.7523   23.0833    1.8889 C   0  0  0  0  0  0  0  0  0  0  0  0
   13.5274   21.5903   -0.1259 C   0  0  0  0  0  0  0  0  0  0  0  0
   14.6990   20.8201    0.5497 C   0  0  0  0  0  0  0  0  0  0  0  0
   12.8672   20.7237   -1.1784 C   0  0  0  0  0  0  0  0  0  0  0  0
   14.0786   22.7997   -0.6371 N   0  0  0  0  0  0  0  0  0  0  0  0
   14.6360   22.9870   -1.9371 C   0  0  0  0  0  0  0  0  0  0  0  0
   14.6799   22.0334   -2.7356 O   0  0  0  0  0  0  0  0  0  0  0  0
   14.0858   23.6581   -0.0147 H   0  0  0  0  0  0  0  0  0  0  0  0
   15.1627   24.2660   -2.3686 C   0  0  0  0  0  0  0  0  0  0  0  0
   16.2052   24.8560   -1.7103 C   0  0  0  0  0  0  0  0  0  0  0  0
   16.7281   26.0926   -2.1292 C   0  0  0  0  0  0  0  0  0  0  0  0
   16.1661   26.7122   -3.2302 C   0  0  0  0  0  0  0  0  0  0  0  0
   15.0987   26.1284   -3.9205 C   0  0  0  0  0  0  0  0  0  0  0  0
   14.6185   24.9154   -3.4748 C   0  0  0  0  0  0  0  0  0  0  0  0
   14.5654   26.7795   -5.0170 O   0  0  0  0  0  0  0  0  0  0  0  0
   15.0334   26.6697   -6.3406 C   0  0  0  0  0  0  0  0  0  0  0  0
   15.6061   25.4206   -6.5680 F   0  0  0  0  0  0  0  0  0  0  0  0
   13.9869   26.7828   -7.2566 F   0  0  0  0  0  0  0  0  0  0  0  0
   15.9778   27.6204   -6.6687 F   0  0  0  0  0  0  0  0  0  0  0  0
    9.6281   22.4020    3.9082 O   0  0  0  0  0  0  0  0  0  0  0  0
    9.8311   21.7948    5.1907 C   0  0  0  0  0  0  0  0  0  0  0  0
    9.1994   22.6484    6.2350 C   0  0  0  0  0  0  0  0  0  0  0  0
    8.6907   23.9633    5.6737 C   0  0  0  0  0  0  0  0  0  0  0  0
    7.3174   24.2988    6.2590 C   0  0  0  0  0  0  0  0  0  0  0  0
    6.3349   24.2913    5.1310 C   0  0  0  0  0  0  0  0  0  0  0  0
    5.7734   25.5829    4.9073 N   0  0  0  0  0  0  0  0  0  0  0  0
    4.5434   25.8811    5.5554 C   0  0  0  0  0  0  0  0  0  0  0  0
    3.8595   24.7922    6.0406 F   0  0  0  0  0  0  0  0  0  0  0  0
    3.7002   26.6245    4.7633 F   0  0  0  0  0  0  0  0  0  0  0  0
    4.8050   26.6511    6.7354 F   0  0  0  0  0  0  0  0  0  0  0  0
    6.7503   26.6262    5.2584 C   0  0  0  0  0  0  0  0  0  0  0  0
    8.8151   27.2479    4.0859 C   0  0  0  0  0  0  0  0  0  0  0  0
    7.3010   27.2513    3.9934 C   0  0  0  0  0  0  0  0  0  0  0  0
 37 38  1  0  0  0
 38 36  1  0  0  0
 36 31  1  0  0  0
 31 30  1  0  0  0
 30 29  1  0  0  0
 29 28  1  0  0  0
 28 27  1  0  0  0
 27 26  1  0  0  0
 26 25  1  0  0  0
 25  1  1  0  0  0
  1  2  2  0  0  0
  2  3  1  0  0  0
  3  4  2  0  0  0
  4  5  1  0  0  0
  5  6  2  0  0  0
  4  7  1  0  0  0
  7  8  1  0  0  0
  7  9  1  0  0  0
  7 10  1  0  0  0
 10 11  1  0  0  0
 11 12  2  0  0  0
 11 14  1  0  0  0
 14 15  2  0  0  0
 15 16  1  0  0  0
 16 17  2  0  0  0
 17 18  1  0  0  0
 18 20  1  0  0  0
 20 21  1  0  0  0
 21 22  1  0  0  0
 21 23  1  0  0  0
 21 24  1  0  0  0
 18 19  2  0  0  0
 31 32  1  0  0  0
 32 33  1  0  0  0
 32 34  1  0  0  0
 32 35  1  0  0  0
  6  1  1  0  0  0
 19 14  1  0  0  0
 10 13  1  0  0  0
M  END
> <minimizedAffinity>
-8.33771

> <CNNscore>
0.1311267316

> <CNNaffinity>
6.5434274673

> <CNN_VS>
0.8580182791

> <CNNaffinity_variance>
0.1130557284

$$$$
[H]c1c([H])c(OC(F)(F)F)c([H])c(C(=O)N([H])C(c2c([H])c([H])c(OC([H])([H])C([H])([H])C([H])([H])C([H])([H])C([H])([H])N(C(F)(F)F)C([H])([H])C([H])([H])C([H])([H])[H])c([H])c2[H])(C([H])([H])[H])C([H])([H])[H])c1[H]


 38 39  0  0  0  0  0  0  0  0999 V2000
   10.7421   21.5890    3.3244 C   0  0  0  0  0  0  0  0  0  0  0  0
   11.6130   20.5338    3.2086 C   0  0  0  0  0  0  0  0  0  0  0  0
   12.5086   20.5155    2.1325 C   0  0  0  0  0  0  0  0  0  0  0  0
   12.5468   21.5022    1.2022 C   0  0  0  0  0  0  0  0  0  0  0  0
   11.6675   22.5517    1.3361 C   0  0  0  0  0  0  0  0  0  0  0  0
   10.7660   22.6151    2.3778 C   0  0  0  0  0  0  0  0  0  0  0  0
   13.4588   21.4930    0.0370 C   0  0  0  0  0  0  0  0  0  0  0  0
   14.8720   21.3362    0.6701 C   0  0  0  0  0  0  0  0  0  0  0  0
   13.1128   20.2683   -0.7846 C   0  0  0  0  0  0  0  0  0  0  0  0
   13.4826   22.7032   -0.7131 N   0  0  0  0  0  0  0  0  0  0  0  0
   14.0636   22.8819   -2.0040 C   0  0  0  0  0  0  0  0  0  0  0  0
   14.6255   21.9254   -2.5683 O   0  0  0  0  0  0  0  0  0  0  0  0
   13.0307   23.5678   -0.2977 H   0  0  0  0  0  0  0  0  0  0  0  0
   14.0247   24.1561   -2.6928 C   0  0  0  0  0  0  0  0  0  0  0  0
   13.1232   25.1204   -2.3382 C   0  0  0  0  0  0  0  0  0  0  0  0
   13.0860   26.3632   -2.9956 C   0  0  0  0  0  0  0  0  0  0  0  0
   13.9851   26.5998   -4.0193 C   0  0  0  0  0  0  0  0  0  0  0  0
   14.9170   25.6288   -4.4004 C   0  0  0  0  0  0  0  0  0  0  0  0
   14.9176   24.4252   -3.7279 C   0  0  0  0  0  0  0  0  0  0  0  0
   15.7994   25.9046   -5.4280 O   0  0  0  0  0  0  0  0  0  0  0  0
   15.5969   26.8559   -6.4464 C   0  0  0  0  0  0  0  0  0  0  0  0
   16.3425   26.5430   -7.5804 F   0  0  0  0  0  0  0  0  0  0  0  0
   14.2642   26.8770   -6.8591 F   0  0  0  0  0  0  0  0  0  0  0  0
   15.9368   28.1397   -6.0727 F   0  0  0  0  0  0  0  0  0  0  0  0
    9.8184   21.6655    4.3793 O   0  0  0  0  0  0  0  0  0  0  0  0
    8.9460   22.8028    4.3929 C   0  0  0  0  0  0  0  0  0  0  0  0
    8.4629   23.0246    5.7841 C   0  0  0  0  0  0  0  0  0  0  0  0
    8.0710   24.4691    6.0342 C   0  0  0  0  0  0  0  0  0  0  0  0
    6.5626   24.6524    5.8551 C   0  0  0  0  0  0  0  0  0  0  0  0
    6.3545   25.4942    4.6362 C   0  0  0  0  0  0  0  0  0  0  0  0
    7.0089   26.7567    4.7447 N   0  0  0  0  0  0  0  0  0  0  0  0
    7.9527   27.0915    3.7353 C   0  0  0  0  0  0  0  0  0  0  0  0
    9.2637   27.1188    4.1468 F   0  0  0  0  0  0  0  0  0  0  0  0
    7.6532   28.2797    3.1109 F   0  0  0  0  0  0  0  0  0  0  0  0
    7.9507   26.0715    2.7286 F   0  0  0  0  0  0  0  0  0  0  0  0
    6.0125   27.8366    4.8281 C   0  0  0  0  0  0  0  0  0  0  0  0
    4.3565   28.3813    3.1001 C   0  0  0  0  0  0  0  0  0  0  0  0
    4.7188   27.3834    4.1837 C   0  0  0  0  0  0  0  0  0  0  0  0
 37 38  1  0  0  0
 38 36  1  0  0  0
 36 31  1  0  0  0
 31 30  1  0  0  0
 30 29  1  0  0  0
 29 28  1  0  0  0
 28 27  1  0  0  0
 27 26  1  0  0  0
 26 25  1  0  0  0
 25  1  1  0  0  0
  1  2  2  0  0  0
  2  3  1  0  0  0
  3  4  2  0  0  0
  4  5  1  0  0  0
  5  6  2  0  0  0
  4  7  1  0  0  0
  7  8  1  0  0  0
  7  9  1  0  0  0
  7 10  1  0  0  0
 10 11  1  0  0  0
 11 12  2  0  0  0
 11 14  1  0  0  0
 14 15  2  0  0  0
 15 16  1  0  0  0
 16 17  2  0  0  0
 17 18  1  0  0  0
 18 20  1  0  0  0
 20 21  1  0  0  0
 21 22  1  0  0  0
 21 23  1  0  0  0
 21 24  1  0  0  0
 18 19  2  0  0  0
 31 32  1  0  0  0
 32 33  1  0  0  0
 32 34  1  0  0  0
 32 35  1  0  0  0
  6  1  1  0  0  0
 19 14  1  0  0  0
 10 13  1  0  0  0
M  END
> <minimizedAffinity>
-9.10442

> <CNNscore>
0.1264489889

> <CNNaffinity>
6.4691276550

> <CNN_VS>
0.8180146217

> <CNNaffinity_variance>
0.1741715372

$$$$
[H]c1c([H])c(OC(F)(F)F)c([H])c(C(=O)N([H])C(c2c([H])c([H])c(OC([H])([H])C([H])([H])C([H])([H])C([H])([H])C([H])([H])N(C(F)(F)F)C([H])([H])C([H])([H])C([H])([H])[H])c([H])c2[H])(C([H])([H])[H])C([H])([H])[H])c1[H]


 38 39  0  0  0  0  0  0  0  0999 V2000
   11.0798   22.1541    1.7935 C   0  0  0  0  0  0  0  0  0  0  0  0
   10.4236   23.3545    1.9111 C   0  0  0  0  0  0  0  0  0  0  0  0
    9.5824   23.5565    3.0120 C   0  0  0  0  0  0  0  0  0  0  0  0
    9.3938   22.6101    3.9656 C   0  0  0  0  0  0  0  0  0  0  0  0
   10.0612   21.4146    3.8311 C   0  0  0  0  0  0  0  0  0  0  0  0
   10.8998   21.1673    2.7647 C   0  0  0  0  0  0  0  0  0  0  0  0
    8.4861   22.7828    5.1213 C   0  0  0  0  0  0  0  0  0  0  0  0
    7.6951   21.4436    5.1783 C   0  0  0  0  0  0  0  0  0  0  0  0
    9.3593   22.9295    6.3503 C   0  0  0  0  0  0  0  0  0  0  0  0
    7.5200   23.8184    4.9731 N   0  0  0  0  0  0  0  0  0  0  0  0
    7.7338   25.2090    5.2104 C   0  0  0  0  0  0  0  0  0  0  0  0
    8.8480   25.6076    5.5957 O   0  0  0  0  0  0  0  0  0  0  0  0
    6.5420   23.5597    4.6551 H   0  0  0  0  0  0  0  0  0  0  0  0
    6.6848   26.1899    5.0182 C   0  0  0  0  0  0  0  0  0  0  0  0
    6.0465   26.7561    6.0860 C   0  0  0  0  0  0  0  0  0  0  0  0
    5.0342   27.7160    5.9074 C   0  0  0  0  0  0  0  0  0  0  0  0
    4.6882   28.0841    4.6203 C   0  0  0  0  0  0  0  0  0  0  0  0
    5.3268   27.5190    3.5115 C   0  0  0  0  0  0  0  0  0  0  0  0
    6.3136   26.5823    3.7338 C   0  0  0  0  0  0  0  0  0  0  0  0
    4.9524   27.9146    2.2410 O   0  0  0  0  0  0  0  0  0  0  0  0
    5.5918   28.9056    1.4715 C   0  0  0  0  0  0  0  0  0  0  0  0
    5.5734   28.5789    0.1177 F   0  0  0  0  0  0  0  0  0  0  0  0
    4.9322   30.1305    1.5780 F   0  0  0  0  0  0  0  0  0  0  0  0
    6.9091   29.1104    1.8267 F   0  0  0  0  0  0  0  0  0  0  0  0
   11.9357   21.8888    0.7124 O   0  0  0  0  0  0  0  0  0  0  0  0
   11.5832   20.7881   -0.1356 C   0  0  0  0  0  0  0  0  0  0  0  0
   10.4107   21.1756   -0.9681 C   0  0  0  0  0  0  0  0  0  0  0  0
    9.1065   20.6326   -0.4143 C   0  0  0  0  0  0  0  0  0  0  0  0
    8.2571   20.0335   -1.5371 C   0  0  0  0  0  0  0  0  0  0  0  0
    6.9221   19.6909   -0.9558 C   0  0  0  0  0  0  0  0  0  0  0  0
    6.3539   18.5380   -1.5737 N   0  0  0  0  0  0  0  0  0  0  0  0
    6.3927   17.3194   -0.8422 C   0  0  0  0  0  0  0  0  0  0  0  0
    5.4662   16.3788   -1.2238 F   0  0  0  0  0  0  0  0  0  0  0  0
    6.2967   17.5194    0.5150 F   0  0  0  0  0  0  0  0  0  0  0  0
    7.6419   16.6608   -1.0862 F   0  0  0  0  0  0  0  0  0  0  0  0
    4.9589   18.8068   -1.9582 C   0  0  0  0  0  0  0  0  0  0  0  0
    3.6118   19.5990   -3.8510 C   0  0  0  0  0  0  0  0  0  0  0  0
    4.9317   19.7735   -3.1240 C   0  0  0  0  0  0  0  0  0  0  0  0
 37 38  1  0  0  0
 38 36  1  0  0  0
 36 31  1  0  0  0
 31 30  1  0  0  0
 30 29  1  0  0  0
 29 28  1  0  0  0
 28 27  1  0  0  0
 27 26  1  0  0  0
 26 25  1  0  0  0
 25  1  1  0  0  0
  1  2  2  0  0  0
  2  3  1  0  0  0
  3  4  2  0  0  0
  4  5  1  0  0  0
  5  6  2  0  0  0
  4  7  1  0  0  0
  7  8  1  0  0  0
  7  9  1  0  0  0
  7 10  1  0  0  0
 10 11  1  0  0  0
 11 12  2  0  0  0
 11 14  1  0  0  0
 14 15  2  0  0  0
 15 16  1  0  0  0
 16 17  2  0  0  0
 17 18  1  0  0  0
 18 20  1  0  0  0
 20 21  1  0  0  0
 21 22  1  0  0  0
 21 23  1  0  0  0
 21 24  1  0  0  0
 18 19  2  0  0  0
 31 32  1  0  0  0
 32 33  1  0  0  0
 32 34  1  0  0  0
 32 35  1  0  0  0
  6  1  1  0  0  0
 19 14  1  0  0  0
 10 13  1  0  0  0
M  END
> <minimizedAffinity>
-6.82964

> <CNNscore>
0.1260248274

> <CNNaffinity>
5.7972650528

> <CNN_VS>
0.7305993438

> <CNNaffinity_variance>
0.5218534470

$$$$
[H]c1c([H])c(OC(F)(F)F)c([H])c(C(=O)N([H])C(c2c([H])c([H])c(OC([H])([H])C([H])([H])C([H])([H])C([H])([H])C([H])([H])N(C(F)(F)F)C([H])([H])C([H])([H])C([H])([H])[H])c([H])c2[H])(C([H])([H])[H])C([H])([H])[H])c1[H]


 38 39  0  0  0  0  0  0  0  0999 V2000
    9.6812   23.4313    2.7436 C   0  0  0  0  0  0  0  0  0  0  0  0
   10.2595   22.2139    3.0060 C   0  0  0  0  0  0  0  0  0  0  0  0
   11.2469   21.7364    2.1356 C   0  0  0  0  0  0  0  0  0  0  0  0
   11.6524   22.4333    1.0445 C   0  0  0  0  0  0  0  0  0  0  0  0
   11.0623   23.6516    0.7992 C   0  0  0  0  0  0  0  0  0  0  0  0
   10.0851   24.1645    1.6261 C   0  0  0  0  0  0  0  0  0  0  0  0
   12.6689   21.9391    0.0895 C   0  0  0  0  0  0  0  0  0  0  0  0
   13.6548   21.1282    0.9799 C   0  0  0  0  0  0  0  0  0  0  0  0
   11.9548   21.0170   -0.8772 C   0  0  0  0  0  0  0  0  0  0  0  0
   13.4378   22.9561   -0.5445 N   0  0  0  0  0  0  0  0  0  0  0  0
   14.1773   22.8194   -1.7572 C   0  0  0  0  0  0  0  0  0  0  0  0
   14.1952   21.7263   -2.3519 O   0  0  0  0  0  0  0  0  0  0  0  0
   13.4800   23.9159   -0.0957 H   0  0  0  0  0  0  0  0  0  0  0  0
   14.9214   23.9228   -2.3302 C   0  0  0  0  0  0  0  0  0  0  0  0
   15.6724   24.7495   -1.5424 C   0  0  0  0  0  0  0  0  0  0  0  0
   16.4050   25.8166   -2.0927 C   0  0  0  0  0  0  0  0  0  0  0  0
   16.3547   26.0213   -3.4593 C   0  0  0  0  0  0  0  0  0  0  0  0
   15.5933   25.1888   -4.2863 C   0  0  0  0  0  0  0  0  0  0  0  0
   14.8916   24.1550   -3.7037 C   0  0  0  0  0  0  0  0  0  0  0  0
   15.5700   25.4264   -5.6478 O   0  0  0  0  0  0  0  0  0  0  0  0
   15.3736   26.6814   -6.2557 C   0  0  0  0  0  0  0  0  0  0  0  0
   14.0404   26.8605   -6.6169 F   0  0  0  0  0  0  0  0  0  0  0  0
   15.6738   27.7209   -5.3747 F   0  0  0  0  0  0  0  0  0  0  0  0
   16.1351   26.8656   -7.3912 F   0  0  0  0  0  0  0  0  0  0  0  0
    8.6845   23.9647    3.5765 O   0  0  0  0  0  0  0  0  0  0  0  0
    9.0645   24.2705    4.9245 C   0  0  0  0  0  0  0  0  0  0  0  0
    8.6015   25.6465    5.2567 C   0  0  0  0  0  0  0  0  0  0  0  0
    8.9052   26.6393    4.1500 C   0  0  0  0  0  0  0  0  0  0  0  0
    7.6589   27.4593    3.8106 C   0  0  0  0  0  0  0  0  0  0  0  0
    6.5745   26.4964    3.4437 C   0  0  0  0  0  0  0  0  0  0  0  0
    5.2801   27.0151    3.7429 N   0  0  0  0  0  0  0  0  0  0  0  0
    4.8061   26.8587    5.0743 C   0  0  0  0  0  0  0  0  0  0  0  0
    5.1216   27.8856    5.9314 F   0  0  0  0  0  0  0  0  0  0  0  0
    5.2026   25.6675    5.6354 F   0  0  0  0  0  0  0  0  0  0  0  0
    3.3730   26.8691    5.0704 F   0  0  0  0  0  0  0  0  0  0  0  0
    5.2136   28.4420    3.3888 C   0  0  0  0  0  0  0  0  0  0  0  0
    5.6806   29.1763    1.0937 C   0  0  0  0  0  0  0  0  0  0  0  0
    4.6169   28.5935    2.0048 C   0  0  0  0  0  0  0  0  0  0  0  0
 37 38  1  0  0  0
 38 36  1  0  0  0
 36 31  1  0  0  0
 31 30  1  0  0  0
 30 29  1  0  0  0
 29 28  1  0  0  0
 28 27  1  0  0  0
 27 26  1  0  0  0
 26 25  1  0  0  0
 25  1  1  0  0  0
  1  2  2  0  0  0
  2  3  1  0  0  0
  3  4  2  0  0  0
  4  5  1  0  0  0
  5  6  2  0  0  0
  4  7  1  0  0  0
  7  8  1  0  0  0
  7  9  1  0  0  0
  7 10  1  0  0  0
 10 11  1  0  0  0
 11 12  2  0  0  0
 11 14  1  0  0  0
 14 15  2  0  0  0
 15 16  1  0  0  0
 16 17  2  0  0  0
 17 18  1  0  0  0
 18 20  1  0  0  0
 20 21  1  0  0  0
 21 22  1  0  0  0
 21 23  1  0  0  0
 21 24  1  0  0  0
 18 19  2  0  0  0
 31 32  1  0  0  0
 32 33  1  0  0  0
 32 34  1  0  0  0
 32 35  1  0  0  0
  6  1  1  0  0  0
 19 14  1  0  0  0
 10 13  1  0  0  0
M  END
> <minimizedAffinity>
-9.04365

> <CNNscore>
0.1232265383

> <CNNaffinity>
6.4039893150

> <CNN_VS>
0.7891414165

> <CNNaffinity_variance>
0.1707441956

$$$$
[H]c1c([H])c(OC(F)(F)F)c([H])c(C(=O)N([H])C(c2c([H])c([H])c(OC([H])([H])C([H])([H])C([H])([H])C([H])([H])C([H])([H])N(C(F)(F)F)C([H])([H])C([H])([H])C([H])([H])[H])c([H])c2[H])(C([H])([H])[H])C([H])([H])[H])c1[H]


 38 39  0  0  0  0  0  0  0  0999 V2000
   11.6246   20.2845    2.5918 C   0  0  0  0  0  0  0  0  0  0  0  0
   11.0688   19.7844    1.4401 C   0  0  0  0  0  0  0  0  0  0  0  0
   10.8427   20.6566    0.3684 C   0  0  0  0  0  0  0  0  0  0  0  0
   11.1537   21.9758    0.4270 C   0  0  0  0  0  0  0  0  0  0  0  0
   11.7112   22.4577    1.5887 C   0  0  0  0  0  0  0  0  0  0  0  0
   11.9527   21.6393    2.6721 C   0  0  0  0  0  0  0  0  0  0  0  0
   10.8957   22.9270   -0.6767 C   0  0  0  0  0  0  0  0  0  0  0  0
   10.4924   22.0133   -1.8705 C   0  0  0  0  0  0  0  0  0  0  0  0
    9.7222   23.7863   -0.2535 C   0  0  0  0  0  0  0  0  0  0  0  0
   12.0324   23.6717   -1.1021 N   0  0  0  0  0  0  0  0  0  0  0  0
   13.2571   23.1300   -1.5948 C   0  0  0  0  0  0  0  0  0  0  0  0
   13.4029   21.8964   -1.6701 O   0  0  0  0  0  0  0  0  0  0  0  0
   11.9909   24.7304   -1.0616 H   0  0  0  0  0  0  0  0  0  0  0  0
   14.3553   23.9762   -2.0160 C   0  0  0  0  0  0  0  0  0  0  0  0
   15.2554   24.4638   -1.1103 C   0  0  0  0  0  0  0  0  0  0  0  0
   16.3295   25.2776   -1.5129 C   0  0  0  0  0  0  0  0  0  0  0  0
   16.4646   25.5824   -2.8549 C   0  0  0  0  0  0  0  0  0  0  0  0
   15.5564   25.0954   -3.8008 C   0  0  0  0  0  0  0  0  0  0  0  0
   14.5191   24.3010   -3.3610 C   0  0  0  0  0  0  0  0  0  0  0  0
   15.7270   25.4223   -5.1329 O   0  0  0  0  0  0  0  0  0  0  0  0
   15.1762   26.5477   -5.7757 C   0  0  0  0  0  0  0  0  0  0  0  0
   15.1628   26.3792   -7.1582 F   0  0  0  0  0  0  0  0  0  0  0  0
   13.8461   26.7417   -5.4015 F   0  0  0  0  0  0  0  0  0  0  0  0
   15.8574   27.7180   -5.5113 F   0  0  0  0  0  0  0  0  0  0  0  0
   11.8748   19.4627    3.7025 O   0  0  0  0  0  0  0  0  0  0  0  0
   11.5505   20.0013    4.9908 C   0  0  0  0  0  0  0  0  0  0  0  0
   10.0837   20.2516    5.0545 C   0  0  0  0  0  0  0  0  0  0  0  0
    9.6780   20.9776    6.3237 C   0  0  0  0  0  0  0  0  0  0  0  0
    9.3861   22.4501    6.0273 C   0  0  0  0  0  0  0  0  0  0  0  0
    9.2632   22.5931    4.5433 C   0  0  0  0  0  0  0  0  0  0  0  0
    8.3172   23.5977    4.1832 N   0  0  0  0  0  0  0  0  0  0  0  0
    8.8293   24.8390    3.7157 C   0  0  0  0  0  0  0  0  0  0  0  0
    7.9759   25.5587    2.9141 F   0  0  0  0  0  0  0  0  0  0  0  0
   10.0375   24.6992    3.0738 F   0  0  0  0  0  0  0  0  0  0  0  0
    9.0407   25.7137    4.8310 F   0  0  0  0  0  0  0  0  0  0  0  0
    7.3798   23.0716    3.1779 C   0  0  0  0  0  0  0  0  0  0  0  0
    7.1510   21.5442    1.2702 C   0  0  0  0  0  0  0  0  0  0  0  0
    8.0003   21.8778    2.4821 C   0  0  0  0  0  0  0  0  0  0  0  0
 37 38  1  0  0  0
 38 36  1  0  0  0
 36 31  1  0  0  0
 31 30  1  0  0  0
 30 29  1  0  0  0
 29 28  1  0  0  0
 28 27  1  0  0  0
 27 26  1  0  0  0
 26 25  1  0  0  0
 25  1  1  0  0  0
  1  2  2  0  0  0
  2  3  1  0  0  0
  3  4  2  0  0  0
  4  5  1  0  0  0
  5  6  2  0  0  0
  4  7  1  0  0  0
  7  8  1  0  0  0
  7  9  1  0  0  0
  7 10  1  0  0  0
 10 11  1  0  0  0
 11 12  2  0  0  0
 11 14  1  0  0  0
 14 15  2  0  0  0
 15 16  1  0  0  0
 16 17  2  0  0  0
 17 18  1  0  0  0
 18 20  1  0  0  0
 20 21  1  0  0  0
 21 22  1  0  0  0
 21 23  1  0  0  0
 21 24  1  0  0  0
 18 19  2  0  0  0
 31 32  1  0  0  0
 32 33  1  0  0  0
 32 34  1  0  0  0
 32 35  1  0  0  0
  6  1  1  0  0  0
 19 14  1  0  0  0
 10 13  1  0  0  0
M  END
> <minimizedAffinity>
-7.13587

> <CNNscore>
0.1218603030

> <CNNaffinity>
6.7006521225

> <CNN_VS>
0.8165435195

> <CNNaffinity_variance>
0.3932256103

$$$$
[H]c1c([H])c(OC(F)(F)F)c([H])c(C(=O)N([H])C(c2c([H])c([H])c(OC([H])([H])C([H])([H])C([H])([H])C([H])([H])C([H])([H])N(C(F)(F)F)C([H])([H])C([H])([H])C([H])([H])[H])c([H])c2[H])(C([H])([H])[H])C([H])([H])[H])c1[H]


 38 39  0  0  0  0  0  0  0  0999 V2000
    9.7659   23.6689    3.2987 C   0  0  0  0  0  0  0  0  0  0  0  0
   10.2559   22.3885    3.3755 C   0  0  0  0  0  0  0  0  0  0  0  0
   11.0155   21.8937    2.3084 C   0  0  0  0  0  0  0  0  0  0  0  0
   11.2848   22.6336    1.2036 C   0  0  0  0  0  0  0  0  0  0  0  0
   10.7866   23.9146    1.1460 C   0  0  0  0  0  0  0  0  0  0  0  0
   10.0326   24.4471    2.1705 C   0  0  0  0  0  0  0  0  0  0  0  0
   12.0559   22.1260    0.0472 C   0  0  0  0  0  0  0  0  0  0  0  0
   12.9339   20.9923    0.6523 C   0  0  0  0  0  0  0  0  0  0  0  0
   11.0545   21.5487   -0.9318 C   0  0  0  0  0  0  0  0  0  0  0  0
   12.9529   23.0677   -0.5329 N   0  0  0  0  0  0  0  0  0  0  0  0
   13.8743   22.8104   -1.5916 C   0  0  0  0  0  0  0  0  0  0  0  0
   13.9502   21.6697   -2.0832 O   0  0  0  0  0  0  0  0  0  0  0  0
   12.9552   24.0617   -0.1638 H   0  0  0  0  0  0  0  0  0  0  0  0
   14.7399   23.8439   -2.1228 C   0  0  0  0  0  0  0  0  0  0  0  0
   15.5191   24.6032   -1.2955 C   0  0  0  0  0  0  0  0  0  0  0  0
   16.3689   25.6015   -1.8048 C   0  0  0  0  0  0  0  0  0  0  0  0
   16.4061   25.8077   -3.1716 C   0  0  0  0  0  0  0  0  0  0  0  0
   15.6182   25.0435   -4.0387 C   0  0  0  0  0  0  0  0  0  0  0  0
   14.8002   24.0758   -3.4954 C   0  0  0  0  0  0  0  0  0  0  0  0
   15.6848   25.2802   -5.3989 O   0  0  0  0  0  0  0  0  0  0  0  0
   15.1788   26.4178   -6.0567 C   0  0  0  0  0  0  0  0  0  0  0  0
   15.0566   26.1927   -7.4258 F   0  0  0  0  0  0  0  0  0  0  0  0
   13.8967   26.7329   -5.6053 F   0  0  0  0  0  0  0  0  0  0  0  0
   15.9645   27.5401   -5.8937 F   0  0  0  0  0  0  0  0  0  0  0  0
    8.9961   24.2231    4.3341 O   0  0  0  0  0  0  0  0  0  0  0  0
    8.9137   23.4708    5.5516 C   0  0  0  0  0  0  0  0  0  0  0  0
    7.6498   23.8264    6.2547 C   0  0  0  0  0  0  0  0  0  0  0  0
    6.5461   24.2213    5.2909 C   0  0  0  0  0  0  0  0  0  0  0  0
    5.8538   25.5003    5.7662 C   0  0  0  0  0  0  0  0  0  0  0  0
    5.5507   26.3231    4.5542 C   0  0  0  0  0  0  0  0  0  0  0  0
    6.4086   27.4580    4.4547 N   0  0  0  0  0  0  0  0  0  0  0  0
    7.4868   27.3821    3.5309 C   0  0  0  0  0  0  0  0  0  0  0  0
    7.4115   26.3484    2.6284 F   0  0  0  0  0  0  0  0  0  0  0  0
    8.7111   27.3440    4.1562 F   0  0  0  0  0  0  0  0  0  0  0  0
    7.4747   28.5448    2.6932 F   0  0  0  0  0  0  0  0  0  0  0  0
    5.6193   28.6628    4.1522 C   0  0  0  0  0  0  0  0  0  0  0  0
    4.1189   29.2480    2.3000 C   0  0  0  0  0  0  0  0  0  0  0  0
    4.3453   28.2673    3.4349 C   0  0  0  0  0  0  0  0  0  0  0  0
 37 38  1  0  0  0
 38 36  1  0  0  0
 36 31  1  0  0  0
 31 30  1  0  0  0
 30 29  1  0  0  0
 29 28  1  0  0  0
 28 27  1  0  0  0
 27 26  1  0  0  0
 26 25  1  0  0  0
 25  1  1  0  0  0
  1  2  2  0  0  0
  2  3  1  0  0  0
  3  4  2  0  0  0
  4  5  1  0  0  0
  5  6  2  0  0  0
  4  7  1  0  0  0
  7  8  1  0  0  0
  7  9  1  0  0  0
  7 10  1  0  0  0
 10 11  1  0  0  0
 11 12  2  0  0  0
 11 14  1  0  0  0
 14 15  2  0  0  0
 15 16  1  0  0  0
 16 17  2  0  0  0
 17 18  1  0  0  0
 18 20  1  0  0  0
 20 21  1  0  0  0
 21 22  1  0  0  0
 21 23  1  0  0  0
 21 24  1  0  0  0
 18 19  2  0  0  0
 31 32  1  0  0  0
 32 33  1  0  0  0
 32 34  1  0  0  0
 32 35  1  0  0  0
  6  1  1  0  0  0
 19 14  1  0  0  0
 10 13  1  0  0  0
M  END
> <minimizedAffinity>
-8.71747

> <CNNscore>
0.1171097159

> <CNNaffinity>
6.5122308731

> <CNN_VS>
0.7626454830

> <CNNaffinity_variance>
0.1496796608

$$$$
[H]c1c([H])c(OC(F)(F)F)c([H])c(C(=O)N([H])C(c2c([H])c([H])c(OC([H])([H])C([H])([H])C([H])([H])C([H])([H])C([H])([H])N(C(F)(F)F)C([H])([H])C([H])([H])C([H])([H])[H])c([H])c2[H])(C([H])([H])[H])C([H])([H])[H])c1[H]


 38 39  0  0  0  0  0  0  0  0999 V2000
   10.1726   22.1522    2.0773 C   0  0  0  0  0  0  0  0  0  0  0  0
   10.9552   21.0420    2.2786 C   0  0  0  0  0  0  0  0  0  0  0  0
   12.1045   20.8782    1.4958 C   0  0  0  0  0  0  0  0  0  0  0  0
   12.4721   21.7763    0.5478 C   0  0  0  0  0  0  0  0  0  0  0  0
   11.6761   22.8829    0.3621 C   0  0  0  0  0  0  0  0  0  0  0  0
   10.5341   23.0889    1.1071 C   0  0  0  0  0  0  0  0  0  0  0  0
   13.6621   21.6128   -0.3164 C   0  0  0  0  0  0  0  0  0  0  0  0
   14.7162   20.9541    0.6203 C   0  0  0  0  0  0  0  0  0  0  0  0
   13.2742   20.6562   -1.4250 C   0  0  0  0  0  0  0  0  0  0  0  0
   14.2362   22.8307   -0.7798 N   0  0  0  0  0  0  0  0  0  0  0  0
   14.7286   23.0820   -2.0953 C   0  0  0  0  0  0  0  0  0  0  0  0
   14.6869   22.1828   -2.9546 O   0  0  0  0  0  0  0  0  0  0  0  0
   14.3150   23.6448   -0.1050 H   0  0  0  0  0  0  0  0  0  0  0  0
   15.2858   24.3650   -2.4734 C   0  0  0  0  0  0  0  0  0  0  0  0
   16.2952   24.9348   -1.7491 C   0  0  0  0  0  0  0  0  0  0  0  0
   16.8476   26.1752   -2.1157 C   0  0  0  0  0  0  0  0  0  0  0  0
   16.3494   26.8194   -3.2332 C   0  0  0  0  0  0  0  0  0  0  0  0
   15.3168   26.2566   -3.9906 C   0  0  0  0  0  0  0  0  0  0  0  0
   14.8058   25.0389   -3.5945 C   0  0  0  0  0  0  0  0  0  0  0  0
   14.8472   26.9320   -5.1014 O   0  0  0  0  0  0  0  0  0  0  0  0
   15.1116   26.5866   -6.4407 C   0  0  0  0  0  0  0  0  0  0  0  0
   13.9822   26.7628   -7.2365 F   0  0  0  0  0  0  0  0  0  0  0  0
   16.0971   27.4087   -6.9884 F   0  0  0  0  0  0  0  0  0  0  0  0
   15.5253   25.2799   -6.5984 F   0  0  0  0  0  0  0  0  0  0  0  0
    9.0068   22.3737    2.8280 O   0  0  0  0  0  0  0  0  0  0  0  0
    7.7894   22.5537    2.0928 C   0  0  0  0  0  0  0  0  0  0  0  0
    7.3517   21.2364    1.5529 C   0  0  0  0  0  0  0  0  0  0  0  0
    7.1631   21.2649    0.0475 C   0  0  0  0  0  0  0  0  0  0  0  0
    8.1412   20.3045   -0.6321 C   0  0  0  0  0  0  0  0  0  0  0  0
    7.4195   19.6635   -1.7749 C   0  0  0  0  0  0  0  0  0  0  0  0
    6.0836   19.3065   -1.4260 N   0  0  0  0  0  0  0  0  0  0  0  0
    5.0574   19.6315   -2.3550 C   0  0  0  0  0  0  0  0  0  0  0  0
    5.4966   20.0694   -3.5815 F   0  0  0  0  0  0  0  0  0  0  0  0
    4.1604   20.5422   -1.8479 F   0  0  0  0  0  0  0  0  0  0  0  0
    4.3203   18.4461   -2.6795 F   0  0  0  0  0  0  0  0  0  0  0  0
    6.0063   17.8667   -1.1306 C   0  0  0  0  0  0  0  0  0  0  0  0
    5.9922   16.2373    0.7050 C   0  0  0  0  0  0  0  0  0  0  0  0
    5.6525   17.6670    0.3286 C   0  0  0  0  0  0  0  0  0  0  0  0
 37 38  1  0  0  0
 38 36  1  0  0  0
 36 31  1  0  0  0
 31 30  1  0  0  0
 30 29  1  0  0  0
 29 28  1  0  0  0
 28 27  1  0  0  0
 27 26  1  0  0  0
 26 25  1  0  0  0
 25  1  1  0  0  0
  1  2  2  0  0  0
  2  3  1  0  0  0
  3  4  2  0  0  0
  4  5  1  0  0  0
  5  6  2  0  0  0
  4  7  1  0  0  0
  7  8  1  0  0  0
  7  9  1  0  0  0
  7 10  1  0  0  0
 10 11  1  0  0  0
 11 12  2  0  0  0
 11 14  1  0  0  0
 14 15  2  0  0  0
 15 16  1  0  0  0
 16 17  2  0  0  0
 17 18  1  0  0  0
 18 20  1  0  0  0
 20 21  1  0  0  0
 21 22  1  0  0  0
 21 23  1  0  0  0
 21 24  1  0  0  0
 18 19  2  0  0  0
 31 32  1  0  0  0
 32 33  1  0  0  0
 32 34  1  0  0  0
 32 35  1  0  0  0
  6  1  1  0  0  0
 19 14  1  0  0  0
 10 13  1  0  0  0
M  END
> <minimizedAffinity>
-8.49354

> <CNNscore>
0.1139893159

> <CNNaffinity>
6.8424782753

> <CNN_VS>
0.7799693942

> <CNNaffinity_variance>
0.2080040425

$$$$
[H]c1nc(N([H])c2c([H])c([H])c(N3C([H])([H])C([H])([H])C([H])(N4C([H])([H])C([H])([H])OC([H])([H])C4([H])[H])C([H])([H])C3([H])[H])c([H])c2OC([H])([H])[H])nc(N([H])c2c([H])c([H])c([H])c([H])c2S(=O)(=O)C([H])(C([H])([H])[H])C([H])([H])[H])c1Cl


 43 47  0  0  0  0  0  0  0  0999 V2000
   14.4241   20.8822   -1.1702 N   0  0  0  0  0  0  0  0  0  0  0  0
   14.9459   19.9282   -1.2740 H   0  0  0  0  0  0  0  0  0  0  0  0
   14.7681   21.8228   -2.1595 C   0  0  0  0  0  0  0  0  0  0  0  0
   15.1621   21.3205   -3.3842 N   0  0  0  0  0  0  0  0  0  0  0  0
   15.4876   22.0658   -4.4197 C   0  0  0  0  0  0  0  0  0  0  0  0
   15.4411   23.4371   -4.3046 C   0  0  0  0  0  0  0  0  0  0  0  0
   15.8507   24.4920   -5.6267 Cl  0  0  0  0  0  0  0  0  0  0  0  0
   15.0467   24.0151   -3.0846 C   0  0  0  0  0  0  0  0  0  0  0  0
   14.7363   23.1473   -2.0908 N   0  0  0  0  0  0  0  0  0  0  0  0
   15.0380   25.4096   -3.0019 N   0  0  0  0  0  0  0  0  0  0  0  0
   14.1245   25.8333   -2.6466 H   0  0  0  0  0  0  0  0  0  0  0  0
   16.0293   26.3696   -3.2856 C   0  0  0  0  0  0  0  0  0  0  0  0
   17.1472   26.5421   -2.5117 C   0  0  0  0  0  0  0  0  0  0  0  0
   18.0537   27.5406   -2.7977 C   0  0  0  0  0  0  0  0  0  0  0  0
   17.8775   28.3949   -3.8569 C   0  0  0  0  0  0  0  0  0  0  0  0
   16.7513   28.2355   -4.6524 C   0  0  0  0  0  0  0  0  0  0  0  0
   15.8403   27.2420   -4.3754 C   0  0  0  0  0  0  0  0  0  0  0  0
   14.4749   27.1074   -5.4388 S   0  0  0  0  0  0  0  0  0  0  0  0
   14.5195   28.0394   -6.6109 O   0  0  0  0  0  0  0  0  0  0  0  0
   14.5023   25.7056   -6.0609 O   0  0  0  0  0  0  0  0  0  0  0  0
   12.9513   27.2873   -4.5825 C   0  0  0  0  0  0  0  0  0  0  0  0
   12.8026   26.1311   -3.5604 C   0  0  0  0  0  0  0  0  0  0  0  0
   12.8064   28.6121   -3.8842 C   0  0  0  0  0  0  0  0  0  0  0  0
   13.9348   21.7463    1.0043 C   0  0  0  0  0  0  0  0  0  0  0  0
   13.0602   21.8700    2.0574 C   0  0  0  0  0  0  0  0  0  0  0  0
   11.8139   21.2516    2.0800 C   0  0  0  0  0  0  0  0  0  0  0  0
   11.4606   20.4909    0.9990 C   0  0  0  0  0  0  0  0  0  0  0  0
   12.3247   20.3397   -0.0969 C   0  0  0  0  0  0  0  0  0  0  0  0
   13.5478   20.9636   -0.0881 C   0  0  0  0  0  0  0  0  0  0  0  0
   10.9214   21.3719    3.1787 N   0  0  0  0  0  0  0  0  0  0  0  0
    9.9830   22.4943    3.2560 C   0  0  0  0  0  0  0  0  0  0  0  0
    8.8737   22.1525    4.2494 C   0  0  0  0  0  0  0  0  0  0  0  0
    8.3859   20.7580    3.9840 C   0  0  0  0  0  0  0  0  0  0  0  0
    9.4773   19.8162    4.4463 C   0  0  0  0  0  0  0  0  0  0  0  0
   10.8523   20.4332    4.2644 C   0  0  0  0  0  0  0  0  0  0  0  0
    7.1952   20.4634    4.7331 N   0  0  0  0  0  0  0  0  0  0  0  0
    7.0737   19.0135    4.9328 C   0  0  0  0  0  0  0  0  0  0  0  0
    5.8390   18.8104    5.7936 C   0  0  0  0  0  0  0  0  0  0  0  0
    4.6886   19.2457    5.1455 O   0  0  0  0  0  0  0  0  0  0  0  0
    4.8249   20.6189    4.9785 C   0  0  0  0  0  0  0  0  0  0  0  0
    5.9836   20.8495    4.0317 C   0  0  0  0  0  0  0  0  0  0  0  0
   16.3305   21.5929    1.2608 C   0  0  0  0  0  0  0  0  0  0  0  0
   15.1739   22.3641    0.9878 O   0  0  0  0  0  0  0  0  0  0  0  0
 42 43  1  0  0  0
 43 24  1  0  0  0
 24 25  2  0  0  0
 25 26  1  0  0  0
 26 27  2  0  0  0
 27 28  1  0  0  0
 28 29  2  0  0  0
 29  1  1  0  0  0
  1  3  1  0  0  0
  3  4  2  0  0  0
  4  5  1  0  0  0
  5  6  2  0  0  0
  6  7  1  0  0  0
  6  8  1  0  0  0
  8 10  1  0  0  0
 10 12  1  0  0  0
 12 13  2  0  0  0
 13 14  1  0  0  0
 14 15  2  0  0  0
 15 16  1  0  0  0
 16 17  2  0  0  0
 17 18  1  0  0  0
 18 19  2  0  0  0
 18 20  2  0  0  0
 18 21  1  0  0  0
 21 22  1  0  0  0
 21 23  1  0  0  0
  8  9  2  0  0  0
 26 30  1  0  0  0
 30 31  1  0  0  0
 31 32  1  0  0  0
 32 33  1  0  0  0
 33 34  1  0  0  0
 34 35  1  0  0  0
 33 36  1  0  0  0
 36 37  1  0  0  0
 37 38  1  0  0  0
 38 39  1  0  0  0
 39 40  1  0  0  0
 40 41  1  0  0  0
 29 24  1  0  0  0
  9  3  1  0  0  0
 35 30  1  0  0  0
 41 36  1  0  0  0
 17 12  1  0  0  0
  1  2  1  0  0  0
 10 11  1  0  0  0
M  END
> <minimizedAffinity>
-0.76566

> <CNNscore>
0.5801827312

> <CNNaffinity>
7.8226141930

> <CNN_VS>
4.5385456085

> <CNNaffinity_variance>
0.2047317922

$$$$
[H]c1nc(N([H])c2c([H])c([H])c(N3C([H])([H])C([H])([H])C([H])(N4C([H])([H])C([H])([H])OC([H])([H])C4([H])[H])C([H])([H])C3([H])[H])c([H])c2OC([H])([H])[H])nc(N([H])c2c([H])c([H])c([H])c([H])c2S(=O)(=O)C([H])(C([H])([H])[H])C([H])([H])[H])c1Cl


 43 47  0  0  0  0  0  0  0  0999 V2000
   14.4557   21.2209   -1.2318 N   0  0  0  0  0  0  0  0  0  0  0  0
   15.1123   20.3699   -1.0371 H   0  0  0  0  0  0  0  0  0  0  0  0
   14.7922   21.9372   -2.3959 C   0  0  0  0  0  0  0  0  0  0  0  0
   15.0545   21.1929   -3.5294 N   0  0  0  0  0  0  0  0  0  0  0  0
   15.3547   21.7111   -4.7020 C   0  0  0  0  0  0  0  0  0  0  0  0
   15.4181   23.0798   -4.8378 C   0  0  0  0  0  0  0  0  0  0  0  0
   15.8031   23.8434   -6.3536 Cl  0  0  0  0  0  0  0  0  0  0  0  0
   15.1606   23.8976   -3.7229 C   0  0  0  0  0  0  0  0  0  0  0  0
   14.8633   23.2505   -2.5697 N   0  0  0  0  0  0  0  0  0  0  0  0
   15.2609   25.2800   -3.8971 N   0  0  0  0  0  0  0  0  0  0  0  0
   16.2320   25.6295   -4.1711 H   0  0  0  0  0  0  0  0  0  0  0  0
   14.3024   26.3075   -3.7955 C   0  0  0  0  0  0  0  0  0  0  0  0
   13.0822   26.1360   -3.1955 C   0  0  0  0  0  0  0  0  0  0  0  0
   12.1554   27.1565   -3.1812 C   0  0  0  0  0  0  0  0  0  0  0  0
   12.4118   28.3735   -3.7608 C   0  0  0  0  0  0  0  0  0  0  0  0
   13.6424   28.5663   -4.3731 C   0  0  0  0  0  0  0  0  0  0  0  0
   14.5744   27.5540   -4.3929 C   0  0  0  0  0  0  0  0  0  0  0  0
   16.0919   27.8962   -5.1632 S   0  0  0  0  0  0  0  0  0  0  0  0
   16.5711   26.8106   -6.0777 O   0  0  0  0  0  0  0  0  0  0  0  0
   15.8888   29.1092   -6.0796 O   0  0  0  0  0  0  0  0  0  0  0  0
   17.3451   28.3027   -4.0008 C   0  0  0  0  0  0  0  0  0  0  0  0
   16.6992   28.5029   -2.6056 C   0  0  0  0  0  0  0  0  0  0  0  0
   18.4430   27.2774   -3.9163 C   0  0  0  0  0  0  0  0  0  0  0  0
   13.6837   22.3289    0.7407 C   0  0  0  0  0  0  0  0  0  0  0  0
   12.6779   22.5628    1.6479 C   0  0  0  0  0  0  0  0  0  0  0  0
   11.4396   21.9316    1.5809 C   0  0  0  0  0  0  0  0  0  0  0  0
   11.2321   21.0425    0.5619 C   0  0  0  0  0  0  0  0  0  0  0  0
   12.2332   20.7762   -0.3854 C   0  0  0  0  0  0  0  0  0  0  0  0
   13.4443   21.4160   -0.2913 C   0  0  0  0  0  0  0  0  0  0  0  0
   10.4099   22.1672    2.5309 N   0  0  0  0  0  0  0  0  0  0  0  0
    9.5117   23.3155    2.3859 C   0  0  0  0  0  0  0  0  0  0  0  0
    8.2650   23.0873    3.2389 C   0  0  0  0  0  0  0  0  0  0  0  0
    7.7672   21.6882    3.0210 C   0  0  0  0  0  0  0  0  0  0  0  0
    8.7494   20.7616    3.7056 C   0  0  0  0  0  0  0  0  0  0  0  0
   10.1582   21.3260    3.6684 C   0  0  0  0  0  0  0  0  0  0  0  0
    6.4750   21.4883    3.6178 N   0  0  0  0  0  0  0  0  0  0  0  0
    6.3428   22.3217    4.8197 C   0  0  0  0  0  0  0  0  0  0  0  0
    4.9290   22.1021    5.3293 C   0  0  0  0  0  0  0  0  0  0  0  0
    4.7228   20.7801    5.7070 O   0  0  0  0  0  0  0  0  0  0  0  0
    4.8432   20.0161    4.5520 C   0  0  0  0  0  0  0  0  0  0  0  0
    6.2779   20.1260    4.0809 C   0  0  0  0  0  0  0  0  0  0  0  0
   16.0679   22.1875    1.0939 C   0  0  0  0  0  0  0  0  0  0  0  0
   14.9141   22.9600    0.8128 O   0  0  0  0  0  0  0  0  0  0  0  0
 42 43  1  0  0  0
 43 24  1  0  0  0
 24 25  2  0  0  0
 25 26  1  0  0  0
 26 27  2  0  0  0
 27 28  1  0  0  0
 28 29  2  0  0  0
 29  1  1  0  0  0
  1  3  1  0  0  0
  3  4  2  0  0  0
  4  5  1  0  0  0
  5  6  2  0  0  0
  6  7  1  0  0  0
  6  8  1  0  0  0
  8 10  1  0  0  0
 10 12  1  0  0  0
 12 13  2  0  0  0
 13 14  1  0  0  0
 14 15  2  0  0  0
 15 16  1  0  0  0
 16 17  2  0  0  0
 17 18  1  0  0  0
 18 19  2  0  0  0
 18 20  2  0  0  0
 18 21  1  0  0  0
 21 22  1  0  0  0
 21 23  1  0  0  0
  8  9  2  0  0  0
 26 30  1  0  0  0
 30 31  1  0  0  0
 31 32  1  0  0  0
 32 33  1  0  0  0
 33 34  1  0  0  0
 34 35  1  0  0  0
 33 36  1  0  0  0
 36 37  1  0  0  0
 37 38  1  0  0  0
 38 39  1  0  0  0
 39 40  1  0  0  0
 40 41  1  0  0  0
 29 24  1  0  0  0
  9  3  1  0  0  0
 35 30  1  0  0  0
 41 36  1  0  0  0
 17 12  1  0  0  0
  1  2  1  0  0  0
 10 11  1  0  0  0
M  END
> <minimizedAffinity>
4.23962

> <CNNscore>
0.5077352524

> <CNNaffinity>
7.6733918190

> <CNN_VS>
3.8960516453

> <CNNaffinity_variance>
0.2746213377

$$$$
[H]c1nc(N([H])c2c([H])c([H])c(N3C([H])([H])C([H])([H])C([H])(N4C([H])([H])C([H])([H])OC([H])([H])C4([H])[H])C([H])([H])C3([H])[H])c([H])c2OC([H])([H])[H])nc(N([H])c2c([H])c([H])c([H])c([H])c2S(=O)(=O)C([H])(C([H])([H])[H])C([H])([H])[H])c1Cl


 43 47  0  0  0  0  0  0  0  0999 V2000
   13.8776   22.2234   -0.6821 N   0  0  0  0  0  0  0  0  0  0  0  0
   13.9296   21.3364   -1.3174 H   0  0  0  0  0  0  0  0  0  0  0  0
   15.0121   23.0515   -0.7772 C   0  0  0  0  0  0  0  0  0  0  0  0
   15.8289   23.1164    0.3346 N   0  0  0  0  0  0  0  0  0  0  0  0
   16.9399   23.8204    0.3966 C   0  0  0  0  0  0  0  0  0  0  0  0
   17.3389   24.5483   -0.7020 C   0  0  0  0  0  0  0  0  0  0  0  0
   18.7959   25.5002   -0.7030 Cl  0  0  0  0  0  0  0  0  0  0  0  0
   16.5535   24.5256   -1.8685 C   0  0  0  0  0  0  0  0  0  0  0  0
   15.4323   23.7661   -1.8130 N   0  0  0  0  0  0  0  0  0  0  0  0
   16.9801   25.2983   -2.9513 N   0  0  0  0  0  0  0  0  0  0  0  0
   17.5627   24.7736   -3.6763 H   0  0  0  0  0  0  0  0  0  0  0  0
   16.7652   26.6521   -3.2766 C   0  0  0  0  0  0  0  0  0  0  0  0
   17.4747   27.6793   -2.7112 C   0  0  0  0  0  0  0  0  0  0  0  0
   17.1791   28.9907   -3.0172 C   0  0  0  0  0  0  0  0  0  0  0  0
   16.1733   29.3198   -3.8905 C   0  0  0  0  0  0  0  0  0  0  0  0
   15.4438   28.2929   -4.4735 C   0  0  0  0  0  0  0  0  0  0  0  0
   15.7308   26.9807   -4.1747 C   0  0  0  0  0  0  0  0  0  0  0  0
   14.7785   25.7662   -4.9692 S   0  0  0  0  0  0  0  0  0  0  0  0
   13.9033   24.9753   -4.0456 O   0  0  0  0  0  0  0  0  0  0  0  0
   13.7993   26.4798   -5.9096 O   0  0  0  0  0  0  0  0  0  0  0  0
   15.7655   24.6837   -5.9393 C   0  0  0  0  0  0  0  0  0  0  0  0
   15.4198   23.2168   -5.5753 C   0  0  0  0  0  0  0  0  0  0  0  0
   15.6121   24.8951   -7.4210 C   0  0  0  0  0  0  0  0  0  0  0  0
   11.5260   22.6410   -0.5841 C   0  0  0  0  0  0  0  0  0  0  0  0
   10.3680   22.7117    0.1531 C   0  0  0  0  0  0  0  0  0  0  0  0
   10.3337   22.4946    1.5271 C   0  0  0  0  0  0  0  0  0  0  0  0
   11.5131   22.1997    2.1550 C   0  0  0  0  0  0  0  0  0  0  0  0
   12.7173   22.1175    1.4383 C   0  0  0  0  0  0  0  0  0  0  0  0
   12.7169   22.3371    0.0829 C   0  0  0  0  0  0  0  0  0  0  0  0
    9.1354   22.5839    2.2848 N   0  0  0  0  0  0  0  0  0  0  0  0
    9.1844   22.7027    3.7442 C   0  0  0  0  0  0  0  0  0  0  0  0
    7.8405   23.2245    4.2499 C   0  0  0  0  0  0  0  0  0  0  0  0
    7.4078   24.3815    3.3974 C   0  0  0  0  0  0  0  0  0  0  0  0
    7.0005   23.8098    2.0560 C   0  0  0  0  0  0  0  0  0  0  0  0
    7.8186   22.5789    1.7095 C   0  0  0  0  0  0  0  0  0  0  0  0
    6.2693   25.0552    3.9595 N   0  0  0  0  0  0  0  0  0  0  0  0
    6.4874   26.5074    3.9443 C   0  0  0  0  0  0  0  0  0  0  0  0
    5.2096   27.1293    4.4802 C   0  0  0  0  0  0  0  0  0  0  0  0
    4.9720   26.7514    5.7968 O   0  0  0  0  0  0  0  0  0  0  0  0
    4.7594   25.3778    5.7813 C   0  0  0  0  0  0  0  0  0  0  0  0
    6.0560   24.7213    5.3567 C   0  0  0  0  0  0  0  0  0  0  0  0
   12.3465   23.9147   -2.4638 C   0  0  0  0  0  0  0  0  0  0  0  0
   11.5536   22.8585   -1.9513 O   0  0  0  0  0  0  0  0  0  0  0  0
 42 43  1  0  0  0
 43 24  1  0  0  0
 24 25  2  0  0  0
 25 26  1  0  0  0
 26 27  2  0  0  0
 27 28  1  0  0  0
 28 29  2  0  0  0
 29  1  1  0  0  0
  1  3  1  0  0  0
  3  4  2  0  0  0
  4  5  1  0  0  0
  5  6  2  0  0  0
  6  7  1  0  0  0
  6  8  1  0  0  0
  8 10  1  0  0  0
 10 12  1  0  0  0
 12 13  2  0  0  0
 13 14  1  0  0  0
 14 15  2  0  0  0
 15 16  1  0  0  0
 16 17  2  0  0  0
 17 18  1  0  0  0
 18 19  2  0  0  0
 18 20  2  0  0  0
 18 21  1  0  0  0
 21 22  1  0  0  0
 21 23  1  0  0  0
  8  9  2  0  0  0
 26 30  1  0  0  0
 30 31  1  0  0  0
 31 32  1  0  0  0
 32 33  1  0  0  0
 33 34  1  0  0  0
 34 35  1  0  0  0
 33 36  1  0  0  0
 36 37  1  0  0  0
 37 38  1  0  0  0
 38 39  1  0  0  0
 39 40  1  0  0  0
 40 41  1  0  0  0
 29 24  1  0  0  0
  9  3  1  0  0  0
 35 30  1  0  0  0
 41 36  1  0  0  0
 17 12  1  0  0  0
  1  2  1  0  0  0
 10 11  1  0  0  0
M  END
> <minimizedAffinity>
6.06455

> <CNNscore>
0.4272294939

> <CNNaffinity>
7.5556869507

> <CNN_VS>
3.2280123234

> <CNNaffinity_variance>
0.5767764449

$$$$
[H]c1nc(N([H])c2c([H])c([H])c(N3C([H])([H])C([H])([H])C([H])(N4C([H])([H])C([H])([H])OC([H])([H])C4([H])[H])C([H])([H])C3([H])[H])c([H])c2OC([H])([H])[H])nc(N([H])c2c([H])c([H])c([H])c([H])c2S(=O)(=O)C([H])(C([H])([H])[H])C([H])([H])[H])c1Cl


 43 47  0  0  0  0  0  0  0  0999 V2000
   12.3027   21.0883   -0.8955 N   0  0  0  0  0  0  0  0  0  0  0  0
   12.0894   20.0176   -0.8579 H   0  0  0  0  0  0  0  0  0  0  0  0
   13.2415   21.4412   -1.8833 C   0  0  0  0  0  0  0  0  0  0  0  0
   13.9648   20.4099   -2.4497 N   0  0  0  0  0  0  0  0  0  0  0  0
   14.8581   20.5694   -3.4039 C   0  0  0  0  0  0  0  0  0  0  0  0
   15.1083   21.8336   -3.8887 C   0  0  0  0  0  0  0  0  0  0  0  0
   16.2691   22.1284   -5.1514 Cl  0  0  0  0  0  0  0  0  0  0  0  0
   14.4052   22.9294   -3.3566 C   0  0  0  0  0  0  0  0  0  0  0  0
   13.5121   22.6418   -2.3786 N   0  0  0  0  0  0  0  0  0  0  0  0
   14.7076   24.1977   -3.8581 N   0  0  0  0  0  0  0  0  0  0  0  0
   14.1646   24.4760   -4.7344 H   0  0  0  0  0  0  0  0  0  0  0  0
   15.5926   25.1960   -3.4052 C   0  0  0  0  0  0  0  0  0  0  0  0
   16.9263   24.9700   -3.1855 C   0  0  0  0  0  0  0  0  0  0  0  0
   17.7347   25.9657   -2.6796 C   0  0  0  0  0  0  0  0  0  0  0  0
   17.2441   27.2110   -2.3777 C   0  0  0  0  0  0  0  0  0  0  0  0
   15.8957   27.4590   -2.5940 C   0  0  0  0  0  0  0  0  0  0  0  0
   15.0803   26.4719   -3.0984 C   0  0  0  0  0  0  0  0  0  0  0  0
   13.4133   26.8826   -3.3546 S   0  0  0  0  0  0  0  0  0  0  0  0
   13.1697   28.3465   -3.5601 O   0  0  0  0  0  0  0  0  0  0  0  0
   12.9669   26.2302   -4.6690 O   0  0  0  0  0  0  0  0  0  0  0  0
   12.3788   26.2732   -2.0718 C   0  0  0  0  0  0  0  0  0  0  0  0
   11.5385   25.0890   -2.6153 C   0  0  0  0  0  0  0  0  0  0  0  0
   13.1332   25.8462   -0.8421 C   0  0  0  0  0  0  0  0  0  0  0  0
   12.2130   22.0626    1.2856 C   0  0  0  0  0  0  0  0  0  0  0  0
   11.5645   22.8606    2.1976 C   0  0  0  0  0  0  0  0  0  0  0  0
   10.3438   23.4731    1.9309 C   0  0  0  0  0  0  0  0  0  0  0  0
    9.7792   23.2602    0.7030 C   0  0  0  0  0  0  0  0  0  0  0  0
   10.4095   22.4526   -0.2567 C   0  0  0  0  0  0  0  0  0  0  0  0
   11.6139   21.8627    0.0379 C   0  0  0  0  0  0  0  0  0  0  0  0
    9.6721   24.2846    2.8841 N   0  0  0  0  0  0  0  0  0  0  0  0
    9.8584   25.7377    2.8877 C   0  0  0  0  0  0  0  0  0  0  0  0
    8.7204   26.3868    3.6738 C   0  0  0  0  0  0  0  0  0  0  0  0
    7.4162   25.7788    3.2471 C   0  0  0  0  0  0  0  0  0  0  0  0
    7.3817   24.3742    3.8108 C   0  0  0  0  0  0  0  0  0  0  0  0
    8.7745   23.7745    3.8835 C   0  0  0  0  0  0  0  0  0  0  0  0
    6.2957   26.5023    3.7829 N   0  0  0  0  0  0  0  0  0  0  0  0
    6.6102   27.9350    3.8525 C   0  0  0  0  0  0  0  0  0  0  0  0
    5.3489   28.6177    4.3523 C   0  0  0  0  0  0  0  0  0  0  0  0
    5.0145   28.1957    5.6341 O   0  0  0  0  0  0  0  0  0  0  0  0
    4.7124   26.8423    5.5381 C   0  0  0  0  0  0  0  0  0  0  0  0
    5.9840   26.1186    5.1485 C   0  0  0  0  0  0  0  0  0  0  0  0
   14.6058   21.9831    0.9735 C   0  0  0  0  0  0  0  0  0  0  0  0
   13.4276   21.4555    1.5571 O   0  0  0  0  0  0  0  0  0  0  0  0
 42 43  1  0  0  0
 43 24  1  0  0  0
 24 25  2  0  0  0
 25 26  1  0  0  0
 26 27  2  0  0  0
 27 28  1  0  0  0
 28 29  2  0  0  0
 29  1  1  0  0  0
  1  3  1  0  0  0
  3  4  2  0  0  0
  4  5  1  0  0  0
  5  6  2  0  0  0
  6  7  1  0  0  0
  6  8  1  0  0  0
  8 10  1  0  0  0
 10 12  1  0  0  0
 12 13  2  0  0  0
 13 14  1  0  0  0
 14 15  2  0  0  0
 15 16  1  0  0  0
 16 17  2  0  0  0
 17 18  1  0  0  0
 18 19  2  0  0  0
 18 20  2  0  0  0
 18 21  1  0  0  0
 21 22  1  0  0  0
 21 23  1  0  0  0
  8  9  2  0  0  0
 26 30  1  0  0  0
 30 31  1  0  0  0
 31 32  1  0  0  0
 32 33  1  0  0  0
 33 34  1  0  0  0
 34 35  1  0  0  0
 33 36  1  0  0  0
 36 37  1  0  0  0
 37 38  1  0  0  0
 38 39  1  0  0  0
 39 40  1  0  0  0
 40 41  1  0  0  0
 29 24  1  0  0  0
  9  3  1  0  0  0
 35 30  1  0  0  0
 41 36  1  0  0  0
 17 12  1  0  0  0
  1  2  1  0  0  0
 10 11  1  0  0  0
M  END
> <minimizedAffinity>
5.24979

> <CNNscore>
0.4078520536

> <CNNaffinity>
7.7058534622

> <CNN_VS>
3.1428482533

> <CNNaffinity_variance>
0.5937539339

$$$$
[H]c1nc(N([H])c2c([H])c([H])c(N3C([H])([H])C([H])([H])C([H])(N4C([H])([H])C([H])([H])OC([H])([H])C4([H])[H])C([H])([H])C3([H])[H])c([H])c2OC([H])([H])[H])nc(N([H])c2c([H])c([H])c([H])c([H])c2S(=O)(=O)C([H])(C([H])([H])[H])C([H])([H])[H])c1Cl


 43 47  0  0  0  0  0  0  0  0999 V2000
   14.0011   21.0348   -1.3305 N   0  0  0  0  0  0  0  0  0  0  0  0
   14.4639   20.0473   -1.3924 H   0  0  0  0  0  0  0  0  0  0  0  0
   14.6786   22.0217   -2.0712 C   0  0  0  0  0  0  0  0  0  0  0  0
   15.8489   22.5131   -1.5267 N   0  0  0  0  0  0  0  0  0  0  0  0
   16.6129   23.4156   -2.1060 C   0  0  0  0  0  0  0  0  0  0  0  0
   16.2477   23.9198   -3.3342 C   0  0  0  0  0  0  0  0  0  0  0  0
   17.2045   25.1107   -4.1681 Cl  0  0  0  0  0  0  0  0  0  0  0  0
   15.0674   23.4614   -3.9462 C   0  0  0  0  0  0  0  0  0  0  0  0
   14.3634   22.5327   -3.2542 N   0  0  0  0  0  0  0  0  0  0  0  0
   14.7197   24.0175   -5.1797 N   0  0  0  0  0  0  0  0  0  0  0  0
   14.0178   23.4478   -5.7480 H   0  0  0  0  0  0  0  0  0  0  0  0
   15.1138   25.2139   -5.8108 C   0  0  0  0  0  0  0  0  0  0  0  0
   15.8779   25.2433   -6.9481 C   0  0  0  0  0  0  0  0  0  0  0  0
   16.2902   26.4431   -7.4879 C   0  0  0  0  0  0  0  0  0  0  0  0
   15.9573   27.6451   -6.9160 C   0  0  0  0  0  0  0  0  0  0  0  0
   15.1835   27.6354   -5.7637 C   0  0  0  0  0  0  0  0  0  0  0  0
   14.7670   26.4433   -5.2169 C   0  0  0  0  0  0  0  0  0  0  0  0
   13.7856   26.5332   -3.7879 S   0  0  0  0  0  0  0  0  0  0  0  0
   12.6642   27.5225   -3.8784 O   0  0  0  0  0  0  0  0  0  0  0  0
   13.0894   25.1778   -3.6119 O   0  0  0  0  0  0  0  0  0  0  0  0
   14.7440   26.8379   -2.3472 C   0  0  0  0  0  0  0  0  0  0  0  0
   14.5679   25.6557   -1.3597 C   0  0  0  0  0  0  0  0  0  0  0  0
   16.2052   27.0564   -2.6316 C   0  0  0  0  0  0  0  0  0  0  0  0
   12.9383   21.8386    0.6541 C   0  0  0  0  0  0  0  0  0  0  0  0
   11.8062   21.9517    1.4254 C   0  0  0  0  0  0  0  0  0  0  0  0
   10.5925   21.3689    1.0742 C   0  0  0  0  0  0  0  0  0  0  0  0
   10.5422   20.6557   -0.0923 C   0  0  0  0  0  0  0  0  0  0  0  0
   11.6757   20.5169   -0.9087 C   0  0  0  0  0  0  0  0  0  0  0  0
   12.8585   21.1046   -0.5336 C   0  0  0  0  0  0  0  0  0  0  0  0
    9.4303   21.4777    1.8840 N   0  0  0  0  0  0  0  0  0  0  0  0
    9.5447   21.5708    3.3416 C   0  0  0  0  0  0  0  0  0  0  0  0
    8.2383   22.1198    3.9127 C   0  0  0  0  0  0  0  0  0  0  0  0
    7.8016   23.3020    3.0976 C   0  0  0  0  0  0  0  0  0  0  0  0
    7.3221   22.7639    1.7662 C   0  0  0  0  0  0  0  0  0  0  0  0
    8.0907   21.5174    1.3658 C   0  0  0  0  0  0  0  0  0  0  0  0
    6.7070   23.9965    3.7184 N   0  0  0  0  0  0  0  0  0  0  0  0
    7.0470   25.4142    3.8942 C   0  0  0  0  0  0  0  0  0  0  0  0
    5.8101   26.0730    4.4797 C   0  0  0  0  0  0  0  0  0  0  0  0
    5.5005   25.5543    5.7318 O   0  0  0  0  0  0  0  0  0  0  0  0
    5.1735   24.2176    5.5357 C   0  0  0  0  0  0  0  0  0  0  0  0
    6.4228   23.5089    5.0566 C   0  0  0  0  0  0  0  0  0  0  0  0
   15.2473   21.5861    1.3126 C   0  0  0  0  0  0  0  0  0  0  0  0
   14.1435   22.4207    1.0092 O   0  0  0  0  0  0  0  0  0  0  0  0
 42 43  1  0  0  0
 43 24  1  0  0  0
 24 25  2  0  0  0
 25 26  1  0  0  0
 26 27  2  0  0  0
 27 28  1  0  0  0
 28 29  2  0  0  0
 29  1  1  0  0  0
  1  3  1  0  0  0
  3  4  2  0  0  0
  4  5  1  0  0  0
  5  6  2  0  0  0
  6  7  1  0  0  0
  6  8  1  0  0  0
  8 10  1  0  0  0
 10 12  1  0  0  0
 12 13  2  0  0  0
 13 14  1  0  0  0
 14 15  2  0  0  0
 15 16  1  0  0  0
 16 17  2  0  0  0
 17 18  1  0  0  0
 18 19  2  0  0  0
 18 20  2  0  0  0
 18 21  1  0  0  0
 21 22  1  0  0  0
 21 23  1  0  0  0
  8  9  2  0  0  0
 26 30  1  0  0  0
 30 31  1  0  0  0
 31 32  1  0  0  0
 32 33  1  0  0  0
 33 34  1  0  0  0
 34 35  1  0  0  0
 33 36  1  0  0  0
 36 37  1  0  0  0
 37 38  1  0  0  0
 38 39  1  0  0  0
 39 40  1  0  0  0
 40 41  1  0  0  0
 29 24  1  0  0  0
  9  3  1  0  0  0
 35 30  1  0  0  0
 41 36  1  0  0  0
 17 12  1  0  0  0
  1  2  1  0  0  0
 10 11  1  0  0  0
M  END
> <minimizedAffinity>
2.29192

> <CNNscore>
0.3741870224

> <CNNaffinity>
7.5568695068

> <CNN_VS>
2.8276824951

> <CNNaffinity_variance>
0.2632027268

$$$$
[H]c1nc(N([H])c2c([H])c([H])c(N3C([H])([H])C([H])([H])C([H])(N4C([H])([H])C([H])([H])OC([H])([H])C4([H])[H])C([H])([H])C3([H])[H])c([H])c2OC([H])([H])[H])nc(N([H])c2c([H])c([H])c([H])c([H])c2S(=O)(=O)C([H])(C([H])([H])[H])C([H])([H])[H])c1Cl


 43 47  0  0  0  0  0  0  0  0999 V2000
   14.0437   21.1667   -1.4800 N   0  0  0  0  0  0  0  0  0  0  0  0
   14.6388   20.2791   -1.2534 H   0  0  0  0  0  0  0  0  0  0  0  0
   14.5065   21.8843   -2.5992 C   0  0  0  0  0  0  0  0  0  0  0  0
   14.8732   21.1423   -3.7048 N   0  0  0  0  0  0  0  0  0  0  0  0
   15.2981   21.6623   -4.8374 C   0  0  0  0  0  0  0  0  0  0  0  0
   15.3929   23.0307   -4.9572 C   0  0  0  0  0  0  0  0  0  0  0  0
   15.9403   23.7967   -6.4209 Cl  0  0  0  0  0  0  0  0  0  0  0  0
   15.0339   23.8462   -3.8690 C   0  0  0  0  0  0  0  0  0  0  0  0
   14.6121   23.1974   -2.7563 N   0  0  0  0  0  0  0  0  0  0  0  0
   15.1694   25.2280   -4.0231 N   0  0  0  0  0  0  0  0  0  0  0  0
   14.4535   25.6803   -4.6736 H   0  0  0  0  0  0  0  0  0  0  0  0
   16.0743   26.1479   -3.4577 C   0  0  0  0  0  0  0  0  0  0  0  0
   16.6735   25.9561   -2.2401 C   0  0  0  0  0  0  0  0  0  0  0  0
   17.5013   26.9194   -1.7037 C   0  0  0  0  0  0  0  0  0  0  0  0
   17.7574   28.0978   -2.3581 C   0  0  0  0  0  0  0  0  0  0  0  0
   17.1598   28.3100   -3.5928 C   0  0  0  0  0  0  0  0  0  0  0  0
   16.3319   27.3549   -4.1369 C   0  0  0  0  0  0  0  0  0  0  0  0
   15.6478   27.7011   -5.6943 S   0  0  0  0  0  0  0  0  0  0  0  0
   15.8858   29.1024   -6.1680 O   0  0  0  0  0  0  0  0  0  0  0  0
   16.3627   26.8198   -6.7262 O   0  0  0  0  0  0  0  0  0  0  0  0
   13.9328   27.3252   -5.7601 C   0  0  0  0  0  0  0  0  0  0  0  0
   13.7002   26.1893   -6.7894 C   0  0  0  0  0  0  0  0  0  0  0  0
   13.3499   26.9387   -4.4280 C   0  0  0  0  0  0  0  0  0  0  0  0
   13.2010   22.2132    0.4971 C   0  0  0  0  0  0  0  0  0  0  0  0
   12.1426   22.4851    1.3308 C   0  0  0  0  0  0  0  0  0  0  0  0
   10.8624   21.9854    1.1126 C   0  0  0  0  0  0  0  0  0  0  0  0
   10.6672   21.1904    0.0163 C   0  0  0  0  0  0  0  0  0  0  0  0
   11.7216   20.8893   -0.8601 C   0  0  0  0  0  0  0  0  0  0  0  0
   12.9732   21.3985   -0.6165 C   0  0  0  0  0  0  0  0  0  0  0  0
    9.7766   22.2586    1.9870 N   0  0  0  0  0  0  0  0  0  0  0  0
    9.9499   22.1711    3.4391 C   0  0  0  0  0  0  0  0  0  0  0  0
    8.8142   22.9280    4.1258 C   0  0  0  0  0  0  0  0  0  0  0  0
    8.6273   24.2557    3.4514 C   0  0  0  0  0  0  0  0  0  0  0  0
    8.0031   23.9775    2.1005 C   0  0  0  0  0  0  0  0  0  0  0  0
    8.4649   22.6429    1.5436 C   0  0  0  0  0  0  0  0  0  0  0  0
    7.7317   25.1025    4.1908 N   0  0  0  0  0  0  0  0  0  0  0  0
    6.5415   24.3429    4.5947 C   0  0  0  0  0  0  0  0  0  0  0  0
    5.7006   25.2930    5.4295 C   0  0  0  0  0  0  0  0  0  0  0  0
    5.2720   26.3847    4.6830 O   0  0  0  0  0  0  0  0  0  0  0  0
    6.4145   27.0900    4.3231 C   0  0  0  0  0  0  0  0  0  0  0  0
    7.2221   26.2061    3.3963 C   0  0  0  0  0  0  0  0  0  0  0  0
   15.5154   21.8154    1.0577 C   0  0  0  0  0  0  0  0  0  0  0  0
   14.4729   22.7132    0.7198 O   0  0  0  0  0  0  0  0  0  0  0  0
 42 43  1  0  0  0
 43 24  1  0  0  0
 24 25  2  0  0  0
 25 26  1  0  0  0
 26 27  2  0  0  0
 27 28  1  0  0  0
 28 29  2  0  0  0
 29  1  1  0  0  0
  1  3  1  0  0  0
  3  4  2  0  0  0
  4  5  1  0  0  0
  5  6  2  0  0  0
  6  7  1  0  0  0
  6  8  1  0  0  0
  8 10  1  0  0  0
 10 12  1  0  0  0
 12 13  2  0  0  0
 13 14  1  0  0  0
 14 15  2  0  0  0
 15 16  1  0  0  0
 16 17  2  0  0  0
 17 18  1  0  0  0
 18 19  2  0  0  0
 18 20  2  0  0  0
 18 21  1  0  0  0
 21 22  1  0  0  0
 21 23  1  0  0  0
  8  9  2  0  0  0
 26 30  1  0  0  0
 30 31  1  0  0  0
 31 32  1  0  0  0
 32 33  1  0  0  0
 33 34  1  0  0  0
 34 35  1  0  0  0
 33 36  1  0  0  0
 36 37  1  0  0  0
 37 38  1  0  0  0
 38 39  1  0  0  0
 39 40  1  0  0  0
 40 41  1  0  0  0
 29 24  1  0  0  0
  9  3  1  0  0  0
 35 30  1  0  0  0
 41 36  1  0  0  0
 17 12  1  0  0  0
  1  2  1  0  0  0
 10 11  1  0  0  0
M  END
> <minimizedAffinity>
0.66673

> <CNNscore>
0.3545533717

> <CNNaffinity>
7.7654862404

> <CNN_VS>
2.7532794476

> <CNNaffinity_variance>
0.2211590260

$$$$
[H]c1nc(N([H])c2c([H])c([H])c(N3C([H])([H])C([H])([H])C([H])(N4C([H])([H])C([H])([H])OC([H])([H])C4([H])[H])C([H])([H])C3([H])[H])c([H])c2OC([H])([H])[H])nc(N([H])c2c([H])c([H])c([H])c([H])c2S(=O)(=O)C([H])(C([H])([H])[H])C([H])([H])[H])c1Cl


 43 47  0  0  0  0  0  0  0  0999 V2000
   12.8340   21.0760    1.4759 N   0  0  0  0  0  0  0  0  0  0  0  0
   13.2536   20.2011    1.9776 H   0  0  0  0  0  0  0  0  0  0  0  0
   13.4931   21.4078    0.2770 C   0  0  0  0  0  0  0  0  0  0  0  0
   13.8740   20.3568   -0.5340 N   0  0  0  0  0  0  0  0  0  0  0  0
   14.4724   20.4995   -1.6982 C   0  0  0  0  0  0  0  0  0  0  0  0
   14.7485   21.7657   -2.1634 C   0  0  0  0  0  0  0  0  0  0  0  0
   15.5319   22.0399   -3.6932 Cl  0  0  0  0  0  0  0  0  0  0  0  0
   14.3860   22.8813   -1.3876 C   0  0  0  0  0  0  0  0  0  0  0  0
   13.7767   22.6097   -0.2078 N   0  0  0  0  0  0  0  0  0  0  0  0
   14.7075   24.1470   -1.8839 N   0  0  0  0  0  0  0  0  0  0  0  0
   15.7451   24.3957   -1.8432 H   0  0  0  0  0  0  0  0  0  0  0  0
   13.9093   25.1593   -2.4521 C   0  0  0  0  0  0  0  0  0  0  0  0
   12.5438   25.1876   -2.3388 C   0  0  0  0  0  0  0  0  0  0  0  0
   11.8055   26.1661   -2.9698 C   0  0  0  0  0  0  0  0  0  0  0  0
   12.3993   27.1421   -3.7298 C   0  0  0  0  0  0  0  0  0  0  0  0
   13.7815   27.1301   -3.8559 C   0  0  0  0  0  0  0  0  0  0  0  0
   14.5276   26.1577   -3.2302 C   0  0  0  0  0  0  0  0  0  0  0  0
   16.2501   26.2377   -3.4290 S   0  0  0  0  0  0  0  0  0  0  0  0
   17.0198   26.0864   -2.1526 O   0  0  0  0  0  0  0  0  0  0  0  0
   16.6794   25.0369   -4.2814 O   0  0  0  0  0  0  0  0  0  0  0  0
   16.7508   27.6992   -4.2657 C   0  0  0  0  0  0  0  0  0  0  0  0
   18.2251   28.0134   -3.9028 C   0  0  0  0  0  0  0  0  0  0  0  0
   16.5953   27.6203   -5.7602 C   0  0  0  0  0  0  0  0  0  0  0  0
   11.1239   20.9431    3.1409 C   0  0  0  0  0  0  0  0  0  0  0  0
   10.0883   21.5379    3.8214 C   0  0  0  0  0  0  0  0  0  0  0  0
    9.6461   22.8279    3.5450 C   0  0  0  0  0  0  0  0  0  0  0  0
   10.2807   23.5192    2.5493 C   0  0  0  0  0  0  0  0  0  0  0  0
   11.3430   22.9480    1.8310 C   0  0  0  0  0  0  0  0  0  0  0  0
   11.7553   21.6726    2.1286 C   0  0  0  0  0  0  0  0  0  0  0  0
    8.5653   23.4307    4.2426 N   0  0  0  0  0  0  0  0  0  0  0  0
    8.8174   24.3450    5.3593 C   0  0  0  0  0  0  0  0  0  0  0  0
    7.5612   25.1741    5.6214 C   0  0  0  0  0  0  0  0  0  0  0  0
    7.0246   25.6834    4.3155 C   0  0  0  0  0  0  0  0  0  0  0  0
    6.4302   24.4939    3.5917 C   0  0  0  0  0  0  0  0  0  0  0  0
    7.1815   23.2163    3.9203 C   0  0  0  0  0  0  0  0  0  0  0  0
    5.9811   26.6515    4.5147 N   0  0  0  0  0  0  0  0  0  0  0  0
    5.8547   27.5050    3.3264 C   0  0  0  0  0  0  0  0  0  0  0  0
    4.6855   28.4351    3.6001 C   0  0  0  0  0  0  0  0  0  0  0  0
    4.9359   29.2617    4.6894 O   0  0  0  0  0  0  0  0  0  0  0  0
    5.0408   28.4316    5.7994 C   0  0  0  0  0  0  0  0  0  0  0  0
    6.2678   27.5659    5.6060 C   0  0  0  0  0  0  0  0  0  0  0  0
   11.2381   19.0811    4.6735 C   0  0  0  0  0  0  0  0  0  0  0  0
   11.5592   19.6586    3.4204 O   0  0  0  0  0  0  0  0  0  0  0  0
 42 43  1  0  0  0
 43 24  1  0  0  0
 24 25  2  0  0  0
 25 26  1  0  0  0
 26 27  2  0  0  0
 27 28  1  0  0  0
 28 29  2  0  0  0
 29  1  1  0  0  0
  1  3  1  0  0  0
  3  4  2  0  0  0
  4  5  1  0  0  0
  5  6  2  0  0  0
  6  7  1  0  0  0
  6  8  1  0  0  0
  8 10  1  0  0  0
 10 12  1  0  0  0
 12 13  2  0  0  0
 13 14  1  0  0  0
 14 15  2  0  0  0
 15 16  1  0  0  0
 16 17  2  0  0  0
 17 18  1  0  0  0
 18 19  2  0  0  0
 18 20  2  0  0  0
 18 21  1  0  0  0
 21 22  1  0  0  0
 21 23  1  0  0  0
  8  9  2  0  0  0
 26 30  1  0  0  0
 30 31  1  0  0  0
 31 32  1  0  0  0
 32 33  1  0  0  0
 33 34  1  0  0  0
 34 35  1  0  0  0
 33 36  1  0  0  0
 36 37  1  0  0  0
 37 38  1  0  0  0
 38 39  1  0  0  0
 39 40  1  0  0  0
 40 41  1  0  0  0
 29 24  1  0  0  0
  9  3  1  0  0  0
 35 30  1  0  0  0
 41 36  1  0  0  0
 17 12  1  0  0  0
  1  2  1  0  0  0
 10 11  1  0  0  0
M  END
> <minimizedAffinity>
-4.49401

> <CNNscore>
0.3376445174

> <CNNaffinity>
7.4501676559

> <CNN_VS>
2.5155081749

> <CNNaffinity_variance>
0.4275958538

$$$$
[H]c1nc(N([H])c2c([H])c([H])c(N3C([H])([H])C([H])([H])C([H])(N4C([H])([H])C([H])([H])OC([H])([H])C4([H])[H])C([H])([H])C3([H])[H])c([H])c2OC([H])([H])[H])nc(N([H])c2c([H])c([H])c([H])c([H])c2S(=O)(=O)C([H])(C([H])([H])[H])C([H])([H])[H])c1Cl


 43 47  0  0  0  0  0  0  0  0999 V2000
   14.4018   20.5078   -1.2553 N   0  0  0  0  0  0  0  0  0  0  0  0
   14.9497   19.5712   -1.1295 H   0  0  0  0  0  0  0  0  0  0  0  0
   14.6443   21.1409   -2.4891 C   0  0  0  0  0  0  0  0  0  0  0  0
   14.0862   20.5549   -3.6083 N   0  0  0  0  0  0  0  0  0  0  0  0
   14.1952   21.0376   -4.8285 C   0  0  0  0  0  0  0  0  0  0  0  0
   14.9046   22.1999   -5.0328 C   0  0  0  0  0  0  0  0  0  0  0  0
   15.0913   22.9055   -6.6128 Cl  0  0  0  0  0  0  0  0  0  0  0  0
   15.4980   22.8493   -3.9355 C   0  0  0  0  0  0  0  0  0  0  0  0
   15.3183   22.2580   -2.7292 N   0  0  0  0  0  0  0  0  0  0  0  0
   16.2305   24.0113   -4.1896 N   0  0  0  0  0  0  0  0  0  0  0  0
   17.2885   23.9066   -4.0905 H   0  0  0  0  0  0  0  0  0  0  0  0
   15.8280   25.3052   -4.5754 C   0  0  0  0  0  0  0  0  0  0  0  0
   15.4726   25.6265   -5.8594 C   0  0  0  0  0  0  0  0  0  0  0  0
   15.1492   26.9237   -6.1963 C   0  0  0  0  0  0  0  0  0  0  0  0
   15.1694   27.9369   -5.2713 C   0  0  0  0  0  0  0  0  0  0  0  0
   15.5265   27.6307   -3.9654 C   0  0  0  0  0  0  0  0  0  0  0  0
   15.8511   26.3391   -3.6189 C   0  0  0  0  0  0  0  0  0  0  0  0
   16.2639   26.0499   -1.9578 S   0  0  0  0  0  0  0  0  0  0  0  0
   17.3498   25.0358   -1.7660 O   0  0  0  0  0  0  0  0  0  0  0  0
   16.8459   27.3491   -1.3869 O   0  0  0  0  0  0  0  0  0  0  0  0
   14.8593   25.6193   -0.9941 C   0  0  0  0  0  0  0  0  0  0  0  0
   13.7281   25.1293   -1.9344 C   0  0  0  0  0  0  0  0  0  0  0  0
   15.1445   24.5772    0.0530 C   0  0  0  0  0  0  0  0  0  0  0  0
   12.2219   20.9873   -0.3995 C   0  0  0  0  0  0  0  0  0  0  0  0
   11.4142   21.3033    0.6669 C   0  0  0  0  0  0  0  0  0  0  0  0
   11.9073   21.5130    1.9510 C   0  0  0  0  0  0  0  0  0  0  0  0
   13.2571   21.3961    2.1420 C   0  0  0  0  0  0  0  0  0  0  0  0
   14.1163   21.0742    1.0794 C   0  0  0  0  0  0  0  0  0  0  0  0
   13.5976   20.8733   -0.1759 C   0  0  0  0  0  0  0  0  0  0  0  0
   11.0680   21.8540    3.0453 N   0  0  0  0  0  0  0  0  0  0  0  0
   10.1557   22.9968    2.9560 C   0  0  0  0  0  0  0  0  0  0  0  0
    9.0863   22.8702    4.0397 C   0  0  0  0  0  0  0  0  0  0  0  0
    8.5604   21.4645    4.0524 C   0  0  0  0  0  0  0  0  0  0  0  0
    9.6534   20.5925    4.6329 C   0  0  0  0  0  0  0  0  0  0  0  0
   11.0304   21.1291    4.2854 C   0  0  0  0  0  0  0  0  0  0  0  0
    7.3995   21.3423    4.8910 N   0  0  0  0  0  0  0  0  0  0  0  0
    6.8716   19.9737    4.8210 C   0  0  0  0  0  0  0  0  0  0  0  0
    5.7047   19.9239    5.7920 C   0  0  0  0  0  0  0  0  0  0  0  0
    4.6863   20.7898    5.4099 O   0  0  0  0  0  0  0  0  0  0  0  0
    5.2084   22.0753    5.4947 C   0  0  0  0  0  0  0  0  0  0  0  0
    6.3042   22.1909    4.4562 C   0  0  0  0  0  0  0  0  0  0  0  0
   10.5622   21.4794   -2.0825 C   0  0  0  0  0  0  0  0  0  0  0  0
   11.7251   20.7800   -1.6752 O   0  0  0  0  0  0  0  0  0  0  0  0
 42 43  1  0  0  0
 43 24  1  0  0  0
 24 25  2  0  0  0
 25 26  1  0  0  0
 26 27  2  0  0  0
 27 28  1  0  0  0
 28 29  2  0  0  0
 29  1  1  0  0  0
  1  3  1  0  0  0
  3  4  2  0  0  0
  4  5  1  0  0  0
  5  6  2  0  0  0
  6  7  1  0  0  0
  6  8  1  0  0  0
  8 10  1  0  0  0
 10 12  1  0  0  0
 12 13  2  0  0  0
 13 14  1  0  0  0
 14 15  2  0  0  0
 15 16  1  0  0  0
 16 17  2  0  0  0
 17 18  1  0  0  0
 18 19  2  0  0  0
 18 20  2  0  0  0
 18 21  1  0  0  0
 21 22  1  0  0  0
 21 23  1  0  0  0
  8  9  2  0  0  0
 26 30  1  0  0  0
 30 31  1  0  0  0
 31 32  1  0  0  0
 32 33  1  0  0  0
 33 34  1  0  0  0
 34 35  1  0  0  0
 33 36  1  0  0  0
 36 37  1  0  0  0
 37 38  1  0  0  0
 38 39  1  0  0  0
 39 40  1  0  0  0
 40 41  1  0  0  0
 29 24  1  0  0  0
  9  3  1  0  0  0
 35 30  1  0  0  0
 41 36  1  0  0  0
 17 12  1  0  0  0
  1  2  1  0  0  0
 10 11  1  0  0  0
M  END
> <minimizedAffinity>
4.19013

> <CNNscore>
0.3332898915

> <CNNaffinity>
7.2060537338

> <CNN_VS>
2.4017047882

> <CNNaffinity_variance>
0.3634350002

$$$$
[H]c1nc(N([H])c2c([H])c([H])c(N3C([H])([H])C([H])([H])C([H])(N4C([H])([H])C([H])([H])OC([H])([H])C4([H])[H])C([H])([H])C3([H])[H])c([H])c2OC([H])([H])[H])nc(N([H])c2c([H])c([H])c([H])c([H])c2S(=O)(=O)C([H])(C([H])([H])[H])C([H])([H])[H])c1Cl


 43 47  0  0  0  0  0  0  0  0999 V2000
   13.9055   21.1512   -0.6921 N   0  0  0  0  0  0  0  0  0  0  0  0
   14.5034   20.2897   -0.3864 H   0  0  0  0  0  0  0  0  0  0  0  0
   14.3964   21.7980   -1.8421 C   0  0  0  0  0  0  0  0  0  0  0  0
   14.7863   20.9888   -2.8912 N   0  0  0  0  0  0  0  0  0  0  0  0
   15.2391   21.4376   -4.0433 C   0  0  0  0  0  0  0  0  0  0  0  0
   15.3410   22.7959   -4.2446 C   0  0  0  0  0  0  0  0  0  0  0  0
   15.9248   23.4695   -5.7394 Cl  0  0  0  0  0  0  0  0  0  0  0  0
   14.9594   23.6773   -3.2172 C   0  0  0  0  0  0  0  0  0  0  0  0
   14.5097   23.0987   -2.0770 N   0  0  0  0  0  0  0  0  0  0  0  0
   15.1028   25.0468   -3.4526 N   0  0  0  0  0  0  0  0  0  0  0  0
   16.1057   25.3709   -3.6242 H   0  0  0  0  0  0  0  0  0  0  0  0
   14.1561   26.0876   -3.5252 C   0  0  0  0  0  0  0  0  0  0  0  0
   12.8800   25.9736   -3.0387 C   0  0  0  0  0  0  0  0  0  0  0  0
   11.9733   27.0005   -3.1942 C   0  0  0  0  0  0  0  0  0  0  0  0
   12.3059   28.1670   -3.8355 C   0  0  0  0  0  0  0  0  0  0  0  0
   13.5941   28.3011   -4.3347 C   0  0  0  0  0  0  0  0  0  0  0  0
   14.5065   27.2820   -4.1848 C   0  0  0  0  0  0  0  0  0  0  0  0
   16.0982   27.5504   -4.8233 S   0  0  0  0  0  0  0  0  0  0  0  0
   16.6267   26.4138   -5.6438 O   0  0  0  0  0  0  0  0  0  0  0  0
   16.0171   28.7273   -5.8037 O   0  0  0  0  0  0  0  0  0  0  0  0
   17.2506   27.9742   -3.5666 C   0  0  0  0  0  0  0  0  0  0  0  0
   17.3102   26.8285   -2.5238 C   0  0  0  0  0  0  0  0  0  0  0  0
   18.6310   28.2655   -4.0894 C   0  0  0  0  0  0  0  0  0  0  0  0
   12.8693   22.5525    0.9441 C   0  0  0  0  0  0  0  0  0  0  0  0
   11.7726   22.8582    1.7143 C   0  0  0  0  0  0  0  0  0  0  0  0
   10.6083   22.0963    1.7055 C   0  0  0  0  0  0  0  0  0  0  0  0
   10.5713   20.9988    0.8894 C   0  0  0  0  0  0  0  0  0  0  0  0
   11.6698   20.6526    0.0867 C   0  0  0  0  0  0  0  0  0  0  0  0
   12.8041   21.4256    0.1185 C   0  0  0  0  0  0  0  0  0  0  0  0
    9.4841   22.4100    2.5155 N   0  0  0  0  0  0  0  0  0  0  0  0
    9.6497   22.6827    3.9454 C   0  0  0  0  0  0  0  0  0  0  0  0
    8.4114   23.4125    4.4630 C   0  0  0  0  0  0  0  0  0  0  0  0
    8.0501   24.5112    3.5065 C   0  0  0  0  0  0  0  0  0  0  0  0
    7.4876   23.8471    2.2678 C   0  0  0  0  0  0  0  0  0  0  0  0
    8.1374   22.4973    2.0220 C   0  0  0  0  0  0  0  0  0  0  0  0
    7.0362   25.3729    4.0503 N   0  0  0  0  0  0  0  0  0  0  0  0
    6.7043   26.4287    3.0851 C   0  0  0  0  0  0  0  0  0  0  0  0
    5.5793   27.2328    3.7131 C   0  0  0  0  0  0  0  0  0  0  0  0
    5.9887   27.8495    4.8900 O   0  0  0  0  0  0  0  0  0  0  0  0
    6.2863   26.8302    5.7871 C   0  0  0  0  0  0  0  0  0  0  0  0
    7.4804   26.0768    5.2403 C   0  0  0  0  0  0  0  0  0  0  0  0
   13.9282   24.7150    0.7676 C   0  0  0  0  0  0  0  0  0  0  0  0
   14.0254   23.3145    0.9575 O   0  0  0  0  0  0  0  0  0  0  0  0
 42 43  1  0  0  0
 43 24  1  0  0  0
 24 25  2  0  0  0
 25 26  1  0  0  0
 26 27  2  0  0  0
 27 28  1  0  0  0
 28 29  2  0  0  0
 29  1  1  0  0  0
  1  3  1  0  0  0
  3  4  2  0  0  0
  4  5  1  0  0  0
  5  6  2  0  0  0
  6  7  1  0  0  0
  6  8  1  0  0  0
  8 10  1  0  0  0
 10 12  1  0  0  0
 12 13  2  0  0  0
 13 14  1  0  0  0
 14 15  2  0  0  0
 15 16  1  0  0  0
 16 17  2  0  0  0
 17 18  1  0  0  0
 18 19  2  0  0  0
 18 20  2  0  0  0
 18 21  1  0  0  0
 21 22  1  0  0  0
 21 23  1  0  0  0
  8  9  2  0  0  0
 26 30  1  0  0  0
 30 31  1  0  0  0
 31 32  1  0  0  0
 32 33  1  0  0  0
 33 34  1  0  0  0
 34 35  1  0  0  0
 33 36  1  0  0  0
 36 37  1  0  0  0
 37 38  1  0  0  0
 38 39  1  0  0  0
 39 40  1  0  0  0
 40 41  1  0  0  0
 29 24  1  0  0  0
  9  3  1  0  0  0
 35 30  1  0  0  0
 41 36  1  0  0  0
 17 12  1  0  0  0
  1  2  1  0  0  0
 10 11  1  0  0  0
M  END
> <minimizedAffinity>
-1.00078

> <CNNscore>
0.3328136802

> <CNNaffinity>
7.5950651169

> <CNN_VS>
2.5277416706

> <CNNaffinity_variance>
0.0812857598

$$$$
[H]OC(=O)c1c([H])c([H])c2c(nc(N([H])c3c([H])c([H])c([H])c(Cl)c3[H])c3c([H])c([H])nc([H])c32)c1[H]


 27 30  0  0  0  0  0  0  0  0999 V2000
   13.6273   25.7512   -3.0587 C   0  0  0  0  0  0  0  0  0  0  0  0
   14.7030   24.9483   -2.7925 C   0  0  0  0  0  0  0  0  0  0  0  0
   14.6355   23.9275   -1.8528 C   0  0  0  0  0  0  0  0  0  0  0  0
   13.4698   23.7033   -1.1643 C   0  0  0  0  0  0  0  0  0  0  0  0
   12.3660   24.5165   -1.4279 C   0  0  0  0  0  0  0  0  0  0  0  0
   12.4694   25.5186   -2.3659 C   0  0  0  0  0  0  0  0  0  0  0  0
   11.2360   24.2936   -0.7555 N   0  0  0  0  0  0  0  0  0  0  0  0
   11.0477   23.3484    0.1676 C   0  0  0  0  0  0  0  0  0  0  0  0
   12.1245   22.5237    0.4524 C   0  0  0  0  0  0  0  0  0  0  0  0
   12.0268   21.5225    1.3845 C   0  0  0  0  0  0  0  0  0  0  0  0
   13.1420   20.7274    1.6249 C   0  0  0  0  0  0  0  0  0  0  0  0
   14.2855   20.9205    0.9737 N   0  0  0  0  0  0  0  0  0  0  0  0
   14.4275   21.8998    0.0424 C   0  0  0  0  0  0  0  0  0  0  0  0
   13.3424   22.6949   -0.2107 C   0  0  0  0  0  0  0  0  0  0  0  0
   14.8301   27.2351   -4.5834 O   0  0  0  0  0  0  0  0  0  0  0  0
   13.6565   26.8272   -4.0316 C   0  0  0  0  0  0  0  0  0  0  0  0
   12.5787   27.3740   -4.3541 O   0  0  0  0  0  0  0  0  0  0  0  0
   15.1131   28.1790   -4.7901 H   0  0  0  0  0  0  0  0  0  0  0  0
    9.8331   23.1927    0.8579 N   0  0  0  0  0  0  0  0  0  0  0  0
    8.9976   22.7530    0.3635 H   0  0  0  0  0  0  0  0  0  0  0  0
    9.5591   23.5670    2.2008 C   0  0  0  0  0  0  0  0  0  0  0  0
    9.3793   22.6955    3.2316 C   0  0  0  0  0  0  0  0  0  0  0  0
    9.0784   23.1517    4.5268 C   0  0  0  0  0  0  0  0  0  0  0  0
    8.9524   24.4875    4.8177 C   0  0  0  0  0  0  0  0  0  0  0  0
    9.1322   25.3802    3.7871 C   0  0  0  0  0  0  0  0  0  0  0  0
    8.9747   27.0875    4.1449 Cl  0  0  0  0  0  0  0  0  0  0  0  0
    9.4243   24.9287    2.5287 C   0  0  0  0  0  0  0  0  0  0  0  0
 15 16  1  0  0  0
 16 17  2  0  0  0
 16  1  1  0  0  0
  1  2  2  0  0  0
  2  3  1  0  0  0
  3  4  2  0  0  0
  4  5  1  0  0  0
  5  6  2  0  0  0
  5  7  1  0  0  0
  7  8  2  0  0  0
  8 19  1  0  0  0
 19 21  1  0  0  0
 21 22  2  0  0  0
 22 23  1  0  0  0
 23 24  2  0  0  0
 24 25  1  0  0  0
 25 26  1  0  0  0
 25 27  2  0  0  0
  8  9  1  0  0  0
  9 10  2  0  0  0
 10 11  1  0  0  0
 11 12  2  0  0  0
 12 13  1  0  0  0
 13 14  2  0  0  0
  6  1  1  0  0  0
 27 21  1  0  0  0
 14  9  1  0  0  0
 14  4  1  0  0  0
 15 18  1  0  0  0
 19 20  1  0  0  0
M  END
> <minimizedAffinity>
-9.26218

> <CNNscore>
0.5251328349

> <CNNaffinity>
6.7383947372

> <CNN_VS>
3.5385522842

> <CNNaffinity_variance>
0.1969689727

$$$$
[H]OC(=O)c1c([H])c([H])c2c(nc(N([H])c3c([H])c([H])c([H])c(Cl)c3[H])c3c([H])c([H])nc([H])c32)c1[H]


 27 30  0  0  0  0  0  0  0  0999 V2000
   12.3699   28.8278   -3.7449 C   0  0  0  0  0  0  0  0  0  0  0  0
   13.2584   28.6199   -4.7646 C   0  0  0  0  0  0  0  0  0  0  0  0
   13.9637   27.4293   -4.8853 C   0  0  0  0  0  0  0  0  0  0  0  0
   13.7783   26.4249   -3.9689 C   0  0  0  0  0  0  0  0  0  0  0  0
   12.8743   26.6261   -2.9243 C   0  0  0  0  0  0  0  0  0  0  0  0
   12.1929   27.8188   -2.8361 C   0  0  0  0  0  0  0  0  0  0  0  0
   12.6986   25.6462   -2.0368 N   0  0  0  0  0  0  0  0  0  0  0  0
   13.3146   24.4623   -2.0453 C   0  0  0  0  0  0  0  0  0  0  0  0
   14.2186   24.2309   -3.0700 C   0  0  0  0  0  0  0  0  0  0  0  0
   14.8989   23.0439   -3.1640 C   0  0  0  0  0  0  0  0  0  0  0  0
   15.7917   22.8712   -4.2160 C   0  0  0  0  0  0  0  0  0  0  0  0
   15.9928   23.8263   -5.1195 N   0  0  0  0  0  0  0  0  0  0  0  0
   15.3410   25.0174   -5.0657 C   0  0  0  0  0  0  0  0  0  0  0  0
   14.4570   25.2095   -4.0384 C   0  0  0  0  0  0  0  0  0  0  0  0
   11.9217   30.9375   -2.5955 O   0  0  0  0  0  0  0  0  0  0  0  0
   11.6141   30.0556   -3.5833 C   0  0  0  0  0  0  0  0  0  0  0  0
   10.6715   30.2883   -4.3720 O   0  0  0  0  0  0  0  0  0  0  0  0
   11.2810   31.4658   -2.0261 H   0  0  0  0  0  0  0  0  0  0  0  0
   13.0993   23.4874   -1.0559 N   0  0  0  0  0  0  0  0  0  0  0  0
   12.1040   23.1998   -0.8060 H   0  0  0  0  0  0  0  0  0  0  0  0
   14.0893   22.7997   -0.3038 C   0  0  0  0  0  0  0  0  0  0  0  0
   14.0115   21.4947    0.0775 C   0  0  0  0  0  0  0  0  0  0  0  0
   15.0241   20.9005    0.8508 C   0  0  0  0  0  0  0  0  0  0  0  0
   16.1345   21.5981    1.2573 C   0  0  0  0  0  0  0  0  0  0  0  0
   16.2278   22.9171    0.8792 C   0  0  0  0  0  0  0  0  0  0  0  0
   17.6397   23.8183    1.3907 Cl  0  0  0  0  0  0  0  0  0  0  0  0
   15.2380   23.4889    0.1268 C   0  0  0  0  0  0  0  0  0  0  0  0
 15 16  1  0  0  0
 16 17  2  0  0  0
 16  1  1  0  0  0
  1  2  2  0  0  0
  2  3  1  0  0  0
  3  4  2  0  0  0
  4  5  1  0  0  0
  5  6  2  0  0  0
  5  7  1  0  0  0
  7  8  2  0  0  0
  8 19  1  0  0  0
 19 21  1  0  0  0
 21 22  2  0  0  0
 22 23  1  0  0  0
 23 24  2  0  0  0
 24 25  1  0  0  0
 25 26  1  0  0  0
 25 27  2  0  0  0
  8  9  1  0  0  0
  9 10  2  0  0  0
 10 11  1  0  0  0
 11 12  2  0  0  0
 12 13  1  0  0  0
 13 14  2  0  0  0
  6  1  1  0  0  0
 27 21  1  0  0  0
 14  9  1  0  0  0
 14  4  1  0  0  0
 15 18  1  0  0  0
 19 20  1  0  0  0
M  END
> <minimizedAffinity>
7.50205

> <CNNscore>
0.4759630859

> <CNNaffinity>
6.6980695724

> <CNN_VS>
3.1880338192

> <CNNaffinity_variance>
0.7835547328

$$$$
[H]OC(=O)c1c([H])c([H])c2c(nc(N([H])c3c([H])c([H])c([H])c(Cl)c3[H])c3c([H])c([H])nc([H])c32)c1[H]


 27 30  0  0  0  0  0  0  0  0999 V2000
   15.7098   26.7812   -4.3255 C   0  0  0  0  0  0  0  0  0  0  0  0
   16.6607   26.8777   -3.3461 C   0  0  0  0  0  0  0  0  0  0  0  0
   16.6391   26.0564   -2.2260 C   0  0  0  0  0  0  0  0  0  0  0  0
   15.6476   25.1190   -2.0803 C   0  0  0  0  0  0  0  0  0  0  0  0
   14.6722   25.0119   -3.0733 C   0  0  0  0  0  0  0  0  0  0  0  0
   14.7251   25.8425   -4.1697 C   0  0  0  0  0  0  0  0  0  0  0  0
   13.7111   24.0990   -2.9258 N   0  0  0  0  0  0  0  0  0  0  0  0
   13.5831   23.2557   -1.8994 C   0  0  0  0  0  0  0  0  0  0  0  0
   14.5359   23.3364   -0.8963 C   0  0  0  0  0  0  0  0  0  0  0  0
   14.4893   22.5103    0.1973 C   0  0  0  0  0  0  0  0  0  0  0  0
   15.4752   22.6387    1.1696 C   0  0  0  0  0  0  0  0  0  0  0  0
   16.4487   23.5378    1.0563 N   0  0  0  0  0  0  0  0  0  0  0  0
   16.5342   24.3764   -0.0094 C   0  0  0  0  0  0  0  0  0  0  0  0
   15.5742   24.2678   -0.9791 C   0  0  0  0  0  0  0  0  0  0  0  0
   15.8943   28.9609   -5.4154 O   0  0  0  0  0  0  0  0  0  0  0  0
   15.6966   27.6192   -5.5098 C   0  0  0  0  0  0  0  0  0  0  0  0
   15.4993   27.0827   -6.6224 O   0  0  0  0  0  0  0  0  0  0  0  0
   15.4234   29.6861   -5.9313 H   0  0  0  0  0  0  0  0  0  0  0  0
   12.5230   22.3381   -1.7985 N   0  0  0  0  0  0  0  0  0  0  0  0
   12.5827   21.4045   -2.3090 H   0  0  0  0  0  0  0  0  0  0  0  0
   11.3166   22.5029   -1.0664 C   0  0  0  0  0  0  0  0  0  0  0  0
   10.9935   23.6049   -0.3345 C   0  0  0  0  0  0  0  0  0  0  0  0
    9.7895   23.6717    0.3882 C   0  0  0  0  0  0  0  0  0  0  0  0
    8.8844   22.6394    0.3929 C   0  0  0  0  0  0  0  0  0  0  0  0
    9.1963   21.5199   -0.3425 C   0  0  0  0  0  0  0  0  0  0  0  0
    8.0498   20.1958   -0.3455 Cl  0  0  0  0  0  0  0  0  0  0  0  0
   10.3703   21.4618   -1.0431 C   0  0  0  0  0  0  0  0  0  0  0  0
 15 16  1  0  0  0
 16 17  2  0  0  0
 16  1  1  0  0  0
  1  2  2  0  0  0
  2  3  1  0  0  0
  3  4  2  0  0  0
  4  5  1  0  0  0
  5  6  2  0  0  0
  5  7  1  0  0  0
  7  8  2  0  0  0
  8 19  1  0  0  0
 19 21  1  0  0  0
 21 22  2  0  0  0
 22 23  1  0  0  0
 23 24  2  0  0  0
 24 25  1  0  0  0
 25 26  1  0  0  0
 25 27  2  0  0  0
  8  9  1  0  0  0
  9 10  2  0  0  0
 10 11  1  0  0  0
 11 12  2  0  0  0
 12 13  1  0  0  0
 13 14  2  0  0  0
  6  1  1  0  0  0
 27 21  1  0  0  0
 14  9  1  0  0  0
 14  4  1  0  0  0
 15 18  1  0  0  0
 19 20  1  0  0  0
M  END
> <minimizedAffinity>
-8.34260

> <CNNscore>
0.4714494050

> <CNNaffinity>
7.0647211075

> <CNN_VS>
3.3306586742

> <CNNaffinity_variance>
0.2605961859

$$$$
[H]OC(=O)c1c([H])c([H])c2c(nc(N([H])c3c([H])c([H])c([H])c(Cl)c3[H])c3c([H])c([H])nc([H])c32)c1[H]


 27 30  0  0  0  0  0  0  0  0999 V2000
   17.2651   24.0086    0.6777 C   0  0  0  0  0  0  0  0  0  0  0  0
   16.3299   23.2915    1.3732 C   0  0  0  0  0  0  0  0  0  0  0  0
   14.9964   23.2635    0.9850 C   0  0  0  0  0  0  0  0  0  0  0  0
   14.5877   23.9659   -0.1207 C   0  0  0  0  0  0  0  0  0  0  0  0
   15.5335   24.7010   -0.8379 C   0  0  0  0  0  0  0  0  0  0  0  0
   16.8462   24.7057   -0.4239 C   0  0  0  0  0  0  0  0  0  0  0  0
   15.1300   25.3816   -1.9116 N   0  0  0  0  0  0  0  0  0  0  0  0
   13.8824   25.4333   -2.3826 C   0  0  0  0  0  0  0  0  0  0  0  0
   12.9193   24.7137   -1.6931 C   0  0  0  0  0  0  0  0  0  0  0  0
   11.6104   24.7038   -2.1020 C   0  0  0  0  0  0  0  0  0  0  0  0
   10.6909   23.9613   -1.3691 C   0  0  0  0  0  0  0  0  0  0  0  0
   11.0568   23.2706   -0.2930 N   0  0  0  0  0  0  0  0  0  0  0  0
   12.3419   23.2516    0.1481 C   0  0  0  0  0  0  0  0  0  0  0  0
   13.2644   23.9755   -0.5581 C   0  0  0  0  0  0  0  0  0  0  0  0
   19.0451   24.5330    2.2681 O   0  0  0  0  0  0  0  0  0  0  0  0
   18.6664   24.0639    1.0497 C   0  0  0  0  0  0  0  0  0  0  0  0
   19.5219   23.6710    0.2260 O   0  0  0  0  0  0  0  0  0  0  0  0
   19.8402   25.1135    2.4797 H   0  0  0  0  0  0  0  0  0  0  0  0
   13.5264   26.1988   -3.5065 N   0  0  0  0  0  0  0  0  0  0  0  0
   12.5046   26.4549   -3.6686 H   0  0  0  0  0  0  0  0  0  0  0  0
   14.3983   26.7012   -4.5095 C   0  0  0  0  0  0  0  0  0  0  0  0
   15.0817   27.8764   -4.4307 C   0  0  0  0  0  0  0  0  0  0  0  0
   15.9000   28.3151   -5.4863 C   0  0  0  0  0  0  0  0  0  0  0  0
   16.0523   27.5877   -6.6407 C   0  0  0  0  0  0  0  0  0  0  0  0
   15.3691   26.3978   -6.7347 C   0  0  0  0  0  0  0  0  0  0  0  0
   15.5551   25.4598   -8.2021 Cl  0  0  0  0  0  0  0  0  0  0  0  0
   14.5740   25.9775   -5.7033 C   0  0  0  0  0  0  0  0  0  0  0  0
 15 16  1  0  0  0
 16 17  2  0  0  0
 16  1  1  0  0  0
  1  2  2  0  0  0
  2  3  1  0  0  0
  3  4  2  0  0  0
  4  5  1  0  0  0
  5  6  2  0  0  0
  5  7  1  0  0  0
  7  8  2  0  0  0
  8 19  1  0  0  0
 19 21  1  0  0  0
 21 22  2  0  0  0
 22 23  1  0  0  0
 23 24  2  0  0  0
 24 25  1  0  0  0
 25 26  1  0  0  0
 25 27  2  0  0  0
  8  9  1  0  0  0
  9 10  2  0  0  0
 10 11  1  0  0  0
 11 12  2  0  0  0
 12 13  1  0  0  0
 13 14  2  0  0  0
  6  1  1  0  0  0
 27 21  1  0  0  0
 14  9  1  0  0  0
 14  4  1  0  0  0
 15 18  1  0  0  0
 19 20  1  0  0  0
M  END
> <minimizedAffinity>
-1.32711

> <CNNscore>
0.4390651882

> <CNNaffinity>
6.8860678673

> <CNN_VS>
3.0234327316

> <CNNaffinity_variance>
0.4033869803

$$$$
[H]OC(=O)c1c([H])c([H])c2c(nc(N([H])c3c([H])c([H])c([H])c(Cl)c3[H])c3c([H])c([H])nc([H])c32)c1[H]


 27 30  0  0  0  0  0  0  0  0999 V2000
   14.6847   25.8591   -4.4750 C   0  0  0  0  0  0  0  0  0  0  0  0
   15.2826   24.6315   -4.5655 C   0  0  0  0  0  0  0  0  0  0  0  0
   15.0847   23.6516   -3.6010 C   0  0  0  0  0  0  0  0  0  0  0  0
   14.2728   23.9022   -2.5235 C   0  0  0  0  0  0  0  0  0  0  0  0
   13.6577   25.1513   -2.4210 C   0  0  0  0  0  0  0  0  0  0  0  0
   13.8768   26.0982   -3.3956 C   0  0  0  0  0  0  0  0  0  0  0  0
   12.8699   25.3887   -1.3713 N   0  0  0  0  0  0  0  0  0  0  0  0
   12.6027   24.5322   -0.3833 C   0  0  0  0  0  0  0  0  0  0  0  0
   13.1980   23.2828   -0.4555 C   0  0  0  0  0  0  0  0  0  0  0  0
   12.9819   22.3349    0.5115 C   0  0  0  0  0  0  0  0  0  0  0  0
   13.6065   21.0992    0.3821 C   0  0  0  0  0  0  0  0  0  0  0  0
   14.3990   20.8269   -0.6507 N   0  0  0  0  0  0  0  0  0  0  0  0
   14.6413   21.7354   -1.6317 C   0  0  0  0  0  0  0  0  0  0  0  0
   14.0367   22.9589   -1.5250 C   0  0  0  0  0  0  0  0  0  0  0  0
   15.5395   28.0475   -5.1484 O   0  0  0  0  0  0  0  0  0  0  0  0
   14.8653   26.9089   -5.4601 C   0  0  0  0  0  0  0  0  0  0  0  0
   14.3877   26.7463   -6.6048 O   0  0  0  0  0  0  0  0  0  0  0  0
   15.3155   28.9875   -5.4311 H   0  0  0  0  0  0  0  0  0  0  0  0
   11.7834   24.8653    0.7093 N   0  0  0  0  0  0  0  0  0  0  0  0
   12.1006   25.6143    1.3980 H   0  0  0  0  0  0  0  0  0  0  0  0
   10.5201   24.3018    1.0334 C   0  0  0  0  0  0  0  0  0  0  0  0
    9.6953   23.6767    0.1482 C   0  0  0  0  0  0  0  0  0  0  0  0
    8.4443   23.1752    0.5477 C   0  0  0  0  0  0  0  0  0  0  0  0
    7.9932   23.2876    1.8396 C   0  0  0  0  0  0  0  0  0  0  0  0
    8.8155   23.9156    2.7455 C   0  0  0  0  0  0  0  0  0  0  0  0
    8.2522   24.0650    4.3972 Cl  0  0  0  0  0  0  0  0  0  0  0  0
   10.0318   24.4017    2.3493 C   0  0  0  0  0  0  0  0  0  0  0  0
 15 16  1  0  0  0
 16 17  2  0  0  0
 16  1  1  0  0  0
  1  2  2  0  0  0
  2  3  1  0  0  0
  3  4  2  0  0  0
  4  5  1  0  0  0
  5  6  2  0  0  0
  5  7  1  0  0  0
  7  8  2  0  0  0
  8 19  1  0  0  0
 19 21  1  0  0  0
 21 22  2  0  0  0
 22 23  1  0  0  0
 23 24  2  0  0  0
 24 25  1  0  0  0
 25 26  1  0  0  0
 25 27  2  0  0  0
  8  9  1  0  0  0
  9 10  2  0  0  0
 10 11  1  0  0  0
 11 12  2  0  0  0
 12 13  1  0  0  0
 13 14  2  0  0  0
  6  1  1  0  0  0
 27 21  1  0  0  0
 14  9  1  0  0  0
 14  4  1  0  0  0
 15 18  1  0  0  0
 19 20  1  0  0  0
M  END
> <minimizedAffinity>
-9.78527

> <CNNscore>
0.4375800490

> <CNNaffinity>
6.7651877403

> <CNN_VS>
2.9603111744

> <CNNaffinity_variance>
0.1252973974

$$$$
[H]OC(=O)c1c([H])c([H])c2c(nc(N([H])c3c([H])c([H])c([H])c(Cl)c3[H])c3c([H])c([H])nc([H])c32)c1[H]


 27 30  0  0  0  0  0  0  0  0999 V2000
   12.6224   28.4118   -3.7662 C   0  0  0  0  0  0  0  0  0  0  0  0
   13.9169   28.2177   -4.1651 C   0  0  0  0  0  0  0  0  0  0  0  0
   14.5696   27.0089   -3.9588 C   0  0  0  0  0  0  0  0  0  0  0  0
   13.9165   25.9720   -3.3414 C   0  0  0  0  0  0  0  0  0  0  0  0
   12.5954   26.1590   -2.9302 C   0  0  0  0  0  0  0  0  0  0  0  0
   11.9804   27.3704   -3.1511 C   0  0  0  0  0  0  0  0  0  0  0  0
   11.9661   25.1474   -2.3305 N   0  0  0  0  0  0  0  0  0  0  0  0
   12.4835   23.9437   -2.0767 C   0  0  0  0  0  0  0  0  0  0  0  0
   13.7935   23.7257   -2.4729 C   0  0  0  0  0  0  0  0  0  0  0  0
   14.4108   22.5203   -2.2571 C   0  0  0  0  0  0  0  0  0  0  0  0
   15.7264   22.3625   -2.6789 C   0  0  0  0  0  0  0  0  0  0  0  0
   16.3856   23.3490   -3.2799 N   0  0  0  0  0  0  0  0  0  0  0  0
   15.8139   24.5593   -3.5142 C   0  0  0  0  0  0  0  0  0  0  0  0
   14.5191   24.7373   -3.1074 C   0  0  0  0  0  0  0  0  0  0  0  0
   12.5558   30.8505   -3.9125 O   0  0  0  0  0  0  0  0  0  0  0  0
   11.9055   29.6577   -3.9629 C   0  0  0  0  0  0  0  0  0  0  0  0
   10.6744   29.6138   -4.1802 O   0  0  0  0  0  0  0  0  0  0  0  0
   12.2271   31.7092   -3.5022 H   0  0  0  0  0  0  0  0  0  0  0  0
   11.7663   22.9340   -1.4119 N   0  0  0  0  0  0  0  0  0  0  0  0
   11.7505   21.9465   -1.8126 H   0  0  0  0  0  0  0  0  0  0  0  0
   11.0177   23.0661   -0.2116 C   0  0  0  0  0  0  0  0  0  0  0  0
   11.3591   23.8670    0.8356 C   0  0  0  0  0  0  0  0  0  0  0  0
   10.5764   23.9130    2.0024 C   0  0  0  0  0  0  0  0  0  0  0  0
    9.4370   23.1607    2.1455 C   0  0  0  0  0  0  0  0  0  0  0  0
    9.0786   22.3475    1.0959 C   0  0  0  0  0  0  0  0  0  0  0  0
    7.6266   21.3828    1.2653 Cl  0  0  0  0  0  0  0  0  0  0  0  0
    9.8456   22.3075   -0.0367 C   0  0  0  0  0  0  0  0  0  0  0  0
 15 16  1  0  0  0
 16 17  2  0  0  0
 16  1  1  0  0  0
  1  2  2  0  0  0
  2  3  1  0  0  0
  3  4  2  0  0  0
  4  5  1  0  0  0
  5  6  2  0  0  0
  5  7  1  0  0  0
  7  8  2  0  0  0
  8 19  1  0  0  0
 19 21  1  0  0  0
 21 22  2  0  0  0
 22 23  1  0  0  0
 23 24  2  0  0  0
 24 25  1  0  0  0
 25 26  1  0  0  0
 25 27  2  0  0  0
  8  9  1  0  0  0
  9 10  2  0  0  0
 10 11  1  0  0  0
 11 12  2  0  0  0
 12 13  1  0  0  0
 13 14  2  0  0  0
  6  1  1  0  0  0
 27 21  1  0  0  0
 14  9  1  0  0  0
 14  4  1  0  0  0
 15 18  1  0  0  0
 19 20  1  0  0  0
M  END
> <minimizedAffinity>
6.80576

> <CNNscore>
0.4275213778

> <CNNaffinity>
6.4808340073

> <CNN_VS>
2.7706949711

> <CNNaffinity_variance>
1.3474879265

$$$$
[H]OC(=O)c1c([H])c([H])c2c(nc(N([H])c3c([H])c([H])c([H])c(Cl)c3[H])c3c([H])c([H])nc([H])c32)c1[H]


 27 30  0  0  0  0  0  0  0  0999 V2000
   10.7765   29.6234   -4.3130 C   0  0  0  0  0  0  0  0  0  0  0  0
   11.8610   30.4396   -4.4871 C   0  0  0  0  0  0  0  0  0  0  0  0
   13.1581   29.9766   -4.3061 C   0  0  0  0  0  0  0  0  0  0  0  0
   13.3775   28.6714   -3.9437 C   0  0  0  0  0  0  0  0  0  0  0  0
   12.2783   27.8297   -3.7633 C   0  0  0  0  0  0  0  0  0  0  0  0
   11.0071   28.3230   -3.9513 C   0  0  0  0  0  0  0  0  0  0  0  0
   12.4981   26.5623   -3.4109 N   0  0  0  0  0  0  0  0  0  0  0  0
   13.6922   26.0019   -3.2079 C   0  0  0  0  0  0  0  0  0  0  0  0
   14.8042   26.8110   -3.3792 C   0  0  0  0  0  0  0  0  0  0  0  0
   16.0731   26.3246   -3.1951 C   0  0  0  0  0  0  0  0  0  0  0  0
   17.1487   27.1857   -3.3835 C   0  0  0  0  0  0  0  0  0  0  0  0
   16.9678   28.4556   -3.7346 N   0  0  0  0  0  0  0  0  0  0  0  0
   15.7292   28.9801   -3.9278 C   0  0  0  0  0  0  0  0  0  0  0  0
   14.6553   28.1505   -3.7479 C   0  0  0  0  0  0  0  0  0  0  0  0
    8.6779   29.6611   -5.5651 O   0  0  0  0  0  0  0  0  0  0  0  0
    9.4069   30.0676   -4.4920 C   0  0  0  0  0  0  0  0  0  0  0  0
    8.9081   30.8337   -3.6382 O   0  0  0  0  0  0  0  0  0  0  0  0
    8.0327   30.2100   -6.1093 H   0  0  0  0  0  0  0  0  0  0  0  0
   13.8442   24.6630   -2.8078 N   0  0  0  0  0  0  0  0  0  0  0  0
   13.3995   24.3300   -1.8983 H   0  0  0  0  0  0  0  0  0  0  0  0
   14.5534   23.6410   -3.4944 C   0  0  0  0  0  0  0  0  0  0  0  0
   14.6451   22.3457   -3.0844 C   0  0  0  0  0  0  0  0  0  0  0  0
   15.3968   21.4041   -3.8086 C   0  0  0  0  0  0  0  0  0  0  0  0
   16.0707   21.7380   -4.9572 C   0  0  0  0  0  0  0  0  0  0  0  0
   15.9869   23.0425   -5.3846 C   0  0  0  0  0  0  0  0  0  0  0  0
   16.8415   23.4815   -6.8490 Cl  0  0  0  0  0  0  0  0  0  0  0  0
   15.2536   23.9537   -4.6742 C   0  0  0  0  0  0  0  0  0  0  0  0
 15 16  1  0  0  0
 16 17  2  0  0  0
 16  1  1  0  0  0
  1  2  2  0  0  0
  2  3  1  0  0  0
  3  4  2  0  0  0
  4  5  1  0  0  0
  5  6  2  0  0  0
  5  7  1  0  0  0
  7  8  2  0  0  0
  8 19  1  0  0  0
 19 21  1  0  0  0
 21 22  2  0  0  0
 22 23  1  0  0  0
 23 24  2  0  0  0
 24 25  1  0  0  0
 25 26  1  0  0  0
 25 27  2  0  0  0
  8  9  1  0  0  0
  9 10  2  0  0  0
 10 11  1  0  0  0
 11 12  2  0  0  0
 12 13  1  0  0  0
 13 14  2  0  0  0
  6  1  1  0  0  0
 27 21  1  0  0  0
 14  9  1  0  0  0
 14  4  1  0  0  0
 15 18  1  0  0  0
 19 20  1  0  0  0
M  END
> <minimizedAffinity>
30.36991

> <CNNscore>
0.4062586427

> <CNNaffinity>
6.0249047279

> <CNN_VS>
2.4476695061

> <CNNaffinity_variance>
1.0630851984

$$$$
[H]OC(=O)c1c([H])c([H])c2c(nc(N([H])c3c([H])c([H])c([H])c(Cl)c3[H])c3c([H])c([H])nc([H])c32)c1[H]


 27 30  0  0  0  0  0  0  0  0999 V2000
   13.9085   25.8294   -3.6063 C   0  0  0  0  0  0  0  0  0  0  0  0
   14.6604   24.7742   -4.0465 C   0  0  0  0  0  0  0  0  0  0  0  0
   14.7759   23.6034   -3.3078 C   0  0  0  0  0  0  0  0  0  0  0  0
   14.1274   23.4833   -2.1045 C   0  0  0  0  0  0  0  0  0  0  0  0
   13.3576   24.5537   -1.6456 C   0  0  0  0  0  0  0  0  0  0  0  0
   13.2659   25.6986   -2.4042 C   0  0  0  0  0  0  0  0  0  0  0  0
   12.7298   24.4309   -0.4753 N   0  0  0  0  0  0  0  0  0  0  0  0
   12.7633   23.3617    0.3227 C   0  0  0  0  0  0  0  0  0  0  0  0
   13.5188   22.2813   -0.1044 C   0  0  0  0  0  0  0  0  0  0  0  0
   13.6123   21.1375    0.6462 C   0  0  0  0  0  0  0  0  0  0  0  0
   14.3849   20.0870    0.1631 C   0  0  0  0  0  0  0  0  0  0  0  0
   15.0253   20.1738   -0.9993 N   0  0  0  0  0  0  0  0  0  0  0  0
   14.9609   21.2871   -1.7757 C   0  0  0  0  0  0  0  0  0  0  0  0
   14.2059   22.3340   -1.3199 C   0  0  0  0  0  0  0  0  0  0  0  0
   12.6445   27.3125   -5.0813 O   0  0  0  0  0  0  0  0  0  0  0  0
   13.7621   27.0684   -4.3469 C   0  0  0  0  0  0  0  0  0  0  0  0
   14.6861   27.9101   -4.2969 O   0  0  0  0  0  0  0  0  0  0  0  0
   12.5907   27.7552   -5.9841 H   0  0  0  0  0  0  0  0  0  0  0  0
   12.0976   23.3168    1.5599 N   0  0  0  0  0  0  0  0  0  0  0  0
   12.6513   23.1277    2.4507 H   0  0  0  0  0  0  0  0  0  0  0  0
   10.7073   23.4986    1.7896 C   0  0  0  0  0  0  0  0  0  0  0  0
    9.8034   22.4908    1.9372 C   0  0  0  0  0  0  0  0  0  0  0  0
    8.4372   22.7604    2.1292 C   0  0  0  0  0  0  0  0  0  0  0  0
    7.9474   24.0421    2.1784 C   0  0  0  0  0  0  0  0  0  0  0  0
    8.8483   25.0708    2.0319 C   0  0  0  0  0  0  0  0  0  0  0  0
    8.2366   26.7108    2.0933 Cl  0  0  0  0  0  0  0  0  0  0  0  0
   10.1768   24.8007    1.8448 C   0  0  0  0  0  0  0  0  0  0  0  0
 15 16  1  0  0  0
 16 17  2  0  0  0
 16  1  1  0  0  0
  1  2  2  0  0  0
  2  3  1  0  0  0
  3  4  2  0  0  0
  4  5  1  0  0  0
  5  6  2  0  0  0
  5  7  1  0  0  0
  7  8  2  0  0  0
  8 19  1  0  0  0
 19 21  1  0  0  0
 21 22  2  0  0  0
 22 23  1  0  0  0
 23 24  2  0  0  0
 24 25  1  0  0  0
 25 26  1  0  0  0
 25 27  2  0  0  0
  8  9  1  0  0  0
  9 10  2  0  0  0
 10 11  1  0  0  0
 11 12  2  0  0  0
 12 13  1  0  0  0
 13 14  2  0  0  0
  6  1  1  0  0  0
 27 21  1  0  0  0
 14  9  1  0  0  0
 14  4  1  0  0  0
 15 18  1  0  0  0
 19 20  1  0  0  0
M  END
> <minimizedAffinity>
-4.16076

> <CNNscore>
0.4027324617

> <CNNaffinity>
6.7447586060

> <CNN_VS>
2.7163331509

> <CNNaffinity_variance>
0.6281383634

$$$$
[H]OC(=O)c1c([H])c([H])c2c(nc(N([H])c3c([H])c([H])c([H])c(Cl)c3[H])c3c([H])c([H])nc([H])c32)c1[H]


 27 30  0  0  0  0  0  0  0  0999 V2000
   14.5729   20.8300    0.8867 C   0  0  0  0  0  0  0  0  0  0  0  0
   13.4948   20.3347    1.5686 C   0  0  0  0  0  0  0  0  0  0  0  0
   12.2368   20.9141    1.4631 C   0  0  0  0  0  0  0  0  0  0  0  0
   12.0507   22.0111    0.6599 C   0  0  0  0  0  0  0  0  0  0  0  0
   13.1437   22.5249   -0.0405 C   0  0  0  0  0  0  0  0  0  0  0  0
   14.3757   21.9249    0.0884 C   0  0  0  0  0  0  0  0  0  0  0  0
   12.9564   23.5913   -0.8193 N   0  0  0  0  0  0  0  0  0  0  0  0
   11.8012   24.2341   -1.0022 C   0  0  0  0  0  0  0  0  0  0  0  0
   10.6963   23.7485   -0.3210 C   0  0  0  0  0  0  0  0  0  0  0  0
    9.4660   24.3410   -0.4469 C   0  0  0  0  0  0  0  0  0  0  0  0
    8.3954   23.8064    0.2614 C   0  0  0  0  0  0  0  0  0  0  0  0
    8.5446   22.7442    1.0477 N   0  0  0  0  0  0  0  0  0  0  0  0
    9.7445   22.1254    1.2023 C   0  0  0  0  0  0  0  0  0  0  0  0
   10.8128   22.6346    0.5144 C   0  0  0  0  0  0  0  0  0  0  0  0
   16.9104   20.9186    1.5947 O   0  0  0  0  0  0  0  0  0  0  0  0
   15.9022   20.2546    0.9696 C   0  0  0  0  0  0  0  0  0  0  0  0
   16.1038   19.1331    0.4536 O   0  0  0  0  0  0  0  0  0  0  0  0
   17.8743   20.9756    1.3093 H   0  0  0  0  0  0  0  0  0  0  0  0
   11.6871   25.3728   -1.8184 N   0  0  0  0  0  0  0  0  0  0  0  0
   10.8398   26.0114   -1.7181 H   0  0  0  0  0  0  0  0  0  0  0  0
   12.6029   25.8056   -2.8147 C   0  0  0  0  0  0  0  0  0  0  0  0
   12.4590   26.9294   -3.5702 C   0  0  0  0  0  0  0  0  0  0  0  0
   13.3989   27.2669   -4.5597 C   0  0  0  0  0  0  0  0  0  0  0  0
   14.5013   26.4889   -4.8129 C   0  0  0  0  0  0  0  0  0  0  0  0
   14.6610   25.3510   -4.0573 C   0  0  0  0  0  0  0  0  0  0  0  0
   16.0637   24.3498   -4.3699 Cl  0  0  0  0  0  0  0  0  0  0  0  0
   13.7418   25.0285   -3.0962 C   0  0  0  0  0  0  0  0  0  0  0  0
 15 16  1  0  0  0
 16 17  2  0  0  0
 16  1  1  0  0  0
  1  2  2  0  0  0
  2  3  1  0  0  0
  3  4  2  0  0  0
  4  5  1  0  0  0
  5  6  2  0  0  0
  5  7  1  0  0  0
  7  8  2  0  0  0
  8 19  1  0  0  0
 19 21  1  0  0  0
 21 22  2  0  0  0
 22 23  1  0  0  0
 23 24  2  0  0  0
 24 25  1  0  0  0
 25 26  1  0  0  0
 25 27  2  0  0  0
  8  9  1  0  0  0
  9 10  2  0  0  0
 10 11  1  0  0  0
 11 12  2  0  0  0
 12 13  1  0  0  0
 13 14  2  0  0  0
  6  1  1  0  0  0
 27 21  1  0  0  0
 14  9  1  0  0  0
 14  4  1  0  0  0
 15 18  1  0  0  0
 19 20  1  0  0  0
M  END
> <minimizedAffinity>
-2.32729

> <CNNscore>
0.3905464709

> <CNNaffinity>
6.6834692955

> <CNN_VS>
2.6102054119

> <CNNaffinity_variance>
0.8105487823

$$$$
[H]c1c([H])c([H])c2c(nc(N([H])C(=O)N(C([H])([H])C(C([H])([H])[H])(C([H])([H])[H])C([H])([H])[H])C3([H])C([H])([H])C([H])([H])C([H])([H])C([H])([H])C3([H])[H])n2C2([H])C([H])([H])C([H])([H])N(C(=O)OC(C([H])([H])[H])(C([H])([H])[H])C([H])([H])[H])C([H])([H])C2([H])[H])c1[H]


 38 41  0  0  0  0  0  0  0  0999 V2000
   14.5901   24.2507   -0.4834 N   0  0  0  0  0  0  0  0  0  0  0  0
   14.1270   23.7127    0.6334 C   0  0  0  0  0  0  0  0  0  0  0  0
   15.2039   23.4300    1.4263 N   0  0  0  0  0  0  0  0  0  0  0  0
   16.3468   23.7833    0.8237 C   0  0  0  0  0  0  0  0  0  0  0  0
   17.6843   23.7182    1.1763 C   0  0  0  0  0  0  0  0  0  0  0  0
   18.6783   24.1699    0.3334 C   0  0  0  0  0  0  0  0  0  0  0  0
   18.2991   24.6941   -0.8843 C   0  0  0  0  0  0  0  0  0  0  0  0
   16.9660   24.7568   -1.2309 C   0  0  0  0  0  0  0  0  0  0  0  0
   15.9550   24.3038   -0.3877 C   0  0  0  0  0  0  0  0  0  0  0  0
   13.3414   27.1741   -4.3363 C   0  0  0  0  0  0  0  0  0  0  0  0
   12.7607   28.2353   -4.0179 O   0  0  0  0  0  0  0  0  0  0  0  0
   13.0378   25.9741   -3.6509 N   0  0  0  0  0  0  0  0  0  0  0  0
   12.0562   25.9977   -2.5897 C   0  0  0  0  0  0  0  0  0  0  0  0
   12.4504   25.0973   -1.4097 C   0  0  0  0  0  0  0  0  0  0  0  0
   13.8781   24.7246   -1.6414 C   0  0  0  0  0  0  0  0  0  0  0  0
   13.9459   23.8392   -2.8475 C   0  0  0  0  0  0  0  0  0  0  0  0
   13.7397   24.7693   -4.0604 C   0  0  0  0  0  0  0  0  0  0  0  0
   14.2702   27.2072   -5.3575 O   0  0  0  0  0  0  0  0  0  0  0  0
   16.4017   26.7589   -6.2771 C   0  0  0  0  0  0  0  0  0  0  0  0
   15.6332   27.4559   -5.1569 C   0  0  0  0  0  0  0  0  0  0  0  0
   15.9689   28.9304   -5.2311 C   0  0  0  0  0  0  0  0  0  0  0  0
   16.1632   26.9328   -3.8549 C   0  0  0  0  0  0  0  0  0  0  0  0
   12.7587   23.4618    0.9759 N   0  0  0  0  0  0  0  0  0  0  0  0
   12.4172   22.2431    1.6004 C   0  0  0  0  0  0  0  0  0  0  0  0
   13.3631   21.3937    1.8378 O   0  0  0  0  0  0  0  0  0  0  0  0
   11.1110   21.8342    2.0075 N   0  0  0  0  0  0  0  0  0  0  0  0
   12.0673   24.1690    0.7606 H   0  0  0  0  0  0  0  0  0  0  0  0
   10.0417   22.7843    1.9767 C   0  0  0  0  0  0  0  0  0  0  0  0
    9.1847   22.6648    0.7143 C   0  0  0  0  0  0  0  0  0  0  0  0
    8.1002   23.7421    0.7541 C   0  0  0  0  0  0  0  0  0  0  0  0
    7.9358   24.2858    2.1544 C   0  0  0  0  0  0  0  0  0  0  0  0
    9.1598   24.9305    2.7127 C   0  0  0  0  0  0  0  0  0  0  0  0
   10.3923   24.2284    2.0997 C   0  0  0  0  0  0  0  0  0  0  0  0
   10.9612   20.5115    2.5422 C   0  0  0  0  0  0  0  0  0  0  0  0
   10.8600   20.2827    3.9856 C   0  0  0  0  0  0  0  0  0  0  0  0
    9.4575   19.9928    4.4437 C   0  0  0  0  0  0  0  0  0  0  0  0
   11.5898   18.8988    4.2503 C   0  0  0  0  0  0  0  0  0  0  0  0
   11.5330   21.2192    4.9196 C   0  0  0  0  0  0  0  0  0  0  0  0
 19 20  1  0  0  0
 20 21  1  0  0  0
 20 22  1  0  0  0
 20 18  1  0  0  0
 18 10  1  0  0  0
 10 11  2  0  0  0
 10 12  1  0  0  0
 12 13  1  0  0  0
 13 14  1  0  0  0
 14 15  1  0  0  0
 15 16  1  0  0  0
 16 17  1  0  0  0
 15  1  1  0  0  0
  1  2  1  0  0  0
  2 23  1  0  0  0
 23 24  1  0  0  0
 24 25  2  0  0  0
 24 26  1  0  0  0
 26 34  1  0  0  0
 34 35  1  0  0  0
 35 36  1  0  0  0
 35 37  1  0  0  0
 35 38  1  0  0  0
 26 28  1  0  0  0
 28 29  1  0  0  0
 29 30  1  0  0  0
 30 31  1  0  0  0
 31 32  1  0  0  0
 32 33  1  0  0  0
  2  3  2  0  0  0
  3  4  1  0  0  0
  4  5  2  0  0  0
  5  6  1  0  0  0
  6  7  2  0  0  0
  7  8  1  0  0  0
  8  9  2  0  0  0
 17 12  1  0  0  0
  9  1  1  0  0  0
 33 28  1  0  0  0
  9  4  1  0  0  0
 23 27  1  0  0  0
M  END
> <minimizedAffinity>
-0.45523

> <CNNscore>
0.6973391771

> <CNNaffinity>
8.3202562332

> <CNN_VS>
5.8020405769

> <CNNaffinity_variance>
0.4846937060

$$$$
[H]c1c([H])c([H])c2c(nc(N([H])C(=O)N(C([H])([H])C(C([H])([H])[H])(C([H])([H])[H])C([H])([H])[H])C3([H])C([H])([H])C([H])([H])C([H])([H])C([H])([H])C3([H])[H])n2C2([H])C([H])([H])C([H])([H])N(C(=O)OC(C([H])([H])[H])(C([H])([H])[H])C([H])([H])[H])C([H])([H])C2([H])[H])c1[H]


 38 41  0  0  0  0  0  0  0  0999 V2000
   14.7029   24.3526   -0.3791 N   0  0  0  0  0  0  0  0  0  0  0  0
   14.2999   23.8875    0.7925 C   0  0  0  0  0  0  0  0  0  0  0  0
   15.4186   23.6109    1.5274 N   0  0  0  0  0  0  0  0  0  0  0  0
   16.5286   23.8958    0.8339 C   0  0  0  0  0  0  0  0  0  0  0  0
   17.8842   23.8057    1.1017 C   0  0  0  0  0  0  0  0  0  0  0  0
   18.8324   24.1814    0.1733 C   0  0  0  0  0  0  0  0  0  0  0  0
   18.3883   24.6549   -1.0432 C   0  0  0  0  0  0  0  0  0  0  0  0
   17.0374   24.7428   -1.3052 C   0  0  0  0  0  0  0  0  0  0  0  0
   16.0722   24.3663   -0.3753 C   0  0  0  0  0  0  0  0  0  0  0  0
   13.2525   27.1461   -4.2576 C   0  0  0  0  0  0  0  0  0  0  0  0
   12.6943   28.2210   -3.9451 O   0  0  0  0  0  0  0  0  0  0  0  0
   12.9831   25.9725   -3.5144 N   0  0  0  0  0  0  0  0  0  0  0  0
   12.0622   26.0389   -2.4019 C   0  0  0  0  0  0  0  0  0  0  0  0
   12.5181   25.1782   -1.2146 C   0  0  0  0  0  0  0  0  0  0  0  0
   13.9293   24.7895   -1.5118 C   0  0  0  0  0  0  0  0  0  0  0  0
   13.9267   23.8621   -2.6878 C   0  0  0  0  0  0  0  0  0  0  0  0
   13.6567   24.7502   -3.9195 C   0  0  0  0  0  0  0  0  0  0  0  0
   14.1232   27.1381   -5.3292 O   0  0  0  0  0  0  0  0  0  0  0  0
   16.1924   26.4997   -6.2782 C   0  0  0  0  0  0  0  0  0  0  0  0
   15.5028   27.3421   -5.2077 C   0  0  0  0  0  0  0  0  0  0  0  0
   15.8974   28.7842   -5.4470 C   0  0  0  0  0  0  0  0  0  0  0  0
   16.0653   26.9301   -3.8797 C   0  0  0  0  0  0  0  0  0  0  0  0
   12.9508   23.6986    1.2360 N   0  0  0  0  0  0  0  0  0  0  0  0
   12.3071   22.4691    0.9798 C   0  0  0  0  0  0  0  0  0  0  0  0
   12.9679   21.5554    0.3464 O   0  0  0  0  0  0  0  0  0  0  0  0
   10.9744   22.1148    1.3503 N   0  0  0  0  0  0  0  0  0  0  0  0
   12.4906   24.4559    1.7252 H   0  0  0  0  0  0  0  0  0  0  0  0
   10.2428   22.9749    2.2289 C   0  0  0  0  0  0  0  0  0  0  0  0
    9.3269   22.2021    3.1809 C   0  0  0  0  0  0  0  0  0  0  0  0
    8.5616   23.2040    4.0464 C   0  0  0  0  0  0  0  0  0  0  0  0
    9.2254   24.5611    4.0094 C   0  0  0  0  0  0  0  0  0  0  0  0
    9.2944   25.1765    2.6521 C   0  0  0  0  0  0  0  0  0  0  0  0
    9.3945   24.0361    1.6143 C   0  0  0  0  0  0  0  0  0  0  0  0
   10.4743   20.8438    0.9116 C   0  0  0  0  0  0  0  0  0  0  0  0
    9.5419   20.7419   -0.2137 C   0  0  0  0  0  0  0  0  0  0  0  0
   10.0443   21.4108   -1.4632 C   0  0  0  0  0  0  0  0  0  0  0  0
    9.5434   19.2111   -0.6316 C   0  0  0  0  0  0  0  0  0  0  0  0
    8.1055   21.0459    0.0018 C   0  0  0  0  0  0  0  0  0  0  0  0
 19 20  1  0  0  0
 20 21  1  0  0  0
 20 22  1  0  0  0
 20 18  1  0  0  0
 18 10  1  0  0  0
 10 11  2  0  0  0
 10 12  1  0  0  0
 12 13  1  0  0  0
 13 14  1  0  0  0
 14 15  1  0  0  0
 15 16  1  0  0  0
 16 17  1  0  0  0
 15  1  1  0  0  0
  1  2  1  0  0  0
  2 23  1  0  0  0
 23 24  1  0  0  0
 24 25  2  0  0  0
 24 26  1  0  0  0
 26 34  1  0  0  0
 34 35  1  0  0  0
 35 36  1  0  0  0
 35 37  1  0  0  0
 35 38  1  0  0  0
 26 28  1  0  0  0
 28 29  1  0  0  0
 29 30  1  0  0  0
 30 31  1  0  0  0
 31 32  1  0  0  0
 32 33  1  0  0  0
  2  3  2  0  0  0
  3  4  1  0  0  0
  4  5  2  0  0  0
  5  6  1  0  0  0
  6  7  2  0  0  0
  7  8  1  0  0  0
  8  9  2  0  0  0
 17 12  1  0  0  0
  9  1  1  0  0  0
 33 28  1  0  0  0
  9  4  1  0  0  0
 23 27  1  0  0  0
M  END
> <minimizedAffinity>
0.20811

> <CNNscore>
0.6934195757

> <CNNaffinity>
8.3803567886

> <CNN_VS>
5.8111033440

> <CNNaffinity_variance>
0.4555853903

$$$$
[H]c1c([H])c([H])c2c(nc(N([H])C(=O)N(C([H])([H])C(C([H])([H])[H])(C([H])([H])[H])C([H])([H])[H])C3([H])C([H])([H])C([H])([H])C([H])([H])C([H])([H])C3([H])[H])n2C2([H])C([H])([H])C([H])([H])N(C(=O)OC(C([H])([H])[H])(C([H])([H])[H])C([H])([H])[H])C([H])([H])C2([H])[H])c1[H]


 38 41  0  0  0  0  0  0  0  0999 V2000
   13.8459   23.2367   -0.0706 N   0  0  0  0  0  0  0  0  0  0  0  0
   13.3551   22.1469    0.4975 C   0  0  0  0  0  0  0  0  0  0  0  0
   14.3661   21.5709    1.2146 N   0  0  0  0  0  0  0  0  0  0  0  0
   15.4947   22.2845    1.1075 C   0  0  0  0  0  0  0  0  0  0  0  0
   16.7747   22.1491    1.6181 C   0  0  0  0  0  0  0  0  0  0  0  0
   17.7683   23.0623    1.3334 C   0  0  0  0  0  0  0  0  0  0  0  0
   17.4484   24.1262    0.5166 C   0  0  0  0  0  0  0  0  0  0  0  0
   16.1724   24.2567    0.0106 C   0  0  0  0  0  0  0  0  0  0  0  0
   15.1623   23.3409    0.2917 C   0  0  0  0  0  0  0  0  0  0  0  0
   13.3050   26.8095   -3.5192 C   0  0  0  0  0  0  0  0  0  0  0  0
   13.6666   27.9486   -3.1499 O   0  0  0  0  0  0  0  0  0  0  0  0
   12.6201   25.9625   -2.6161 N   0  0  0  0  0  0  0  0  0  0  0  0
   12.3495   26.4330   -1.2760 C   0  0  0  0  0  0  0  0  0  0  0  0
   12.5202   25.3277   -0.2237 C   0  0  0  0  0  0  0  0  0  0  0  0
   13.2017   24.1991   -0.9257 C   0  0  0  0  0  0  0  0  0  0  0  0
   12.2551   23.6313   -1.9379 C   0  0  0  0  0  0  0  0  0  0  0  0
   12.2211   24.6499   -3.0955 C   0  0  0  0  0  0  0  0  0  0  0  0
   13.5884   26.4099   -4.8102 O   0  0  0  0  0  0  0  0  0  0  0  0
   15.3585   24.8429   -4.7840 C   0  0  0  0  0  0  0  0  0  0  0  0
   14.8874   26.2042   -5.2897 C   0  0  0  0  0  0  0  0  0  0  0  0
   14.9463   26.1671   -6.8022 C   0  0  0  0  0  0  0  0  0  0  0  0
   15.8795   27.2264   -4.8200 C   0  0  0  0  0  0  0  0  0  0  0  0
   12.0185   21.6407    0.3982 N   0  0  0  0  0  0  0  0  0  0  0  0
   11.1241   21.8420    1.4712 C   0  0  0  0  0  0  0  0  0  0  0  0
   11.5535   22.4795    2.5113 O   0  0  0  0  0  0  0  0  0  0  0  0
    9.7654   21.4078    1.5371 N   0  0  0  0  0  0  0  0  0  0  0  0
   11.7475   21.1490   -0.4440 H   0  0  0  0  0  0  0  0  0  0  0  0
    9.1435   20.8818    0.3608 C   0  0  0  0  0  0  0  0  0  0  0  0
    9.7822   21.4069   -0.9272 C   0  0  0  0  0  0  0  0  0  0  0  0
    9.0270   20.8235   -2.1221 C   0  0  0  0  0  0  0  0  0  0  0  0
    8.2048   19.6265   -1.7041 C   0  0  0  0  0  0  0  0  0  0  0  0
    7.1624   19.9226   -0.6788 C   0  0  0  0  0  0  0  0  0  0  0  0
    7.6746   21.0839    0.2026 C   0  0  0  0  0  0  0  0  0  0  0  0
    9.0510   21.6314    2.7608 C   0  0  0  0  0  0  0  0  0  0  0  0
    8.3578   22.8966    3.0153 C   0  0  0  0  0  0  0  0  0  0  0  0
    6.9332   22.7139    3.4602 C   0  0  0  0  0  0  0  0  0  0  0  0
    9.0379   23.5017    4.3151 C   0  0  0  0  0  0  0  0  0  0  0  0
    8.4596   23.9945    2.0220 C   0  0  0  0  0  0  0  0  0  0  0  0
 19 20  1  0  0  0
 20 21  1  0  0  0
 20 22  1  0  0  0
 20 18  1  0  0  0
 18 10  1  0  0  0
 10 11  2  0  0  0
 10 12  1  0  0  0
 12 13  1  0  0  0
 13 14  1  0  0  0
 14 15  1  0  0  0
 15 16  1  0  0  0
 16 17  1  0  0  0
 15  1  1  0  0  0
  1  2  1  0  0  0
  2 23  1  0  0  0
 23 24  1  0  0  0
 24 25  2  0  0  0
 24 26  1  0  0  0
 26 34  1  0  0  0
 34 35  1  0  0  0
 35 36  1  0  0  0
 35 37  1  0  0  0
 35 38  1  0  0  0
 26 28  1  0  0  0
 28 29  1  0  0  0
 29 30  1  0  0  0
 30 31  1  0  0  0
 31 32  1  0  0  0
 32 33  1  0  0  0
  2  3  2  0  0  0
  3  4  1  0  0  0
  4  5  2  0  0  0
  5  6  1  0  0  0
  6  7  2  0  0  0
  7  8  1  0  0  0
  8  9  2  0  0  0
 17 12  1  0  0  0
  9  1  1  0  0  0
 33 28  1  0  0  0
  9  4  1  0  0  0
 23 27  1  0  0  0
M  END
> <minimizedAffinity>
-0.67298

> <CNNscore>
0.6034511328

> <CNNaffinity>
8.0500726700

> <CNN_VS>
4.8578252792

> <CNNaffinity_variance>
0.5253112912

$$$$
[H]c1c([H])c([H])c2c(nc(N([H])C(=O)N(C([H])([H])C(C([H])([H])[H])(C([H])([H])[H])C([H])([H])[H])C3([H])C([H])([H])C([H])([H])C([H])([H])C([H])([H])C3([H])[H])n2C2([H])C([H])([H])C([H])([H])N(C(=O)OC(C([H])([H])[H])(C([H])([H])[H])C([H])([H])[H])C([H])([H])C2([H])[H])c1[H]


 38 41  0  0  0  0  0  0  0  0999 V2000
   12.5485   22.8867    0.5080 N   0  0  0  0  0  0  0  0  0  0  0  0
   11.8186   22.5081    1.5449 C   0  0  0  0  0  0  0  0  0  0  0  0
   12.3473   21.3362    2.0089 N   0  0  0  0  0  0  0  0  0  0  0  0
   13.4061   20.9665    1.2765 C   0  0  0  0  0  0  0  0  0  0  0  0
   14.2807   19.8936    1.3167 C   0  0  0  0  0  0  0  0  0  0  0  0
   15.3116   19.7653    0.4094 C   0  0  0  0  0  0  0  0  0  0  0  0
   15.4490   20.7461   -0.5500 C   0  0  0  0  0  0  0  0  0  0  0  0
   14.5757   21.8125   -0.5859 C   0  0  0  0  0  0  0  0  0  0  0  0
   13.5320   21.9516    0.3249 C   0  0  0  0  0  0  0  0  0  0  0  0
   13.6848   26.3125   -2.9448 C   0  0  0  0  0  0  0  0  0  0  0  0
   14.5518   27.1415   -2.5902 O   0  0  0  0  0  0  0  0  0  0  0  0
   12.7017   25.8853   -2.0212 N   0  0  0  0  0  0  0  0  0  0  0  0
   12.7182   26.4186   -0.6775 C   0  0  0  0  0  0  0  0  0  0  0  0
   12.3693   25.3572    0.3761 C   0  0  0  0  0  0  0  0  0  0  0  0
   12.4176   24.0453   -0.3363 C   0  0  0  0  0  0  0  0  0  0  0  0
   11.2913   24.0010   -1.3225 C   0  0  0  0  0  0  0  0  0  0  0  0
   11.7170   24.9220   -2.4842 C   0  0  0  0  0  0  0  0  0  0  0  0
   13.7143   25.8353   -4.2402 O   0  0  0  0  0  0  0  0  0  0  0  0
   15.5083   24.4484   -4.9094 C   0  0  0  0  0  0  0  0  0  0  0  0
   14.8656   25.8275   -5.0366 C   0  0  0  0  0  0  0  0  0  0  0  0
   14.5562   26.0459   -6.5025 C   0  0  0  0  0  0  0  0  0  0  0  0
   15.8937   26.8419   -4.6318 C   0  0  0  0  0  0  0  0  0  0  0  0
   10.6819   23.1804    2.1004 N   0  0  0  0  0  0  0  0  0  0  0  0
    9.4636   22.4802    2.2316 C   0  0  0  0  0  0  0  0  0  0  0  0
    9.4228   21.2487    1.8385 O   0  0  0  0  0  0  0  0  0  0  0  0
    8.2415   22.9942    2.7618 N   0  0  0  0  0  0  0  0  0  0  0  0
   10.7818   24.1460    2.3869 H   0  0  0  0  0  0  0  0  0  0  0  0
    8.2442   24.2702    3.4091 C   0  0  0  0  0  0  0  0  0  0  0  0
    9.2292   25.2519    2.7701 C   0  0  0  0  0  0  0  0  0  0  0  0
    9.1896   26.5653    3.5522 C   0  0  0  0  0  0  0  0  0  0  0  0
    7.9420   26.6462    4.4011 C   0  0  0  0  0  0  0  0  0  0  0  0
    7.8224   25.5678    5.4250 C   0  0  0  0  0  0  0  0  0  0  0  0
    8.5219   24.3050    4.8738 C   0  0  0  0  0  0  0  0  0  0  0  0
    7.0859   22.1452    2.7212 C   0  0  0  0  0  0  0  0  0  0  0  0
    6.6951   21.3385    3.8799 C   0  0  0  0  0  0  0  0  0  0  0  0
    6.1163   20.0024    3.5048 C   0  0  0  0  0  0  0  0  0  0  0  0
    8.0529   20.9259    4.5900 C   0  0  0  0  0  0  0  0  0  0  0  0
    5.9051   21.9644    4.9690 C   0  0  0  0  0  0  0  0  0  0  0  0
 19 20  1  0  0  0
 20 21  1  0  0  0
 20 22  1  0  0  0
 20 18  1  0  0  0
 18 10  1  0  0  0
 10 11  2  0  0  0
 10 12  1  0  0  0
 12 13  1  0  0  0
 13 14  1  0  0  0
 14 15  1  0  0  0
 15 16  1  0  0  0
 16 17  1  0  0  0
 15  1  1  0  0  0
  1  2  1  0  0  0
  2 23  1  0  0  0
 23 24  1  0  0  0
 24 25  2  0  0  0
 24 26  1  0  0  0
 26 34  1  0  0  0
 34 35  1  0  0  0
 35 36  1  0  0  0
 35 37  1  0  0  0
 35 38  1  0  0  0
 26 28  1  0  0  0
 28 29  1  0  0  0
 29 30  1  0  0  0
 30 31  1  0  0  0
 31 32  1  0  0  0
 32 33  1  0  0  0
  2  3  2  0  0  0
  3  4  1  0  0  0
  4  5  2  0  0  0
  5  6  1  0  0  0
  6  7  2  0  0  0
  7  8  1  0  0  0
  8  9  2  0  0  0
 17 12  1  0  0  0
  9  1  1  0  0  0
 33 28  1  0  0  0
  9  4  1  0  0  0
 23 27  1  0  0  0
M  END
> <minimizedAffinity>
-3.23262

> <CNNscore>
0.5093891621

> <CNNaffinity>
7.6747827530

> <CNN_VS>
3.9094512463

> <CNNaffinity_variance>
0.7518221140

$$$$
[H]c1c([H])c([H])c2c(nc(N([H])C(=O)N(C([H])([H])C(C([H])([H])[H])(C([H])([H])[H])C([H])([H])[H])C3([H])C([H])([H])C([H])([H])C([H])([H])C([H])([H])C3([H])[H])n2C2([H])C([H])([H])C([H])([H])N(C(=O)OC(C([H])([H])[H])(C([H])([H])[H])C([H])([H])[H])C([H])([H])C2([H])[H])c1[H]


 38 41  0  0  0  0  0  0  0  0999 V2000
   12.4871   24.0558   -1.3919 N   0  0  0  0  0  0  0  0  0  0  0  0
   11.1928   24.1026   -1.6636 C   0  0  0  0  0  0  0  0  0  0  0  0
   11.0105   25.0699   -2.6119 N   0  0  0  0  0  0  0  0  0  0  0  0
   12.1768   25.6383   -2.9452 C   0  0  0  0  0  0  0  0  0  0  0  0
   12.5456   26.6390   -3.8283 C   0  0  0  0  0  0  0  0  0  0  0  0
   13.8602   27.0318   -3.9697 C   0  0  0  0  0  0  0  0  0  0  0  0
   14.8081   26.3933   -3.1983 C   0  0  0  0  0  0  0  0  0  0  0  0
   14.4359   25.3973   -2.3204 C   0  0  0  0  0  0  0  0  0  0  0  0
   13.1122   24.9932   -2.1700 C   0  0  0  0  0  0  0  0  0  0  0  0
   16.3239   21.7526    0.8270 C   0  0  0  0  0  0  0  0  0  0  0  0
   16.8052   20.7986    0.1766 O   0  0  0  0  0  0  0  0  0  0  0  0
   14.9230   21.9492    0.8533 N   0  0  0  0  0  0  0  0  0  0  0  0
   14.0697   21.0381    0.1239 C   0  0  0  0  0  0  0  0  0  0  0  0
   12.8947   21.7563   -0.5556 C   0  0  0  0  0  0  0  0  0  0  0  0
   13.2045   23.2149   -0.4696 C   0  0  0  0  0  0  0  0  0  0  0  0
   13.1359   23.6288    0.9681 C   0  0  0  0  0  0  0  0  0  0  0  0
   14.4154   23.0715    1.6247 C   0  0  0  0  0  0  0  0  0  0  0  0
   17.1838   22.5927    1.5063 O   0  0  0  0  0  0  0  0  0  0  0  0
   18.5785   24.4288    2.0289 C   0  0  0  0  0  0  0  0  0  0  0  0
   17.6669   23.7966    0.9800 C   0  0  0  0  0  0  0  0  0  0  0  0
   18.4956   23.5899   -0.2702 C   0  0  0  0  0  0  0  0  0  0  0  0
   16.5946   24.7942    0.6561 C   0  0  0  0  0  0  0  0  0  0  0  0
   10.1536   23.3016   -1.0882 N   0  0  0  0  0  0  0  0  0  0  0  0
    9.6583   23.6313    0.1915 C   0  0  0  0  0  0  0  0  0  0  0  0
   10.1701   24.6519    0.7990 O   0  0  0  0  0  0  0  0  0  0  0  0
    8.6308   22.9450    0.9072 N   0  0  0  0  0  0  0  0  0  0  0  0
    9.7984   22.5151   -1.6171 H   0  0  0  0  0  0  0  0  0  0  0  0
    7.8664   21.9388    0.2362 C   0  0  0  0  0  0  0  0  0  0  0  0
    6.5326   21.6526    0.9302 C   0  0  0  0  0  0  0  0  0  0  0  0
    5.8110   20.5415    0.1667 C   0  0  0  0  0  0  0  0  0  0  0  0
    6.3952   20.3752   -1.2171 C   0  0  0  0  0  0  0  0  0  0  0  0
    7.8390   19.9998   -1.2353 C   0  0  0  0  0  0  0  0  0  0  0  0
    8.5080   20.6108    0.0164 C   0  0  0  0  0  0  0  0  0  0  0  0
    8.3368   23.3851    2.2405 C   0  0  0  0  0  0  0  0  0  0  0  0
    9.0402   22.8255    3.3974 C   0  0  0  0  0  0  0  0  0  0  0  0
    9.2197   23.8127    4.5173 C   0  0  0  0  0  0  0  0  0  0  0  0
    8.0392   21.7738    4.0374 C   0  0  0  0  0  0  0  0  0  0  0  0
   10.2831   22.0432    3.1845 C   0  0  0  0  0  0  0  0  0  0  0  0
 19 20  1  0  0  0
 20 21  1  0  0  0
 20 22  1  0  0  0
 20 18  1  0  0  0
 18 10  1  0  0  0
 10 11  2  0  0  0
 10 12  1  0  0  0
 12 13  1  0  0  0
 13 14  1  0  0  0
 14 15  1  0  0  0
 15 16  1  0  0  0
 16 17  1  0  0  0
 15  1  1  0  0  0
  1  2  1  0  0  0
  2 23  1  0  0  0
 23 24  1  0  0  0
 24 25  2  0  0  0
 24 26  1  0  0  0
 26 34  1  0  0  0
 34 35  1  0  0  0
 35 36  1  0  0  0
 35 37  1  0  0  0
 35 38  1  0  0  0
 26 28  1  0  0  0
 28 29  1  0  0  0
 29 30  1  0  0  0
 30 31  1  0  0  0
 31 32  1  0  0  0
 32 33  1  0  0  0
  2  3  2  0  0  0
  3  4  1  0  0  0
  4  5  2  0  0  0
  5  6  1  0  0  0
  6  7  2  0  0  0
  7  8  1  0  0  0
  8  9  2  0  0  0
 17 12  1  0  0  0
  9  1  1  0  0  0
 33 28  1  0  0  0
  9  4  1  0  0  0
 23 27  1  0  0  0
M  END
> <minimizedAffinity>
3.59204

> <CNNscore>
0.5030650496

> <CNNaffinity>
7.6187410355

> <CNN_VS>
3.8327224255

> <CNNaffinity_variance>
0.2639783025

$$$$
[H]c1c([H])c([H])c2c(nc(N([H])C(=O)N(C([H])([H])C(C([H])([H])[H])(C([H])([H])[H])C([H])([H])[H])C3([H])C([H])([H])C([H])([H])C([H])([H])C([H])([H])C3([H])[H])n2C2([H])C([H])([H])C([H])([H])N(C(=O)OC(C([H])([H])[H])(C([H])([H])[H])C([H])([H])[H])C([H])([H])C2([H])[H])c1[H]


 38 41  0  0  0  0  0  0  0  0999 V2000
   12.6881   22.7797    0.3298 N   0  0  0  0  0  0  0  0  0  0  0  0
   11.8454   22.2259    1.1868 C   0  0  0  0  0  0  0  0  0  0  0  0
   12.4562   21.1156    1.6989 N   0  0  0  0  0  0  0  0  0  0  0  0
   13.6791   20.9586    1.1754 C   0  0  0  0  0  0  0  0  0  0  0  0
   14.6893   20.0267    1.3443 C   0  0  0  0  0  0  0  0  0  0  0  0
   15.8798   20.1159    0.6536 C   0  0  0  0  0  0  0  0  0  0  0  0
   16.0382   21.1707   -0.2202 C   0  0  0  0  0  0  0  0  0  0  0  0
   15.0294   22.0961   -0.3850 C   0  0  0  0  0  0  0  0  0  0  0  0
   13.8242   22.0155    0.3071 C   0  0  0  0  0  0  0  0  0  0  0  0
   13.7793   26.3552   -2.9830 C   0  0  0  0  0  0  0  0  0  0  0  0
   14.6140   27.1972   -2.5843 O   0  0  0  0  0  0  0  0  0  0  0  0
   12.7937   25.8669   -2.0929 N   0  0  0  0  0  0  0  0  0  0  0  0
   12.7701   26.3539   -0.7318 C   0  0  0  0  0  0  0  0  0  0  0  0
   12.4354   25.2468    0.2785 C   0  0  0  0  0  0  0  0  0  0  0  0
   12.5366   23.9622   -0.4770 C   0  0  0  0  0  0  0  0  0  0  0  0
   11.4298   23.9181   -1.4850 C   0  0  0  0  0  0  0  0  0  0  0  0
   11.8473   24.8909   -2.6066 C   0  0  0  0  0  0  0  0  0  0  0  0
   13.8463   25.9240   -4.2930 O   0  0  0  0  0  0  0  0  0  0  0  0
   14.7829   25.8077   -6.4607 C   0  0  0  0  0  0  0  0  0  0  0  0
   15.0482   25.6682   -4.9636 C   0  0  0  0  0  0  0  0  0  0  0  0
   16.1333   26.6613   -4.6048 C   0  0  0  0  0  0  0  0  0  0  0  0
   15.5955   24.2913   -4.7302 C   0  0  0  0  0  0  0  0  0  0  0  0
   10.5323   22.6823    1.5338 N   0  0  0  0  0  0  0  0  0  0  0  0
    9.4294   22.2584    0.7621 C   0  0  0  0  0  0  0  0  0  0  0  0
    9.6524   21.4695   -0.2381 O   0  0  0  0  0  0  0  0  0  0  0  0
    8.0619   22.6143    0.9679 N   0  0  0  0  0  0  0  0  0  0  0  0
   10.4281   23.3005    2.3285 H   0  0  0  0  0  0  0  0  0  0  0  0
    7.6945   23.3087    2.1637 C   0  0  0  0  0  0  0  0  0  0  0  0
    8.2917   24.7162    2.2338 C   0  0  0  0  0  0  0  0  0  0  0  0
    7.8785   25.3588    3.5585 C   0  0  0  0  0  0  0  0  0  0  0  0
    6.7089   24.6225    4.1696 C   0  0  0  0  0  0  0  0  0  0  0  0
    6.9806   23.1905    4.4879 C   0  0  0  0  0  0  0  0  0  0  0  0
    8.0144   22.6616    3.4685 C   0  0  0  0  0  0  0  0  0  0  0  0
    7.0993   22.1502    0.0110 C   0  0  0  0  0  0  0  0  0  0  0  0
    6.7415   20.7326   -0.0801 C   0  0  0  0  0  0  0  0  0  0  0  0
    5.8226   20.2804    1.0209 C   0  0  0  0  0  0  0  0  0  0  0  0
    5.8132   20.6084   -1.3610 C   0  0  0  0  0  0  0  0  0  0  0  0
    7.8066   19.7273   -0.3192 C   0  0  0  0  0  0  0  0  0  0  0  0
 19 20  1  0  0  0
 20 21  1  0  0  0
 20 22  1  0  0  0
 20 18  1  0  0  0
 18 10  1  0  0  0
 10 11  2  0  0  0
 10 12  1  0  0  0
 12 13  1  0  0  0
 13 14  1  0  0  0
 14 15  1  0  0  0
 15 16  1  0  0  0
 16 17  1  0  0  0
 15  1  1  0  0  0
  1  2  1  0  0  0
  2 23  1  0  0  0
 23 24  1  0  0  0
 24 25  2  0  0  0
 24 26  1  0  0  0
 26 34  1  0  0  0
 34 35  1  0  0  0
 35 36  1  0  0  0
 35 37  1  0  0  0
 35 38  1  0  0  0
 26 28  1  0  0  0
 28 29  1  0  0  0
 29 30  1  0  0  0
 30 31  1  0  0  0
 31 32  1  0  0  0
 32 33  1  0  0  0
  2  3  2  0  0  0
  3  4  1  0  0  0
  4  5  2  0  0  0
  5  6  1  0  0  0
  6  7  2  0  0  0
  7  8  1  0  0  0
  8  9  2  0  0  0
 17 12  1  0  0  0
  9  1  1  0  0  0
 33 28  1  0  0  0
  9  4  1  0  0  0
 23 27  1  0  0  0
M  END
> <minimizedAffinity>
-1.33086

> <CNNscore>
0.4881560504

> <CNNaffinity>
7.6338882446

> <CNN_VS>
3.7265286446

> <CNNaffinity_variance>
0.4923979342

$$$$
[H]c1c([H])c([H])c2c(nc(N([H])C(=O)N(C([H])([H])C(C([H])([H])[H])(C([H])([H])[H])C([H])([H])[H])C3([H])C([H])([H])C([H])([H])C([H])([H])C([H])([H])C3([H])[H])n2C2([H])C([H])([H])C([H])([H])N(C(=O)OC(C([H])([H])[H])(C([H])([H])[H])C([H])([H])[H])C([H])([H])C2([H])[H])c1[H]


 38 41  0  0  0  0  0  0  0  0999 V2000
   13.4203   24.3344   -0.9239 N   0  0  0  0  0  0  0  0  0  0  0  0
   12.1579   24.3065   -0.5277 C   0  0  0  0  0  0  0  0  0  0  0  0
   11.4427   25.0880   -1.3914 N   0  0  0  0  0  0  0  0  0  0  0  0
   12.2387   25.6122   -2.3326 C   0  0  0  0  0  0  0  0  0  0  0  0
   12.0311   26.4491   -3.4160 C   0  0  0  0  0  0  0  0  0  0  0  0
   13.0668   26.8375   -4.2401 C   0  0  0  0  0  0  0  0  0  0  0  0
   14.3293   26.3639   -3.9520 C   0  0  0  0  0  0  0  0  0  0  0  0
   14.5310   25.5307   -2.8720 C   0  0  0  0  0  0  0  0  0  0  0  0
   13.4929   25.1327   -2.0341 C   0  0  0  0  0  0  0  0  0  0  0  0
   18.0419   23.7378    0.8745 C   0  0  0  0  0  0  0  0  0  0  0  0
   18.9437   23.7514    0.0077 O   0  0  0  0  0  0  0  0  0  0  0  0
   16.8154   23.0870    0.6023 N   0  0  0  0  0  0  0  0  0  0  0  0
   16.6271   22.4461   -0.6800 C   0  0  0  0  0  0  0  0  0  0  0  0
   15.2039   22.6370   -1.2245 C   0  0  0  0  0  0  0  0  0  0  0  0
   14.5757   23.6836   -0.3638 C   0  0  0  0  0  0  0  0  0  0  0  0
   14.3948   23.1188    1.0115 C   0  0  0  0  0  0  0  0  0  0  0  0
   15.8016   23.0994    1.6435 C   0  0  0  0  0  0  0  0  0  0  0  0
   18.2740   24.3648    2.0827 O   0  0  0  0  0  0  0  0  0  0  0  0
   19.8795   24.2209    3.8122 C   0  0  0  0  0  0  0  0  0  0  0  0
   19.5249   24.8587    2.4711 C   0  0  0  0  0  0  0  0  0  0  0  0
   20.6211   24.4900    1.4939 C   0  0  0  0  0  0  0  0  0  0  0  0
   19.5618   26.3466    2.6570 C   0  0  0  0  0  0  0  0  0  0  0  0
   11.6132   23.5985    0.5924 N   0  0  0  0  0  0  0  0  0  0  0  0
   10.2640   23.8078    0.9496 C   0  0  0  0  0  0  0  0  0  0  0  0
    9.5689   24.6405    0.2452 O   0  0  0  0  0  0  0  0  0  0  0  0
    9.5654   23.1877    2.0296 N   0  0  0  0  0  0  0  0  0  0  0  0
   12.2129   22.9620    1.1020 H   0  0  0  0  0  0  0  0  0  0  0  0
   10.1850   22.1053    2.7308 C   0  0  0  0  0  0  0  0  0  0  0  0
   10.9288   21.1481    1.7966 C   0  0  0  0  0  0  0  0  0  0  0  0
   11.5187   20.0094    2.6295 C   0  0  0  0  0  0  0  0  0  0  0  0
   11.5636   20.3834    4.0930 C   0  0  0  0  0  0  0  0  0  0  0  0
   10.2299   20.6704    4.6968 C   0  0  0  0  0  0  0  0  0  0  0  0
    9.3187   21.2490    3.5910 C   0  0  0  0  0  0  0  0  0  0  0  0
    8.2178   23.6088    2.2833 C   0  0  0  0  0  0  0  0  0  0  0  0
    7.8855   24.4296    3.4503 C   0  0  0  0  0  0  0  0  0  0  0  0
    9.0945   24.8816    4.2217 C   0  0  0  0  0  0  0  0  0  0  0  0
    7.3324   25.7974    2.8662 C   0  0  0  0  0  0  0  0  0  0  0  0
    6.8128   23.9821    4.3729 C   0  0  0  0  0  0  0  0  0  0  0  0
 19 20  1  0  0  0
 20 21  1  0  0  0
 20 22  1  0  0  0
 20 18  1  0  0  0
 18 10  1  0  0  0
 10 11  2  0  0  0
 10 12  1  0  0  0
 12 13  1  0  0  0
 13 14  1  0  0  0
 14 15  1  0  0  0
 15 16  1  0  0  0
 16 17  1  0  0  0
 15  1  1  0  0  0
  1  2  1  0  0  0
  2 23  1  0  0  0
 23 24  1  0  0  0
 24 25  2  0  0  0
 24 26  1  0  0  0
 26 34  1  0  0  0
 34 35  1  0  0  0
 35 36  1  0  0  0
 35 37  1  0  0  0
 35 38  1  0  0  0
 26 28  1  0  0  0
 28 29  1  0  0  0
 29 30  1  0  0  0
 30 31  1  0  0  0
 31 32  1  0  0  0
 32 33  1  0  0  0
  2  3  2  0  0  0
  3  4  1  0  0  0
  4  5  2  0  0  0
  5  6  1  0  0  0
  6  7  2  0  0  0
  7  8  1  0  0  0
  8  9  2  0  0  0
 17 12  1  0  0  0
  9  1  1  0  0  0
 33 28  1  0  0  0
  9  4  1  0  0  0
 23 27  1  0  0  0
M  END
> <minimizedAffinity>
14.71170

> <CNNscore>
0.4821883142

> <CNNaffinity>
7.4648857117

> <CNN_VS>
3.5994806290

> <CNNaffinity_variance>
0.3260325491

$$$$
[H]c1c([H])c([H])c2c(nc(N([H])C(=O)N(C([H])([H])C(C([H])([H])[H])(C([H])([H])[H])C([H])([H])[H])C3([H])C([H])([H])C([H])([H])C([H])([H])C([H])([H])C3([H])[H])n2C2([H])C([H])([H])C([H])([H])N(C(=O)OC(C([H])([H])[H])(C([H])([H])[H])C([H])([H])[H])C([H])([H])C2([H])[H])c1[H]


 38 41  0  0  0  0  0  0  0  0999 V2000
   13.1628   24.5658   -1.5380 N   0  0  0  0  0  0  0  0  0  0  0  0
   11.9840   25.1672   -1.5269 C   0  0  0  0  0  0  0  0  0  0  0  0
   11.9145   25.9477   -2.6468 N   0  0  0  0  0  0  0  0  0  0  0  0
   13.0379   25.8479   -3.3694 C   0  0  0  0  0  0  0  0  0  0  0  0
   13.4756   26.4109   -4.5564 C   0  0  0  0  0  0  0  0  0  0  0  0
   14.7170   26.1190   -5.0820 C   0  0  0  0  0  0  0  0  0  0  0  0
   15.5196   25.2409   -4.3848 C   0  0  0  0  0  0  0  0  0  0  0  0
   15.0793   24.6828   -3.2033 C   0  0  0  0  0  0  0  0  0  0  0  0
   13.8285   24.9706   -2.6641 C   0  0  0  0  0  0  0  0  0  0  0  0
   16.6120   21.8871    0.8863 C   0  0  0  0  0  0  0  0  0  0  0  0
   17.0633   20.9144    0.2421 O   0  0  0  0  0  0  0  0  0  0  0  0
   15.2341   22.2002    0.8126 N   0  0  0  0  0  0  0  0  0  0  0  0
   14.3692   21.3847   -0.0104 C   0  0  0  0  0  0  0  0  0  0  0  0
   13.3139   22.2179   -0.7524 C   0  0  0  0  0  0  0  0  0  0  0  0
   13.7342   23.6423   -0.5931 C   0  0  0  0  0  0  0  0  0  0  0  0
   13.5869   24.0203    0.8485 C   0  0  0  0  0  0  0  0  0  0  0  0
   14.7609   23.3393    1.5810 C   0  0  0  0  0  0  0  0  0  0  0  0
   17.4815   22.6327    1.6573 O   0  0  0  0  0  0  0  0  0  0  0  0
   18.9221   23.5031   -0.0030 C   0  0  0  0  0  0  0  0  0  0  0  0
   18.0728   23.8254    1.2241 C   0  0  0  0  0  0  0  0  0  0  0  0
   17.0493   24.8589    0.8038 C   0  0  0  0  0  0  0  0  0  0  0  0
   18.9737   24.4631    2.2396 C   0  0  0  0  0  0  0  0  0  0  0  0
   10.9532   25.0427   -0.5397 N   0  0  0  0  0  0  0  0  0  0  0  0
   10.0703   23.9435   -0.6006 C   0  0  0  0  0  0  0  0  0  0  0  0
   10.2284   23.0866   -1.5563 O   0  0  0  0  0  0  0  0  0  0  0  0
    8.9949   23.6672    0.2974 N   0  0  0  0  0  0  0  0  0  0  0  0
   10.8839   25.7501    0.1809 H   0  0  0  0  0  0  0  0  0  0  0  0
    8.8724   24.4377    1.4967 C   0  0  0  0  0  0  0  0  0  0  0  0
    9.8140   23.9572    2.6035 C   0  0  0  0  0  0  0  0  0  0  0  0
    9.5812   24.8112    3.8504 C   0  0  0  0  0  0  0  0  0  0  0  0
    8.8478   26.0848    3.4986 C   0  0  0  0  0  0  0  0  0  0  0  0
    7.4971   25.8731    2.9016 C   0  0  0  0  0  0  0  0  0  0  0  0
    7.5224   24.5394    2.1217 C   0  0  0  0  0  0  0  0  0  0  0  0
    8.1526   22.5433    0.0056 C   0  0  0  0  0  0  0  0  0  0  0  0
    8.5165   21.1902    0.4331 C   0  0  0  0  0  0  0  0  0  0  0  0
    9.8299   21.1313    1.1626 C   0  0  0  0  0  0  0  0  0  0  0  0
    7.4831   20.8116    1.5762 C   0  0  0  0  0  0  0  0  0  0  0  0
    8.4016   20.0672   -0.5303 C   0  0  0  0  0  0  0  0  0  0  0  0
 19 20  1  0  0  0
 20 21  1  0  0  0
 20 22  1  0  0  0
 20 18  1  0  0  0
 18 10  1  0  0  0
 10 11  2  0  0  0
 10 12  1  0  0  0
 12 13  1  0  0  0
 13 14  1  0  0  0
 14 15  1  0  0  0
 15 16  1  0  0  0
 16 17  1  0  0  0
 15  1  1  0  0  0
  1  2  1  0  0  0
  2 23  1  0  0  0
 23 24  1  0  0  0
 24 25  2  0  0  0
 24 26  1  0  0  0
 26 34  1  0  0  0
 34 35  1  0  0  0
 35 36  1  0  0  0
 35 37  1  0  0  0
 35 38  1  0  0  0
 26 28  1  0  0  0
 28 29  1  0  0  0
 29 30  1  0  0  0
 30 31  1  0  0  0
 31 32  1  0  0  0
 32 33  1  0  0  0
  2  3  2  0  0  0
  3  4  1  0  0  0
  4  5  2  0  0  0
  5  6  1  0  0  0
  6  7  2  0  0  0
  7  8  1  0  0  0
  8  9  2  0  0  0
 17 12  1  0  0  0
  9  1  1  0  0  0
 33 28  1  0  0  0
  9  4  1  0  0  0
 23 27  1  0  0  0
M  END
> <minimizedAffinity>
4.45666

> <CNNscore>
0.4742880762

> <CNNaffinity>
7.7399454117

> <CNN_VS>
3.6709637642

> <CNNaffinity_variance>
0.3649143279

$$$$
[H]c1c([H])c([H])c2c(nc(N([H])C(=O)N(C([H])([H])C(C([H])([H])[H])(C([H])([H])[H])C([H])([H])[H])C3([H])C([H])([H])C([H])([H])C([H])([H])C([H])([H])C3([H])[H])n2C2([H])C([H])([H])C([H])([H])N(C(=O)OC(C([H])([H])[H])(C([H])([H])[H])C([H])([H])[H])C([H])([H])C2([H])[H])c1[H]


 38 41  0  0  0  0  0  0  0  0999 V2000
   13.4566   25.5303   -2.8589 N   0  0  0  0  0  0  0  0  0  0  0  0
   12.6688   25.3853   -1.8056 C   0  0  0  0  0  0  0  0  0  0  0  0
   11.9225   26.5250   -1.6953 N   0  0  0  0  0  0  0  0  0  0  0  0
   12.2287   27.3929   -2.6685 C   0  0  0  0  0  0  0  0  0  0  0  0
   11.7825   28.6587   -3.0089 C   0  0  0  0  0  0  0  0  0  0  0  0
   12.2912   29.3379   -4.0963 C   0  0  0  0  0  0  0  0  0  0  0  0
   13.2678   28.7144   -4.8438 C   0  0  0  0  0  0  0  0  0  0  0  0
   13.7088   27.4538   -4.5009 C   0  0  0  0  0  0  0  0  0  0  0  0
   13.2022   26.7597   -3.4057 C   0  0  0  0  0  0  0  0  0  0  0  0
   16.0417   22.9441   -6.2616 C   0  0  0  0  0  0  0  0  0  0  0  0
   15.4251   21.9758   -6.7584 O   0  0  0  0  0  0  0  0  0  0  0  0
   15.9099   23.2277   -4.8817 N   0  0  0  0  0  0  0  0  0  0  0  0
   15.0602   22.3877   -4.0677 C   0  0  0  0  0  0  0  0  0  0  0  0
   14.2689   23.1925   -3.0263 C   0  0  0  0  0  0  0  0  0  0  0  0
   14.4320   24.6267   -3.4106 C   0  0  0  0  0  0  0  0  0  0  0  0
   15.8631   25.0134   -3.1974 C   0  0  0  0  0  0  0  0  0  0  0  0
   16.6484   24.3630   -4.3546 C   0  0  0  0  0  0  0  0  0  0  0  0
   16.8403   23.7140   -7.0839 O   0  0  0  0  0  0  0  0  0  0  0  0
   16.9902   26.0569   -6.8049 C   0  0  0  0  0  0  0  0  0  0  0  0
   16.4253   24.9223   -7.6561 C   0  0  0  0  0  0  0  0  0  0  0  0
   16.9551   25.1083   -9.0623 C   0  0  0  0  0  0  0  0  0  0  0  0
   14.9360   25.0944   -7.7038 C   0  0  0  0  0  0  0  0  0  0  0  0
   12.5902   24.2564   -0.9269 N   0  0  0  0  0  0  0  0  0  0  0  0
   11.3276   23.8349   -0.4581 C   0  0  0  0  0  0  0  0  0  0  0  0
   10.2833   24.4935   -0.8432 O   0  0  0  0  0  0  0  0  0  0  0  0
   11.0699   22.7359    0.4165 N   0  0  0  0  0  0  0  0  0  0  0  0
   13.4471   23.7866   -0.6631 H   0  0  0  0  0  0  0  0  0  0  0  0
   12.1312   21.8280    0.7269 C   0  0  0  0  0  0  0  0  0  0  0  0
   13.1055   21.6413   -0.4386 C   0  0  0  0  0  0  0  0  0  0  0  0
   14.1743   20.6282   -0.0269 C   0  0  0  0  0  0  0  0  0  0  0  0
   14.2009   20.4574    1.4744 C   0  0  0  0  0  0  0  0  0  0  0  0
   12.9251   19.9521    2.0597 C   0  0  0  0  0  0  0  0  0  0  0  0
   11.7612   20.4552    1.1765 C   0  0  0  0  0  0  0  0  0  0  0  0
    9.7183   22.5300    0.8507 C   0  0  0  0  0  0  0  0  0  0  0  0
    9.3062   22.8366    2.2227 C   0  0  0  0  0  0  0  0  0  0  0  0
    9.9039   24.1111    2.7511 C   0  0  0  0  0  0  0  0  0  0  0  0
    7.7649   23.2033    2.1332 C   0  0  0  0  0  0  0  0  0  0  0  0
    9.3542   21.7691    3.2524 C   0  0  0  0  0  0  0  0  0  0  0  0
 19 20  1  0  0  0
 20 21  1  0  0  0
 20 22  1  0  0  0
 20 18  1  0  0  0
 18 10  1  0  0  0
 10 11  2  0  0  0
 10 12  1  0  0  0
 12 13  1  0  0  0
 13 14  1  0  0  0
 14 15  1  0  0  0
 15 16  1  0  0  0
 16 17  1  0  0  0
 15  1  1  0  0  0
  1  2  1  0  0  0
  2 23  1  0  0  0
 23 24  1  0  0  0
 24 25  2  0  0  0
 24 26  1  0  0  0
 26 34  1  0  0  0
 34 35  1  0  0  0
 35 36  1  0  0  0
 35 37  1  0  0  0
 35 38  1  0  0  0
 26 28  1  0  0  0
 28 29  1  0  0  0
 29 30  1  0  0  0
 30 31  1  0  0  0
 31 32  1  0  0  0
 32 33  1  0  0  0
  2  3  2  0  0  0
  3  4  1  0  0  0
  4  5  2  0  0  0
  5  6  1  0  0  0
  6  7  2  0  0  0
  7  8  1  0  0  0
  8  9  2  0  0  0
 17 12  1  0  0  0
  9  1  1  0  0  0
 33 28  1  0  0  0
  9  4  1  0  0  0
 23 27  1  0  0  0
M  END
> <minimizedAffinity>
28.28394

> <CNNscore>
0.4725500643

> <CNNaffinity>
7.4419403076

> <CNN_VS>
3.5166893005

> <CNNaffinity_variance>
0.6753000617

$$$$
[H]OC(=O)[C@@]([H])(N([H])C(=O)[C@@]([H])(N([H])C(=O)[C@@]([H])(N([H])C(=O)[C@@]([H])(N([H])C(=O)OC([H])([H])c1c([H])c([H])c([H])c([H])c1[H])C([H])([H])C([H])(C([H])([H])[H])C([H])([H])[H])C([H])(C([H])([H])[H])C([H])([H])[H])C([H])([H])[H])C([H])([H])C([H])(C([H])([H])[H])C([H])([H])[H]


 44 44  0  0  0  0  0  0  0  0999 V2000
   12.3111   20.6636    1.2888 C   0  0  0  0  0  0  0  0  0  0  0  0
   11.8615   22.0736    1.1485 N   0  0  0  0  0  0  0  0  0  0  0  0
   10.7610   22.4109    0.3524 C   0  0  0  0  0  0  0  0  0  0  0  0
   10.1419   21.5113   -0.2378 O   0  0  0  0  0  0  0  0  0  0  0  0
   12.4030   22.7767    1.6675 H   0  0  0  0  0  0  0  0  0  0  0  0
   10.3300   23.8080    0.2049 C   0  0  0  0  0  0  0  0  0  0  0  0
   10.8685   24.4688   -0.9466 N   0  0  0  0  0  0  0  0  0  0  0  0
   12.1922   25.0346   -0.9234 C   0  0  0  0  0  0  0  0  0  0  0  0
   12.8974   24.9517    0.1083 O   0  0  0  0  0  0  0  0  0  0  0  0
   10.3442   24.5753   -1.8556 H   0  0  0  0  0  0  0  0  0  0  0  0
   12.7334   25.6797   -2.0158 O   0  0  0  0  0  0  0  0  0  0  0  0
   13.5918   25.0738   -2.9699 C   0  0  0  0  0  0  0  0  0  0  0  0
   14.6443   25.9622   -3.4417 C   0  0  0  0  0  0  0  0  0  0  0  0
   14.5012   26.6571   -4.6178 C   0  0  0  0  0  0  0  0  0  0  0  0
   15.5127   27.5109   -5.0777 C   0  0  0  0  0  0  0  0  0  0  0  0
   16.6682   27.6541   -4.3367 C   0  0  0  0  0  0  0  0  0  0  0  0
   16.8200   26.9566   -3.1502 C   0  0  0  0  0  0  0  0  0  0  0  0
   15.8029   26.1233   -2.7259 C   0  0  0  0  0  0  0  0  0  0  0  0
    8.8733   24.0222    0.4390 C   0  0  0  0  0  0  0  0  0  0  0  0
    8.4198   24.3036    1.8081 C   0  0  0  0  0  0  0  0  0  0  0  0
    9.4213   24.8007    2.7815 C   0  0  0  0  0  0  0  0  0  0  0  0
    7.8896   22.9741    2.3784 C   0  0  0  0  0  0  0  0  0  0  0  0
   12.1252   20.2018    2.6652 C   0  0  0  0  0  0  0  0  0  0  0  0
   12.7166   19.1293    3.0614 O   0  0  0  0  0  0  0  0  0  0  0  0
   11.3344   20.8515    3.6313 N   0  0  0  0  0  0  0  0  0  0  0  0
   10.8502   21.7509    3.3340 H   0  0  0  0  0  0  0  0  0  0  0  0
   11.1263   20.4398    4.9865 C   0  0  0  0  0  0  0  0  0  0  0  0
   10.8226   21.6445    5.8957 C   0  0  0  0  0  0  0  0  0  0  0  0
   10.0197   19.4619    5.1194 C   0  0  0  0  0  0  0  0  0  0  0  0
   10.2315   18.2125    5.1997 O   0  0  0  0  0  0  0  0  0  0  0  0
    8.6711   19.8903    5.1538 N   0  0  0  0  0  0  0  0  0  0  0  0
    8.4630   20.8974    5.0818 H   0  0  0  0  0  0  0  0  0  0  0  0
    7.5903   18.9496    5.2746 C   0  0  0  0  0  0  0  0  0  0  0  0
    6.4873   19.4724    4.3659 C   0  0  0  0  0  0  0  0  0  0  0  0
    5.9379   20.7291    4.5816 O   0  0  0  0  0  0  0  0  0  0  0  0
    6.0503   18.7999    3.4137 O   0  0  0  0  0  0  0  0  0  0  0  0
    5.0483   20.8707    5.0600 H   0  0  0  0  0  0  0  0  0  0  0  0
    6.9741   18.8197    6.6112 C   0  0  0  0  0  0  0  0  0  0  0  0
    6.6612   17.4610    7.1122 C   0  0  0  0  0  0  0  0  0  0  0  0
    7.5522   16.3691    6.6015 C   0  0  0  0  0  0  0  0  0  0  0  0
    5.2187   17.0609    6.9178 C   0  0  0  0  0  0  0  0  0  0  0  0
   14.5557   21.7668    1.1698 C   0  0  0  0  0  0  0  0  0  0  0  0
   13.7340   20.6109    0.7708 C   0  0  0  0  0  0  0  0  0  0  0  0
   13.7762   20.3220   -0.7167 C   0  0  0  0  0  0  0  0  0  0  0  0
 42 43  1  0  0  0
 43 44  1  0  0  0
 43  1  1  0  0  0
  1  2  1  0  0  0
  2  3  1  0  0  0
  3  4  2  0  0  0
  3  6  1  0  0  0
  6 19  1  0  0  0
 19 20  1  0  0  0
 20 21  1  0  0  0
 20 22  1  0  0  0
  6  7  1  0  0  0
  7  8  1  0  0  0
  8  9  2  0  0  0
  8 11  1  0  0  0
 11 12  1  0  0  0
 12 13  1  0  0  0
 13 14  2  0  0  0
 14 15  1  0  0  0
 15 16  2  0  0  0
 16 17  1  0  0  0
 17 18  2  0  0  0
  1 23  1  0  0  0
 23 24  2  0  0  0
 23 25  1  0  0  0
 25 27  1  0  0  0
 27 28  1  0  0  0
 27 29  1  0  0  0
 29 30  2  0  0  0
 29 31  1  0  0  0
 31 33  1  0  0  0
 33 38  1  0  0  0
 38 39  1  0  0  0
 39 40  1  0  0  0
 39 41  1  0  0  0
 33 34  1  0  0  0
 34 35  1  0  0  0
 34 36  2  0  0  0
 18 13  1  0  0  0
  2  5  1  0  0  0
  7 10  1  0  0  0
 25 26  1  0  0  0
 31 32  1  0  0  0
 35 37  1  0  0  0
M  END
> <minimizedAffinity>
-6.73787

> <CNNscore>
0.2529525161

> <CNNaffinity>
6.6980504990

> <CNN_VS>
1.6942887306

> <CNNaffinity_variance>
0.0300792418

$$$$
[H]OC(=O)[C@@]([H])(N([H])C(=O)[C@@]([H])(N([H])C(=O)[C@@]([H])(N([H])C(=O)[C@@]([H])(N([H])C(=O)OC([H])([H])c1c([H])c([H])c([H])c([H])c1[H])C([H])([H])C([H])(C([H])([H])[H])C([H])([H])[H])C([H])(C([H])([H])[H])C([H])([H])[H])C([H])([H])[H])C([H])([H])C([H])(C([H])([H])[H])C([H])([H])[H]


 44 44  0  0  0  0  0  0  0  0999 V2000
   10.5024   21.3354    1.1403 C   0  0  0  0  0  0  0  0  0  0  0  0
    9.7791   22.0073    2.2517 N   0  0  0  0  0  0  0  0  0  0  0  0
    9.5951   21.3761    3.4871 C   0  0  0  0  0  0  0  0  0  0  0  0
   10.0568   20.2369    3.6600 O   0  0  0  0  0  0  0  0  0  0  0  0
    9.4276   22.9539    2.0581 H   0  0  0  0  0  0  0  0  0  0  0  0
    8.8662   22.0387    4.5775 C   0  0  0  0  0  0  0  0  0  0  0  0
    7.7977   22.8859    4.1380 N   0  0  0  0  0  0  0  0  0  0  0  0
    8.0402   24.2610    3.7869 C   0  0  0  0  0  0  0  0  0  0  0  0
    9.1967   24.7368    3.8563 O   0  0  0  0  0  0  0  0  0  0  0  0
    6.7981   22.5623    4.0449 H   0  0  0  0  0  0  0  0  0  0  0  0
    7.0297   25.0995    3.3650 O   0  0  0  0  0  0  0  0  0  0  0  0
    6.3109   25.9876    4.2070 C   0  0  0  0  0  0  0  0  0  0  0  0
    5.9955   27.2569    3.5674 C   0  0  0  0  0  0  0  0  0  0  0  0
    4.6939   27.6797    3.4511 C   0  0  0  0  0  0  0  0  0  0  0  0
    4.3850   28.8991    2.8336 C   0  0  0  0  0  0  0  0  0  0  0  0
    5.4047   29.6847    2.3360 C   0  0  0  0  0  0  0  0  0  0  0  0
    6.7195   29.2651    2.4491 C   0  0  0  0  0  0  0  0  0  0  0  0
    6.9887   28.0573    3.0638 C   0  0  0  0  0  0  0  0  0  0  0  0
    8.5379   21.1415    5.7219 C   0  0  0  0  0  0  0  0  0  0  0  0
    7.2176   20.4969    5.7479 C   0  0  0  0  0  0  0  0  0  0  0  0
    6.3560   20.7293    6.9316 C   0  0  0  0  0  0  0  0  0  0  0  0
    7.4681   18.9777    5.6906 C   0  0  0  0  0  0  0  0  0  0  0  0
   11.8948   21.7838    1.0909 C   0  0  0  0  0  0  0  0  0  0  0  0
   12.3197   22.6353    1.9579 O   0  0  0  0  0  0  0  0  0  0  0  0
   12.8471   21.3476    0.1508 N   0  0  0  0  0  0  0  0  0  0  0  0
   12.5256   20.6291   -0.5648 H   0  0  0  0  0  0  0  0  0  0  0  0
   14.2168   21.7548    0.0662 C   0  0  0  0  0  0  0  0  0  0  0  0
   15.1670   20.5936    0.4112 C   0  0  0  0  0  0  0  0  0  0  0  0
   14.5745   22.2691   -1.2777 C   0  0  0  0  0  0  0  0  0  0  0  0
   14.5724   21.5241   -2.3059 O   0  0  0  0  0  0  0  0  0  0  0  0
   14.9432   23.6229   -1.4636 N   0  0  0  0  0  0  0  0  0  0  0  0
   14.9641   24.2533   -0.6483 H   0  0  0  0  0  0  0  0  0  0  0  0
   15.2992   24.1296   -2.7614 C   0  0  0  0  0  0  0  0  0  0  0  0
   16.3438   25.2070   -2.5091 C   0  0  0  0  0  0  0  0  0  0  0  0
   16.6036   26.1715   -3.4735 O   0  0  0  0  0  0  0  0  0  0  0  0
   16.9881   25.2575   -1.4449 O   0  0  0  0  0  0  0  0  0  0  0  0
   17.4017   26.1218   -4.1066 H   0  0  0  0  0  0  0  0  0  0  0  0
   14.2247   24.7919   -3.5294 C   0  0  0  0  0  0  0  0  0  0  0  0
   13.4540   25.8729   -2.8718 C   0  0  0  0  0  0  0  0  0  0  0  0
   12.3268   25.4145   -1.9964 C   0  0  0  0  0  0  0  0  0  0  0  0
   12.9474   26.9244   -3.8291 C   0  0  0  0  0  0  0  0  0  0  0  0
    9.4906   20.3844   -0.9433 C   0  0  0  0  0  0  0  0  0  0  0  0
    9.6926   21.5863   -0.1155 C   0  0  0  0  0  0  0  0  0  0  0  0
   10.2216   22.7754   -0.8926 C   0  0  0  0  0  0  0  0  0  0  0  0
 42 43  1  0  0  0
 43 44  1  0  0  0
 43  1  1  0  0  0
  1  2  1  0  0  0
  2  3  1  0  0  0
  3  4  2  0  0  0
  3  6  1  0  0  0
  6 19  1  0  0  0
 19 20  1  0  0  0
 20 21  1  0  0  0
 20 22  1  0  0  0
  6  7  1  0  0  0
  7  8  1  0  0  0
  8  9  2  0  0  0
  8 11  1  0  0  0
 11 12  1  0  0  0
 12 13  1  0  0  0
 13 14  2  0  0  0
 14 15  1  0  0  0
 15 16  2  0  0  0
 16 17  1  0  0  0
 17 18  2  0  0  0
  1 23  1  0  0  0
 23 24  2  0  0  0
 23 25  1  0  0  0
 25 27  1  0  0  0
 27 28  1  0  0  0
 27 29  1  0  0  0
 29 30  2  0  0  0
 29 31  1  0  0  0
 31 33  1  0  0  0
 33 38  1  0  0  0
 38 39  1  0  0  0
 39 40  1  0  0  0
 39 41  1  0  0  0
 33 34  1  0  0  0
 34 35  1  0  0  0
 34 36  2  0  0  0
 18 13  1  0  0  0
  2  5  1  0  0  0
  7 10  1  0  0  0
 25 26  1  0  0  0
 31 32  1  0  0  0
 35 37  1  0  0  0
M  END
> <minimizedAffinity>
-8.18500

> <CNNscore>
0.2185498476

> <CNNaffinity>
6.7212333679

> <CNN_VS>
1.4689245224

> <CNNaffinity_variance>
0.1630123854

$$$$
[H]OC(=O)[C@@]([H])(N([H])C(=O)[C@@]([H])(N([H])C(=O)[C@@]([H])(N([H])C(=O)[C@@]([H])(N([H])C(=O)OC([H])([H])c1c([H])c([H])c([H])c([H])c1[H])C([H])([H])C([H])(C([H])([H])[H])C([H])([H])[H])C([H])(C([H])([H])[H])C([H])([H])[H])C([H])([H])[H])C([H])([H])C([H])(C([H])([H])[H])C([H])([H])[H]


 44 44  0  0  0  0  0  0  0  0999 V2000
    9.5756   23.0097    3.4285 C   0  0  0  0  0  0  0  0  0  0  0  0
   10.1434   23.1980    2.0676 N   0  0  0  0  0  0  0  0  0  0  0  0
   11.4154   22.7174    1.7368 C   0  0  0  0  0  0  0  0  0  0  0  0
   12.0761   22.1112    2.5952 O   0  0  0  0  0  0  0  0  0  0  0  0
    9.5494   23.6967    1.3927 H   0  0  0  0  0  0  0  0  0  0  0  0
   11.9783   22.9195    0.3945 C   0  0  0  0  0  0  0  0  0  0  0  0
   12.9136   24.0013    0.3081 N   0  0  0  0  0  0  0  0  0  0  0  0
   14.3258   23.7732    0.4707 C   0  0  0  0  0  0  0  0  0  0  0  0
   14.7591   22.6180    0.6860 O   0  0  0  0  0  0  0  0  0  0  0  0
   12.6327   25.0009    0.1228 H   0  0  0  0  0  0  0  0  0  0  0  0
   15.2474   24.7966    0.3967 O   0  0  0  0  0  0  0  0  0  0  0  0
   16.3880   24.7988   -0.4480 C   0  0  0  0  0  0  0  0  0  0  0  0
   16.0874   25.1886   -1.8181 C   0  0  0  0  0  0  0  0  0  0  0  0
   15.3228   24.3822   -2.6255 C   0  0  0  0  0  0  0  0  0  0  0  0
   15.0333   24.7516   -3.9458 C   0  0  0  0  0  0  0  0  0  0  0  0
   15.5244   25.9429   -4.4400 C   0  0  0  0  0  0  0  0  0  0  0  0
   16.2963   26.7612   -3.6323 C   0  0  0  0  0  0  0  0  0  0  0  0
   16.5625   26.3666   -2.3352 C   0  0  0  0  0  0  0  0  0  0  0  0
   12.3969   21.6600   -0.2846 C   0  0  0  0  0  0  0  0  0  0  0  0
   11.4150   20.9593   -1.1239 C   0  0  0  0  0  0  0  0  0  0  0  0
   10.3303   21.7615   -1.7381 C   0  0  0  0  0  0  0  0  0  0  0  0
   10.7225   19.9222   -0.2188 C   0  0  0  0  0  0  0  0  0  0  0  0
    8.7702   21.7888    3.4825 C   0  0  0  0  0  0  0  0  0  0  0  0
    9.2623   20.7256    4.0160 O   0  0  0  0  0  0  0  0  0  0  0  0
    7.4565   21.6698    2.9916 N   0  0  0  0  0  0  0  0  0  0  0  0
    7.0202   22.5402    2.5630 H   0  0  0  0  0  0  0  0  0  0  0  0
    6.6316   20.5004    3.0254 C   0  0  0  0  0  0  0  0  0  0  0  0
    5.6751   20.5264    4.2315 C   0  0  0  0  0  0  0  0  0  0  0  0
    5.8252   20.3383    1.7917 C   0  0  0  0  0  0  0  0  0  0  0  0
    5.2352   21.3178    1.2397 O   0  0  0  0  0  0  0  0  0  0  0  0
    5.6757   19.0696    1.1823 N   0  0  0  0  0  0  0  0  0  0  0  0
    6.1341   18.2511    1.6095 H   0  0  0  0  0  0  0  0  0  0  0  0
    4.8896   18.9004   -0.0098 C   0  0  0  0  0  0  0  0  0  0  0  0
    3.8395   17.8547    0.3357 C   0  0  0  0  0  0  0  0  0  0  0  0
    3.3730   16.9811   -0.6374 O   0  0  0  0  0  0  0  0  0  0  0  0
    3.3735   17.7504    1.4855 O   0  0  0  0  0  0  0  0  0  0  0  0
    2.4875   17.1159   -1.1250 H   0  0  0  0  0  0  0  0  0  0  0  0
    5.5951   18.3759   -1.1973 C   0  0  0  0  0  0  0  0  0  0  0  0
    6.0375   19.3373   -2.2340 C   0  0  0  0  0  0  0  0  0  0  0  0
    7.4627   19.7883   -2.1229 C   0  0  0  0  0  0  0  0  0  0  0  0
    5.1402   20.5442   -2.3635 C   0  0  0  0  0  0  0  0  0  0  0  0
    9.3885   25.4857    3.1061 C   0  0  0  0  0  0  0  0  0  0  0  0
    8.8410   24.2901    3.7704 C   0  0  0  0  0  0  0  0  0  0  0  0
    8.6710   24.4533    5.2678 C   0  0  0  0  0  0  0  0  0  0  0  0
 42 43  1  0  0  0
 43 44  1  0  0  0
 43  1  1  0  0  0
  1  2  1  0  0  0
  2  3  1  0  0  0
  3  4  2  0  0  0
  3  6  1  0  0  0
  6 19  1  0  0  0
 19 20  1  0  0  0
 20 21  1  0  0  0
 20 22  1  0  0  0
  6  7  1  0  0  0
  7  8  1  0  0  0
  8  9  2  0  0  0
  8 11  1  0  0  0
 11 12  1  0  0  0
 12 13  1  0  0  0
 13 14  2  0  0  0
 14 15  1  0  0  0
 15 16  2  0  0  0
 16 17  1  0  0  0
 17 18  2  0  0  0
  1 23  1  0  0  0
 23 24  2  0  0  0
 23 25  1  0  0  0
 25 27  1  0  0  0
 27 28  1  0  0  0
 27 29  1  0  0  0
 29 30  2  0  0  0
 29 31  1  0  0  0
 31 33  1  0  0  0
 33 38  1  0  0  0
 38 39  1  0  0  0
 39 40  1  0  0  0
 39 41  1  0  0  0
 33 34  1  0  0  0
 34 35  1  0  0  0
 34 36  2  0  0  0
 18 13  1  0  0  0
  2  5  1  0  0  0
  7 10  1  0  0  0
 25 26  1  0  0  0
 31 32  1  0  0  0
 35 37  1  0  0  0
M  END
> <minimizedAffinity>
-7.69277

> <CNNscore>
0.1922399104

> <CNNaffinity>
6.6614351273

> <CNN_VS>
1.2805936337

> <CNNaffinity_variance>
0.3066511750

$$$$
[H]OC(=O)[C@@]([H])(N([H])C(=O)[C@@]([H])(N([H])C(=O)[C@@]([H])(N([H])C(=O)[C@@]([H])(N([H])C(=O)OC([H])([H])c1c([H])c([H])c([H])c([H])c1[H])C([H])([H])C([H])(C([H])([H])[H])C([H])([H])[H])C([H])(C([H])([H])[H])C([H])([H])[H])C([H])([H])[H])C([H])([H])C([H])(C([H])([H])[H])C([H])([H])[H]


 44 44  0  0  0  0  0  0  0  0999 V2000
   11.2927   21.5369    3.3999 C   0  0  0  0  0  0  0  0  0  0  0  0
    9.8115   21.6625    3.4139 N   0  0  0  0  0  0  0  0  0  0  0  0
    9.1874   22.9151    3.4172 C   0  0  0  0  0  0  0  0  0  0  0  0
    9.8866   23.9405    3.3956 O   0  0  0  0  0  0  0  0  0  0  0  0
    9.2811   20.7819    3.4200 H   0  0  0  0  0  0  0  0  0  0  0  0
    7.7230   23.0338    3.4465 C   0  0  0  0  0  0  0  0  0  0  0  0
    7.2473   24.3718    3.6363 N   0  0  0  0  0  0  0  0  0  0  0  0
    6.8056   24.8235    4.9301 C   0  0  0  0  0  0  0  0  0  0  0  0
    6.8362   24.0497    5.9144 O   0  0  0  0  0  0  0  0  0  0  0  0
    7.1960   25.0872    2.8629 H   0  0  0  0  0  0  0  0  0  0  0  0
    6.3391   26.1044    5.1399 O   0  0  0  0  0  0  0  0  0  0  0  0
    5.1023   26.6045    4.6557 C   0  0  0  0  0  0  0  0  0  0  0  0
    5.2530   27.7507    3.7707 C   0  0  0  0  0  0  0  0  0  0  0  0
    4.1746   28.2549    3.0856 C   0  0  0  0  0  0  0  0  0  0  0  0
    4.3152   29.3559    2.2303 C   0  0  0  0  0  0  0  0  0  0  0  0
    5.5558   29.9404    2.0756 C   0  0  0  0  0  0  0  0  0  0  0  0
    6.6479   29.4377    2.7627 C   0  0  0  0  0  0  0  0  0  0  0  0
    6.4739   28.3509    3.5980 C   0  0  0  0  0  0  0  0  0  0  0  0
    7.0291   22.2566    2.3802 C   0  0  0  0  0  0  0  0  0  0  0  0
    7.6645   22.1626    1.0585 C   0  0  0  0  0  0  0  0  0  0  0  0
    8.0344   23.4255    0.3760 C   0  0  0  0  0  0  0  0  0  0  0  0
    6.6554   21.4545    0.1342 C   0  0  0  0  0  0  0  0  0  0  0  0
   11.7636   21.1829    2.0600 C   0  0  0  0  0  0  0  0  0  0  0  0
   13.0088   20.9145    1.8739 O   0  0  0  0  0  0  0  0  0  0  0  0
   10.9471   21.1007    0.9165 N   0  0  0  0  0  0  0  0  0  0  0  0
    9.9103   21.2995    1.0478 H   0  0  0  0  0  0  0  0  0  0  0  0
   11.3617   20.7564   -0.4097 C   0  0  0  0  0  0  0  0  0  0  0  0
   10.2639   21.0797   -1.4395 C   0  0  0  0  0  0  0  0  0  0  0  0
   12.6049   21.4550   -0.8155 C   0  0  0  0  0  0  0  0  0  0  0  0
   13.6038   20.8306   -1.2896 O   0  0  0  0  0  0  0  0  0  0  0  0
   12.7276   22.8586   -0.6798 N   0  0  0  0  0  0  0  0  0  0  0  0
   11.9387   23.3953   -0.2899 H   0  0  0  0  0  0  0  0  0  0  0  0
   13.9318   23.5446   -1.0632 C   0  0  0  0  0  0  0  0  0  0  0  0
   14.7444   23.6930    0.2148 C   0  0  0  0  0  0  0  0  0  0  0  0
   15.2128   22.5694    0.8825 O   0  0  0  0  0  0  0  0  0  0  0  0
   15.0118   24.8105    0.6942 O   0  0  0  0  0  0  0  0  0  0  0  0
   14.7525   22.1814    1.7057 H   0  0  0  0  0  0  0  0  0  0  0  0
   13.7714   24.9149   -1.5920 C   0  0  0  0  0  0  0  0  0  0  0  0
   13.7444   25.1030   -3.0612 C   0  0  0  0  0  0  0  0  0  0  0  0
   15.0492   24.8689   -3.7610 C   0  0  0  0  0  0  0  0  0  0  0  0
   13.1788   26.4349   -3.4912 C   0  0  0  0  0  0  0  0  0  0  0  0
   11.6537   19.1488    4.0602 C   0  0  0  0  0  0  0  0  0  0  0  0
   11.6529   20.5558    4.4969 C   0  0  0  0  0  0  0  0  0  0  0  0
   10.8402   20.7999    5.7530 C   0  0  0  0  0  0  0  0  0  0  0  0
 42 43  1  0  0  0
 43 44  1  0  0  0
 43  1  1  0  0  0
  1  2  1  0  0  0
  2  3  1  0  0  0
  3  4  2  0  0  0
  3  6  1  0  0  0
  6 19  1  0  0  0
 19 20  1  0  0  0
 20 21  1  0  0  0
 20 22  1  0  0  0
  6  7  1  0  0  0
  7  8  1  0  0  0
  8  9  2  0  0  0
  8 11  1  0  0  0
 11 12  1  0  0  0
 12 13  1  0  0  0
 13 14  2  0  0  0
 14 15  1  0  0  0
 15 16  2  0  0  0
 16 17  1  0  0  0
 17 18  2  0  0  0
  1 23  1  0  0  0
 23 24  2  0  0  0
 23 25  1  0  0  0
 25 27  1  0  0  0
 27 28  1  0  0  0
 27 29  1  0  0  0
 29 30  2  0  0  0
 29 31  1  0  0  0
 31 33  1  0  0  0
 33 38  1  0  0  0
 38 39  1  0  0  0
 39 40  1  0  0  0
 39 41  1  0  0  0
 33 34  1  0  0  0
 34 35  1  0  0  0
 34 36  2  0  0  0
 18 13  1  0  0  0
  2  5  1  0  0  0
  7 10  1  0  0  0
 25 26  1  0  0  0
 31 32  1  0  0  0
 35 37  1  0  0  0
M  END
> <minimizedAffinity>
-7.93165

> <CNNscore>
0.1682590395

> <CNNaffinity>
6.5564756393

> <CNN_VS>
1.1031862497

> <CNNaffinity_variance>
0.2510566711

$$$$
[H]OC(=O)[C@@]([H])(N([H])C(=O)[C@@]([H])(N([H])C(=O)[C@@]([H])(N([H])C(=O)[C@@]([H])(N([H])C(=O)OC([H])([H])c1c([H])c([H])c([H])c([H])c1[H])C([H])([H])C([H])(C([H])([H])[H])C([H])([H])[H])C([H])(C([H])([H])[H])C([H])([H])[H])C([H])([H])[H])C([H])([H])C([H])(C([H])([H])[H])C([H])([H])[H]


 44 44  0  0  0  0  0  0  0  0999 V2000
   12.5432   22.8423    1.2555 C   0  0  0  0  0  0  0  0  0  0  0  0
   11.1290   23.2999    1.2317 N   0  0  0  0  0  0  0  0  0  0  0  0
   10.2162   22.8943    2.2119 C   0  0  0  0  0  0  0  0  0  0  0  0
   10.6006   22.1472    3.1256 O   0  0  0  0  0  0  0  0  0  0  0  0
   10.8672   23.9262    0.4595 H   0  0  0  0  0  0  0  0  0  0  0  0
    8.8156   23.3373    2.1753 C   0  0  0  0  0  0  0  0  0  0  0  0
    8.5862   24.6072    2.7976 N   0  0  0  0  0  0  0  0  0  0  0  0
    7.4284   24.8276    3.6246 C   0  0  0  0  0  0  0  0  0  0  0  0
    6.6036   23.9048    3.8166 O   0  0  0  0  0  0  0  0  0  0  0  0
    9.2342   25.4328    2.6930 H   0  0  0  0  0  0  0  0  0  0  0  0
    7.1810   26.0409    4.2319 O   0  0  0  0  0  0  0  0  0  0  0  0
    7.5717   27.3015    3.7100 C   0  0  0  0  0  0  0  0  0  0  0  0
    6.4550   28.0816    3.1961 C   0  0  0  0  0  0  0  0  0  0  0  0
    6.6744   29.2097    2.4438 C   0  0  0  0  0  0  0  0  0  0  0  0
    5.6030   29.9656    1.9495 C   0  0  0  0  0  0  0  0  0  0  0  0
    4.3099   29.5691    2.2236 C   0  0  0  0  0  0  0  0  0  0  0  0
    4.0806   28.4331    2.9816 C   0  0  0  0  0  0  0  0  0  0  0  0
    5.1600   27.7110    3.4533 C   0  0  0  0  0  0  0  0  0  0  0  0
    8.1526   23.1468    0.8536 C   0  0  0  0  0  0  0  0  0  0  0  0
    7.3996   21.9063    0.6221 C   0  0  0  0  0  0  0  0  0  0  0  0
    6.8831   21.1781    1.8055 C   0  0  0  0  0  0  0  0  0  0  0  0
    8.3586   20.9363   -0.0944 C   0  0  0  0  0  0  0  0  0  0  0  0
   13.4205   23.8613    0.6772 C   0  0  0  0  0  0  0  0  0  0  0  0
   12.9406   25.0176    0.3773 O   0  0  0  0  0  0  0  0  0  0  0  0
   14.7924   23.6867    0.4158 N   0  0  0  0  0  0  0  0  0  0  0  0
   15.2172   22.7459    0.6727 H   0  0  0  0  0  0  0  0  0  0  0  0
   15.6879   24.6530   -0.1441 C   0  0  0  0  0  0  0  0  0  0  0  0
   17.1492   24.3404    0.2261 C   0  0  0  0  0  0  0  0  0  0  0  0
   15.5859   24.7331   -1.6211 C   0  0  0  0  0  0  0  0  0  0  0  0
   15.2602   23.7303   -2.3287 O   0  0  0  0  0  0  0  0  0  0  0  0
   15.8589   25.9423   -2.3043 N   0  0  0  0  0  0  0  0  0  0  0  0
   16.1349   26.7737   -1.7610 H   0  0  0  0  0  0  0  0  0  0  0  0
   15.7703   26.0284   -3.7369 C   0  0  0  0  0  0  0  0  0  0  0  0
   16.3532   27.3854   -4.1035 C   0  0  0  0  0  0  0  0  0  0  0  0
   17.4126   27.9129   -3.3774 O   0  0  0  0  0  0  0  0  0  0  0  0
   15.9058   28.0548   -5.0531 O   0  0  0  0  0  0  0  0  0  0  0  0
   17.2903   28.6188   -2.6516 H   0  0  0  0  0  0  0  0  0  0  0  0
   14.4114   26.0113   -4.3168 C   0  0  0  0  0  0  0  0  0  0  0  0
   13.3037   26.6022   -3.5303 C   0  0  0  0  0  0  0  0  0  0  0  0
   12.4582   25.6201   -2.7769 C   0  0  0  0  0  0  0  0  0  0  0  0
   12.4111   27.5170   -4.3335 C   0  0  0  0  0  0  0  0  0  0  0  0
   13.8094   20.7296    0.8054 C   0  0  0  0  0  0  0  0  0  0  0  0
   12.5715   21.4924    0.5680 C   0  0  0  0  0  0  0  0  0  0  0  0
   12.2005   21.6044   -0.8975 C   0  0  0  0  0  0  0  0  0  0  0  0
 42 43  1  0  0  0
 43 44  1  0  0  0
 43  1  1  0  0  0
  1  2  1  0  0  0
  2  3  1  0  0  0
  3  4  2  0  0  0
  3  6  1  0  0  0
  6 19  1  0  0  0
 19 20  1  0  0  0
 20 21  1  0  0  0
 20 22  1  0  0  0
  6  7  1  0  0  0
  7  8  1  0  0  0
  8  9  2  0  0  0
  8 11  1  0  0  0
 11 12  1  0  0  0
 12 13  1  0  0  0
 13 14  2  0  0  0
 14 15  1  0  0  0
 15 16  2  0  0  0
 16 17  1  0  0  0
 17 18  2  0  0  0
  1 23  1  0  0  0
 23 24  2  0  0  0
 23 25  1  0  0  0
 25 27  1  0  0  0
 27 28  1  0  0  0
 27 29  1  0  0  0
 29 30  2  0  0  0
 29 31  1  0  0  0
 31 33  1  0  0  0
 33 38  1  0  0  0
 38 39  1  0  0  0
 39 40  1  0  0  0
 39 41  1  0  0  0
 33 34  1  0  0  0
 34 35  1  0  0  0
 34 36  2  0  0  0
 18 13  1  0  0  0
  2  5  1  0  0  0
  7 10  1  0  0  0
 25 26  1  0  0  0
 31 32  1  0  0  0
 35 37  1  0  0  0
M  END
> <minimizedAffinity>
-7.52084

> <CNNscore>
0.1677398980

> <CNNaffinity>
6.7891817093

> <CNN_VS>
1.1388165951

> <CNNaffinity_variance>
0.0121899741

$$$$
[H]OC(=O)[C@@]([H])(N([H])C(=O)[C@@]([H])(N([H])C(=O)[C@@]([H])(N([H])C(=O)[C@@]([H])(N([H])C(=O)OC([H])([H])c1c([H])c([H])c([H])c([H])c1[H])C([H])([H])C([H])(C([H])([H])[H])C([H])([H])[H])C([H])(C([H])([H])[H])C([H])([H])[H])C([H])([H])[H])C([H])([H])C([H])(C([H])([H])[H])C([H])([H])[H]


 44 44  0  0  0  0  0  0  0  0999 V2000
    9.0269   23.6491    1.4253 C   0  0  0  0  0  0  0  0  0  0  0  0
    7.8688   22.8751    0.9060 N   0  0  0  0  0  0  0  0  0  0  0  0
    7.7484   21.5006    1.1397 C   0  0  0  0  0  0  0  0  0  0  0  0
    8.6213   20.9203    1.8046 O   0  0  0  0  0  0  0  0  0  0  0  0
    7.1699   23.4072    0.3717 H   0  0  0  0  0  0  0  0  0  0  0  0
    6.6093   20.7373    0.6112 C   0  0  0  0  0  0  0  0  0  0  0  0
    5.7772   20.1524    1.6202 N   0  0  0  0  0  0  0  0  0  0  0  0
    5.5870   18.7268    1.6876 C   0  0  0  0  0  0  0  0  0  0  0  0
    6.1541   17.9736    0.8632 O   0  0  0  0  0  0  0  0  0  0  0  0
    5.2705   20.7141    2.3552 H   0  0  0  0  0  0  0  0  0  0  0  0
    4.7883   18.1379    2.6454 O   0  0  0  0  0  0  0  0  0  0  0  0
    5.0423   16.8780    3.2475 C   0  0  0  0  0  0  0  0  0  0  0  0
    5.7432   16.9799    4.5195 C   0  0  0  0  0  0  0  0  0  0  0  0
    5.8003   18.1742    5.1955 C   0  0  0  0  0  0  0  0  0  0  0  0
    6.4762   18.2782    6.4185 C   0  0  0  0  0  0  0  0  0  0  0  0
    7.0926   17.1634    6.9495 C   0  0  0  0  0  0  0  0  0  0  0  0
    7.0398   15.9558    6.2738 C   0  0  0  0  0  0  0  0  0  0  0  0
    6.3648   15.8885    5.0702 C   0  0  0  0  0  0  0  0  0  0  0  0
    5.8822   21.4201   -0.4969 C   0  0  0  0  0  0  0  0  0  0  0  0
    5.6241   20.6665   -1.7317 C   0  0  0  0  0  0  0  0  0  0  0  0
    4.4833   19.7200   -1.7404 C   0  0  0  0  0  0  0  0  0  0  0  0
    6.8843   19.8228   -2.0042 C   0  0  0  0  0  0  0  0  0  0  0  0
   10.2595   22.8692    1.3037 C   0  0  0  0  0  0  0  0  0  0  0  0
   10.9271   22.5661    2.3619 O   0  0  0  0  0  0  0  0  0  0  0  0
   10.7968   22.3984    0.0911 N   0  0  0  0  0  0  0  0  0  0  0  0
   10.2533   22.6195   -0.7963 H   0  0  0  0  0  0  0  0  0  0  0  0
   11.9940   21.6316   -0.0755 C   0  0  0  0  0  0  0  0  0  0  0  0
   11.6823   20.2142   -0.5895 C   0  0  0  0  0  0  0  0  0  0  0  0
   12.9512   22.2691   -1.0114 C   0  0  0  0  0  0  0  0  0  0  0  0
   13.3194   21.7032   -2.0867 O   0  0  0  0  0  0  0  0  0  0  0  0
   13.5017   23.5429   -0.7325 N   0  0  0  0  0  0  0  0  0  0  0  0
   13.2310   24.0266    0.1367 H   0  0  0  0  0  0  0  0  0  0  0  0
   14.4366   24.1664   -1.6296 C   0  0  0  0  0  0  0  0  0  0  0  0
   15.5488   24.7148   -0.7477 C   0  0  0  0  0  0  0  0  0  0  0  0
   15.4536   24.6301    0.6349 O   0  0  0  0  0  0  0  0  0  0  0  0
   16.5647   25.2478   -1.2312 O   0  0  0  0  0  0  0  0  0  0  0  0
   15.1617   25.4130    1.2197 H   0  0  0  0  0  0  0  0  0  0  0  0
   13.9387   25.3222   -2.4038 C   0  0  0  0  0  0  0  0  0  0  0  0
   14.1278   25.3183   -3.8732 C   0  0  0  0  0  0  0  0  0  0  0  0
   15.2879   24.5081   -4.3676 C   0  0  0  0  0  0  0  0  0  0  0  0
   14.1883   26.6993   -4.4799 C   0  0  0  0  0  0  0  0  0  0  0  0
    7.2407   23.8865    3.1638 C   0  0  0  0  0  0  0  0  0  0  0  0
    8.6635   24.0775    2.8325 C   0  0  0  0  0  0  0  0  0  0  0  0
    9.1761   25.4701    3.1420 C   0  0  0  0  0  0  0  0  0  0  0  0
 42 43  1  0  0  0
 43 44  1  0  0  0
 43  1  1  0  0  0
  1  2  1  0  0  0
  2  3  1  0  0  0
  3  4  2  0  0  0
  3  6  1  0  0  0
  6 19  1  0  0  0
 19 20  1  0  0  0
 20 21  1  0  0  0
 20 22  1  0  0  0
  6  7  1  0  0  0
  7  8  1  0  0  0
  8  9  2  0  0  0
  8 11  1  0  0  0
 11 12  1  0  0  0
 12 13  1  0  0  0
 13 14  2  0  0  0
 14 15  1  0  0  0
 15 16  2  0  0  0
 16 17  1  0  0  0
 17 18  2  0  0  0
  1 23  1  0  0  0
 23 24  2  0  0  0
 23 25  1  0  0  0
 25 27  1  0  0  0
 27 28  1  0  0  0
 27 29  1  0  0  0
 29 30  2  0  0  0
 29 31  1  0  0  0
 31 33  1  0  0  0
 33 38  1  0  0  0
 38 39  1  0  0  0
 39 40  1  0  0  0
 39 41  1  0  0  0
 33 34  1  0  0  0
 34 35  1  0  0  0
 34 36  2  0  0  0
 18 13  1  0  0  0
  2  5  1  0  0  0
  7 10  1  0  0  0
 25 26  1  0  0  0
 31 32  1  0  0  0
 35 37  1  0  0  0
M  END
> <minimizedAffinity>
-7.02847

> <CNNscore>
0.1668827385

> <CNNaffinity>
6.6546301842

> <CNN_VS>
1.1105428934

> <CNNaffinity_variance>
0.2947140336

$$$$
[H]OC(=O)[C@@]([H])(N([H])C(=O)[C@@]([H])(N([H])C(=O)[C@@]([H])(N([H])C(=O)[C@@]([H])(N([H])C(=O)OC([H])([H])c1c([H])c([H])c([H])c([H])c1[H])C([H])([H])C([H])(C([H])([H])[H])C([H])([H])[H])C([H])(C([H])([H])[H])C([H])([H])[H])C([H])([H])[H])C([H])([H])C([H])(C([H])([H])[H])C([H])([H])[H]


 44 44  0  0  0  0  0  0  0  0999 V2000
   11.2402   21.6074    3.2277 C   0  0  0  0  0  0  0  0  0  0  0  0
    9.7543   21.5902    3.1870 N   0  0  0  0  0  0  0  0  0  0  0  0
    9.0107   22.7742    3.2483 C   0  0  0  0  0  0  0  0  0  0  0  0
    9.6065   23.8604    3.3258 O   0  0  0  0  0  0  0  0  0  0  0  0
    9.3128   20.6649    3.1111 H   0  0  0  0  0  0  0  0  0  0  0  0
    7.5416   22.7506    3.2230 C   0  0  0  0  0  0  0  0  0  0  0  0
    6.9866   21.8921    2.2194 N   0  0  0  0  0  0  0  0  0  0  0  0
    7.4014   21.9963    0.8446 C   0  0  0  0  0  0  0  0  0  0  0  0
    8.2624   22.8406    0.5062 O   0  0  0  0  0  0  0  0  0  0  0  0
    6.2635   21.1512    2.4213 H   0  0  0  0  0  0  0  0  0  0  0  0
    6.8805   21.1857   -0.1422 O   0  0  0  0  0  0  0  0  0  0  0  0
    5.7165   20.3859   -0.0016 C   0  0  0  0  0  0  0  0  0  0  0  0
    5.9976   18.9574   -0.0016 C   0  0  0  0  0  0  0  0  0  0  0  0
    6.8375   18.4074   -0.9391 C   0  0  0  0  0  0  0  0  0  0  0  0
    7.1087   17.0326   -0.9451 C   0  0  0  0  0  0  0  0  0  0  0  0
    6.5226   16.2216    0.0053 C   0  0  0  0  0  0  0  0  0  0  0  0
    5.6745   16.7686    0.9536 C   0  0  0  0  0  0  0  0  0  0  0  0
    5.4288   18.1280    0.9308 C   0  0  0  0  0  0  0  0  0  0  0  0
    6.9126   22.6448    4.5705 C   0  0  0  0  0  0  0  0  0  0  0  0
    7.0244   23.7892    5.4855 C   0  0  0  0  0  0  0  0  0  0  0  0
    7.9895   23.6889    6.6062 C   0  0  0  0  0  0  0  0  0  0  0  0
    5.6369   23.9757    6.1289 C   0  0  0  0  0  0  0  0  0  0  0  0
   11.7920   21.2729    1.9139 C   0  0  0  0  0  0  0  0  0  0  0  0
   13.0319   20.9427    1.8104 O   0  0  0  0  0  0  0  0  0  0  0  0
   11.0613   21.2738    0.7110 N   0  0  0  0  0  0  0  0  0  0  0  0
   10.0293   21.5248    0.7728 H   0  0  0  0  0  0  0  0  0  0  0  0
   11.5565   20.9515   -0.5929 C   0  0  0  0  0  0  0  0  0  0  0  0
   10.6330   21.5050   -1.6934 C   0  0  0  0  0  0  0  0  0  0  0  0
   12.9255   21.4714   -0.8250 C   0  0  0  0  0  0  0  0  0  0  0  0
   13.9089   20.7005   -1.0510 O   0  0  0  0  0  0  0  0  0  0  0  0
   13.1902   22.8615   -0.7945 N   0  0  0  0  0  0  0  0  0  0  0  0
   12.4161   23.5152   -0.6046 H   0  0  0  0  0  0  0  0  0  0  0  0
   14.5157   23.3753   -1.0106 C   0  0  0  0  0  0  0  0  0  0  0  0
   15.1189   23.5512    0.3753 C   0  0  0  0  0  0  0  0  0  0  0  0
   15.4982   22.4430    1.1209 O   0  0  0  0  0  0  0  0  0  0  0  0
   15.2901   24.6781    0.8763 O   0  0  0  0  0  0  0  0  0  0  0  0
   14.9232   22.0543    1.8682 H   0  0  0  0  0  0  0  0  0  0  0  0
   14.6131   24.7008   -1.6561 C   0  0  0  0  0  0  0  0  0  0  0  0
   13.7384   24.9832   -2.8180 C   0  0  0  0  0  0  0  0  0  0  0  0
   14.4411   25.4938   -4.0396 C   0  0  0  0  0  0  0  0  0  0  0  0
   12.5756   25.8899   -2.4948 C   0  0  0  0  0  0  0  0  0  0  0  0
   11.5635   19.2563    4.0257 C   0  0  0  0  0  0  0  0  0  0  0  0
   11.6515   20.6884    4.3599 C   0  0  0  0  0  0  0  0  0  0  0  0
   10.9539   21.0522    5.6556 C   0  0  0  0  0  0  0  0  0  0  0  0
 42 43  1  0  0  0
 43 44  1  0  0  0
 43  1  1  0  0  0
  1  2  1  0  0  0
  2  3  1  0  0  0
  3  4  2  0  0  0
  3  6  1  0  0  0
  6 19  1  0  0  0
 19 20  1  0  0  0
 20 21  1  0  0  0
 20 22  1  0  0  0
  6  7  1  0  0  0
  7  8  1  0  0  0
  8  9  2  0  0  0
  8 11  1  0  0  0
 11 12  1  0  0  0
 12 13  1  0  0  0
 13 14  2  0  0  0
 14 15  1  0  0  0
 15 16  2  0  0  0
 16 17  1  0  0  0
 17 18  2  0  0  0
  1 23  1  0  0  0
 23 24  2  0  0  0
 23 25  1  0  0  0
 25 27  1  0  0  0
 27 28  1  0  0  0
 27 29  1  0  0  0
 29 30  2  0  0  0
 29 31  1  0  0  0
 31 33  1  0  0  0
 33 38  1  0  0  0
 38 39  1  0  0  0
 39 40  1  0  0  0
 39 41  1  0  0  0
 33 34  1  0  0  0
 34 35  1  0  0  0
 34 36  2  0  0  0
 18 13  1  0  0  0
  2  5  1  0  0  0
  7 10  1  0  0  0
 25 26  1  0  0  0
 31 32  1  0  0  0
 35 37  1  0  0  0
M  END
> <minimizedAffinity>
-7.34297

> <CNNscore>
0.1667044908

> <CNNaffinity>
6.3866415024

> <CNN_VS>
1.0646817684

> <CNNaffinity_variance>
0.4245843291

$$$$
[H]OC(=O)[C@@]([H])(N([H])C(=O)[C@@]([H])(N([H])C(=O)[C@@]([H])(N([H])C(=O)[C@@]([H])(N([H])C(=O)OC([H])([H])c1c([H])c([H])c([H])c([H])c1[H])C([H])([H])C([H])(C([H])([H])[H])C([H])([H])[H])C([H])(C([H])([H])[H])C([H])([H])[H])C([H])([H])[H])C([H])([H])C([H])(C([H])([H])[H])C([H])([H])[H]


 44 44  0  0  0  0  0  0  0  0999 V2000
   11.2506   21.6061    3.3584 C   0  0  0  0  0  0  0  0  0  0  0  0
    9.7788   21.8079    3.4150 N   0  0  0  0  0  0  0  0  0  0  0  0
    9.2178   23.0893    3.3732 C   0  0  0  0  0  0  0  0  0  0  0  0
    9.9655   24.0751    3.2746 O   0  0  0  0  0  0  0  0  0  0  0  0
    9.2062   20.9570    3.4850 H   0  0  0  0  0  0  0  0  0  0  0  0
    7.7630   23.2841    3.4448 C   0  0  0  0  0  0  0  0  0  0  0  0
    6.9988   22.1164    3.1206 N   0  0  0  0  0  0  0  0  0  0  0  0
    6.7397   21.7586    1.7503 C   0  0  0  0  0  0  0  0  0  0  0  0
    7.1859   22.4648    0.8171 O   0  0  0  0  0  0  0  0  0  0  0  0
    6.5939   21.4654    3.8450 H   0  0  0  0  0  0  0  0  0  0  0  0
    6.0037   20.6429    1.4101 O   0  0  0  0  0  0  0  0  0  0  0  0
    4.7257   20.6737    0.7936 C   0  0  0  0  0  0  0  0  0  0  0  0
    4.7806   20.5037   -0.6513 C   0  0  0  0  0  0  0  0  0  0  0  0
    3.9698   21.2442   -1.4764 C   0  0  0  0  0  0  0  0  0  0  0  0
    4.0167   21.0820   -2.8674 C   0  0  0  0  0  0  0  0  0  0  0  0
    4.8908   20.1645   -3.4141 C   0  0  0  0  0  0  0  0  0  0  0  0
    5.7113   19.4139   -2.5888 C   0  0  0  0  0  0  0  0  0  0  0  0
    5.6394   19.5992   -1.2215 C   0  0  0  0  0  0  0  0  0  0  0  0
    7.3085   24.0270    4.6548 C   0  0  0  0  0  0  0  0  0  0  0  0
    7.0379   25.4660    4.5303 C   0  0  0  0  0  0  0  0  0  0  0  0
    7.1936   26.0874    3.1935 C   0  0  0  0  0  0  0  0  0  0  0  0
    8.0382   26.1838    5.4568 C   0  0  0  0  0  0  0  0  0  0  0  0
   11.6646   21.2358    2.0042 C   0  0  0  0  0  0  0  0  0  0  0  0
   12.9067   21.0006    1.7611 O   0  0  0  0  0  0  0  0  0  0  0  0
   10.7950   21.1028    0.9057 N   0  0  0  0  0  0  0  0  0  0  0  0
    9.7604   21.2734    1.0851 H   0  0  0  0  0  0  0  0  0  0  0  0
   11.1532   20.7407   -0.4322 C   0  0  0  0  0  0  0  0  0  0  0  0
    9.9733   20.9426   -1.4003 C   0  0  0  0  0  0  0  0  0  0  0  0
   12.3124   21.5141   -0.9388 C   0  0  0  0  0  0  0  0  0  0  0  0
   13.2135   20.9825   -1.6584 O   0  0  0  0  0  0  0  0  0  0  0  0
   12.4621   22.8869   -0.6283 N   0  0  0  0  0  0  0  0  0  0  0  0
   11.7532   23.3477   -0.0387 H   0  0  0  0  0  0  0  0  0  0  0  0
   13.5865   23.6439   -1.1083 C   0  0  0  0  0  0  0  0  0  0  0  0
   14.4793   23.8662    0.1038 C   0  0  0  0  0  0  0  0  0  0  0  0
   15.1750   22.8046    0.6666 O   0  0  0  0  0  0  0  0  0  0  0  0
   14.6130   24.9910    0.6206 O   0  0  0  0  0  0  0  0  0  0  0  0
   14.8573   22.3143    1.5025 H   0  0  0  0  0  0  0  0  0  0  0  0
   13.2969   24.9918   -1.6395 C   0  0  0  0  0  0  0  0  0  0  0  0
   14.0744   25.4698   -2.8065 C   0  0  0  0  0  0  0  0  0  0  0  0
   13.3315   26.3723   -3.7448 C   0  0  0  0  0  0  0  0  0  0  0  0
   14.7291   24.3605   -3.5937 C   0  0  0  0  0  0  0  0  0  0  0  0
   11.5631   19.2017    3.9831 C   0  0  0  0  0  0  0  0  0  0  0  0
   11.5903   20.6018    4.4408 C   0  0  0  0  0  0  0  0  0  0  0  0
   10.7818   20.8434    5.7001 C   0  0  0  0  0  0  0  0  0  0  0  0
 42 43  1  0  0  0
 43 44  1  0  0  0
 43  1  1  0  0  0
  1  2  1  0  0  0
  2  3  1  0  0  0
  3  4  2  0  0  0
  3  6  1  0  0  0
  6 19  1  0  0  0
 19 20  1  0  0  0
 20 21  1  0  0  0
 20 22  1  0  0  0
  6  7  1  0  0  0
  7  8  1  0  0  0
  8  9  2  0  0  0
  8 11  1  0  0  0
 11 12  1  0  0  0
 12 13  1  0  0  0
 13 14  2  0  0  0
 14 15  1  0  0  0
 15 16  2  0  0  0
 16 17  1  0  0  0
 17 18  2  0  0  0
  1 23  1  0  0  0
 23 24  2  0  0  0
 23 25  1  0  0  0
 25 27  1  0  0  0
 27 28  1  0  0  0
 27 29  1  0  0  0
 29 30  2  0  0  0
 29 31  1  0  0  0
 31 33  1  0  0  0
 33 38  1  0  0  0
 38 39  1  0  0  0
 39 40  1  0  0  0
 39 41  1  0  0  0
 33 34  1  0  0  0
 34 35  1  0  0  0
 34 36  2  0  0  0
 18 13  1  0  0  0
  2  5  1  0  0  0
  7 10  1  0  0  0
 25 26  1  0  0  0
 31 32  1  0  0  0
 35 37  1  0  0  0
M  END
> <minimizedAffinity>
-7.96981

> <CNNscore>
0.1659982800

> <CNNaffinity>
6.3940153122

> <CNN_VS>
1.0613955259

> <CNNaffinity_variance>
0.3705433309

$$$$
[H]OC(=O)[C@@]([H])(N([H])C(=O)[C@@]([H])(N([H])C(=O)[C@@]([H])(N([H])C(=O)[C@@]([H])(N([H])C(=O)OC([H])([H])c1c([H])c([H])c([H])c([H])c1[H])C([H])([H])C([H])(C([H])([H])[H])C([H])([H])[H])C([H])(C([H])([H])[H])C([H])([H])[H])C([H])([H])[H])C([H])([H])C([H])(C([H])([H])[H])C([H])([H])[H]


 44 44  0  0  0  0  0  0  0  0999 V2000
    9.0203   23.6465    1.6182 C   0  0  0  0  0  0  0  0  0  0  0  0
    7.8232   22.8761    1.1899 N   0  0  0  0  0  0  0  0  0  0  0  0
    7.7027   21.5084    1.4607 C   0  0  0  0  0  0  0  0  0  0  0  0
    8.6094   20.9316    2.0820 O   0  0  0  0  0  0  0  0  0  0  0  0
    7.0979   23.4052    0.6890 H   0  0  0  0  0  0  0  0  0  0  0  0
    6.5241   20.7482    1.0218 C   0  0  0  0  0  0  0  0  0  0  0  0
    5.4506   20.7323    1.9704 N   0  0  0  0  0  0  0  0  0  0  0  0
    5.1917   19.5670    2.7754 C   0  0  0  0  0  0  0  0  0  0  0  0
    5.9092   18.5469    2.6604 O   0  0  0  0  0  0  0  0  0  0  0  0
    4.8053   21.5504    2.1338 H   0  0  0  0  0  0  0  0  0  0  0  0
    4.1626   19.5229    3.6926 O   0  0  0  0  0  0  0  0  0  0  0  0
    4.3327   19.3592    5.0921 C   0  0  0  0  0  0  0  0  0  0  0  0
    5.1301   20.4141    5.7012 C   0  0  0  0  0  0  0  0  0  0  0  0
    4.5929   21.6577    5.9280 C   0  0  0  0  0  0  0  0  0  0  0  0
    5.3572   22.6772    6.5112 C   0  0  0  0  0  0  0  0  0  0  0  0
    6.6681   22.4260    6.8618 C   0  0  0  0  0  0  0  0  0  0  0  0
    7.2170   21.1748    6.6360 C   0  0  0  0  0  0  0  0  0  0  0  0
    6.4353   20.1924    6.0592 C   0  0  0  0  0  0  0  0  0  0  0  0
    6.1229   21.0110   -0.3897 C   0  0  0  0  0  0  0  0  0  0  0  0
    6.6527   20.1323   -1.4417 C   0  0  0  0  0  0  0  0  0  0  0  0
    5.8155   19.9086   -2.6445 C   0  0  0  0  0  0  0  0  0  0  0  0
    6.8573   18.7479   -0.7972 C   0  0  0  0  0  0  0  0  0  0  0  0
   10.2338   22.8482    1.4383 C   0  0  0  0  0  0  0  0  0  0  0  0
   11.0067   22.6307    2.4446 O   0  0  0  0  0  0  0  0  0  0  0  0
   10.6435   22.2710    0.2219 N   0  0  0  0  0  0  0  0  0  0  0  0
   10.0116   22.4203   -0.6208 H   0  0  0  0  0  0  0  0  0  0  0  0
   11.8174   21.4822   -0.0001 C   0  0  0  0  0  0  0  0  0  0  0  0
   11.4653   20.1222   -0.6300 C   0  0  0  0  0  0  0  0  0  0  0  0
   12.8019   22.1629   -0.8752 C   0  0  0  0  0  0  0  0  0  0  0  0
   13.3215   21.5858   -1.8799 O   0  0  0  0  0  0  0  0  0  0  0  0
   13.2088   23.4932   -0.6145 N   0  0  0  0  0  0  0  0  0  0  0  0
   12.8132   23.9882    0.1986 H   0  0  0  0  0  0  0  0  0  0  0  0
   14.1687   24.1596   -1.4525 C   0  0  0  0  0  0  0  0  0  0  0  0
   15.3139   24.5543   -0.5314 C   0  0  0  0  0  0  0  0  0  0  0  0
   16.4481   25.1679   -1.0460 O   0  0  0  0  0  0  0  0  0  0  0  0
   15.2697   24.3437    0.6948 O   0  0  0  0  0  0  0  0  0  0  0  0
   17.3146   24.6637   -1.2336 H   0  0  0  0  0  0  0  0  0  0  0  0
   13.7263   25.4146   -2.0946 C   0  0  0  0  0  0  0  0  0  0  0  0
   13.7504   25.4941   -3.5738 C   0  0  0  0  0  0  0  0  0  0  0  0
   15.0378   25.0744   -4.2168 C   0  0  0  0  0  0  0  0  0  0  0  0
   13.3378   26.8416   -4.1148 C   0  0  0  0  0  0  0  0  0  0  0  0
    7.3497   23.9424    3.4596 C   0  0  0  0  0  0  0  0  0  0  0  0
    8.7503   24.1109    3.0349 C   0  0  0  0  0  0  0  0  0  0  0  0
    9.2938   25.5048    3.2786 C   0  0  0  0  0  0  0  0  0  0  0  0
 42 43  1  0  0  0
 43 44  1  0  0  0
 43  1  1  0  0  0
  1  2  1  0  0  0
  2  3  1  0  0  0
  3  4  2  0  0  0
  3  6  1  0  0  0
  6 19  1  0  0  0
 19 20  1  0  0  0
 20 21  1  0  0  0
 20 22  1  0  0  0
  6  7  1  0  0  0
  7  8  1  0  0  0
  8  9  2  0  0  0
  8 11  1  0  0  0
 11 12  1  0  0  0
 12 13  1  0  0  0
 13 14  2  0  0  0
 14 15  1  0  0  0
 15 16  2  0  0  0
 16 17  1  0  0  0
 17 18  2  0  0  0
  1 23  1  0  0  0
 23 24  2  0  0  0
 23 25  1  0  0  0
 25 27  1  0  0  0
 27 28  1  0  0  0
 27 29  1  0  0  0
 29 30  2  0  0  0
 29 31  1  0  0  0
 31 33  1  0  0  0
 33 38  1  0  0  0
 38 39  1  0  0  0
 39 40  1  0  0  0
 39 41  1  0  0  0
 33 34  1  0  0  0
 34 35  1  0  0  0
 34 36  2  0  0  0
 18 13  1  0  0  0
  2  5  1  0  0  0
  7 10  1  0  0  0
 25 26  1  0  0  0
 31 32  1  0  0  0
 35 37  1  0  0  0
M  END
> <minimizedAffinity>
-6.57190

> <CNNscore>
0.1635064930

> <CNNaffinity>
6.6986527443

> <CNN_VS>
1.0952732563

> <CNNaffinity_variance>
0.2923465669

$$$$
[H]c1c([H])c(O[C@]2([H])C([H])([H])C([H])([H])[C@@]([H])(N([H])S(=O)(=O)c3c([H])c([H])c(OC([H])([H])[H])c([H])c3[H])C([H])([H])C2([H])[H])c([H])c(Cl)c1Cl


 28 30  0  0  0  0  0  0  0  0999 V2000
   12.6481   21.1305    1.1561 C   0  0  0  0  0  0  0  0  0  0  0  0
   12.1287   22.0775    0.0965 C   0  0  0  0  0  0  0  0  0  0  0  0
   13.0512   23.2581    0.0260 C   0  0  0  0  0  0  0  0  0  0  0  0
   14.3945   22.8742   -0.5964 C   0  0  0  0  0  0  0  0  0  0  0  0
   14.4641   21.3610   -0.5480 C   0  0  0  0  0  0  0  0  0  0  0  0
   14.1127   20.8733    0.8225 C   0  0  0  0  0  0  0  0  0  0  0  0
   12.4726   21.7360    2.4294 N   0  0  0  0  0  0  0  0  0  0  0  0
   12.5812   22.7705    2.3698 H   0  0  0  0  0  0  0  0  0  0  0  0
   10.9486   21.4251    3.1560 S   0  0  0  0  0  0  0  0  0  0  0  0
   10.1052   20.5171    2.3012 O   0  0  0  0  0  0  0  0  0  0  0  0
   11.1924   20.7061    4.4527 O   0  0  0  0  0  0  0  0  0  0  0  0
    8.7396   25.2167    4.1029 C   0  0  0  0  0  0  0  0  0  0  0  0
    9.3517   25.1049    2.8837 C   0  0  0  0  0  0  0  0  0  0  0  0
   10.0304   23.9163    2.6171 C   0  0  0  0  0  0  0  0  0  0  0  0
   10.0869   22.9006    3.5290 C   0  0  0  0  0  0  0  0  0  0  0  0
    9.4667   23.0199    4.7584 C   0  0  0  0  0  0  0  0  0  0  0  0
    8.7911   24.1930    5.0341 C   0  0  0  0  0  0  0  0  0  0  0  0
    7.8666   27.4726    3.6236 C   0  0  0  0  0  0  0  0  0  0  0  0
    8.0503   26.3536    4.4456 O   0  0  0  0  0  0  0  0  0  0  0  0
   14.3919   23.3392   -1.8998 O   0  0  0  0  0  0  0  0  0  0  0  0
   15.0009   24.4116   -2.4596 C   0  0  0  0  0  0  0  0  0  0  0  0
   16.0421   25.0081   -1.7613 C   0  0  0  0  0  0  0  0  0  0  0  0
   16.7000   26.1070   -2.2862 C   0  0  0  0  0  0  0  0  0  0  0  0
   16.3122   26.6009   -3.5049 C   0  0  0  0  0  0  0  0  0  0  0  0
   17.1390   27.9964   -4.1840 Cl  0  0  0  0  0  0  0  0  0  0  0  0
   15.2883   26.0228   -4.2030 C   0  0  0  0  0  0  0  0  0  0  0  0
   14.7719   26.6341   -5.7635 Cl  0  0  0  0  0  0  0  0  0  0  0  0
   14.6277   24.9141   -3.6690 C   0  0  0  0  0  0  0  0  0  0  0  0
 18 19  1  0  0  0
 19 12  1  0  0  0
 12 13  2  0  0  0
 13 14  1  0  0  0
 14 15  2  0  0  0
 15 16  1  0  0  0
 16 17  2  0  0  0
 15  9  1  0  0  0
  9 10  2  0  0  0
  9 11  2  0  0  0
  9  7  1  0  0  0
  7  1  1  0  0  0
  1  2  1  0  0  0
  2  3  1  0  0  0
  3  4  1  0  0  0
  4  5  1  0  0  0
  5  6  1  0  0  0
  4 20  1  0  0  0
 20 21  1  0  0  0
 21 22  2  0  0  0
 22 23  1  0  0  0
 23 24  2  0  0  0
 24 25  1  0  0  0
 24 26  1  0  0  0
 26 27  1  0  0  0
 26 28  2  0  0  0
 17 12  1  0  0  0
  6  1  1  0  0  0
 28 21  1  0  0  0
  7  8  1  0  0  0
M  END
> <minimizedAffinity>
-9.21407

> <CNNscore>
0.5158458352

> <CNNaffinity>
6.9974670410

> <CNN_VS>
3.6096141338

> <CNNaffinity_variance>
0.0585874319

$$$$
[H]c1c([H])c(O[C@]2([H])C([H])([H])C([H])([H])[C@@]([H])(N([H])S(=O)(=O)c3c([H])c([H])c(OC([H])([H])[H])c([H])c3[H])C([H])([H])C2([H])[H])c([H])c(Cl)c1Cl


 28 30  0  0  0  0  0  0  0  0999 V2000
   12.6769   22.2868   -1.1352 C   0  0  0  0  0  0  0  0  0  0  0  0
   12.1269   21.4202   -0.0235 C   0  0  0  0  0  0  0  0  0  0  0  0
   12.0695   22.2415    1.2303 C   0  0  0  0  0  0  0  0  0  0  0  0
   10.9680   23.2994    1.1488 C   0  0  0  0  0  0  0  0  0  0  0  0
   10.5972   23.4094   -0.3166 C   0  0  0  0  0  0  0  0  0  0  0  0
   11.8315   23.5547   -1.1502 C   0  0  0  0  0  0  0  0  0  0  0  0
   14.0490   22.5443   -0.8715 N   0  0  0  0  0  0  0  0  0  0  0  0
   14.6598   22.0654   -1.5666 H   0  0  0  0  0  0  0  0  0  0  0  0
   14.4712   24.2083   -0.8839 S   0  0  0  0  0  0  0  0  0  0  0  0
   13.5208   25.0244   -0.0488 O   0  0  0  0  0  0  0  0  0  0  0  0
   15.8316   24.3451   -0.2610 O   0  0  0  0  0  0  0  0  0  0  0  0
   14.7385   25.8392   -5.0577 C   0  0  0  0  0  0  0  0  0  0  0  0
   15.5142   24.7608   -4.7273 C   0  0  0  0  0  0  0  0  0  0  0  0
   15.4105   24.2757   -3.4240 C   0  0  0  0  0  0  0  0  0  0  0  0
   14.5723   24.8469   -2.5089 C   0  0  0  0  0  0  0  0  0  0  0  0
   13.7917   25.9356   -2.8491 C   0  0  0  0  0  0  0  0  0  0  0  0
   13.8857   26.4253   -4.1374 C   0  0  0  0  0  0  0  0  0  0  0  0
   15.6450   25.9811   -7.3467 C   0  0  0  0  0  0  0  0  0  0  0  0
   14.7800   26.3790   -6.3195 O   0  0  0  0  0  0  0  0  0  0  0  0
    9.9037   22.8445    1.9073 O   0  0  0  0  0  0  0  0  0  0  0  0
    8.9797   23.5187    2.6324 C   0  0  0  0  0  0  0  0  0  0  0  0
    7.9151   22.8011    3.1608 C   0  0  0  0  0  0  0  0  0  0  0  0
    6.9417   23.4395    3.9098 C   0  0  0  0  0  0  0  0  0  0  0  0
    7.0401   24.7899    4.1249 C   0  0  0  0  0  0  0  0  0  0  0  0
    5.8108   25.6139    5.0746 Cl  0  0  0  0  0  0  0  0  0  0  0  0
    8.0835   25.5085    3.6102 C   0  0  0  0  0  0  0  0  0  0  0  0
    8.2337   27.2363    3.8699 Cl  0  0  0  0  0  0  0  0  0  0  0  0
    9.0631   24.8597    2.8551 C   0  0  0  0  0  0  0  0  0  0  0  0
 18 19  1  0  0  0
 19 12  1  0  0  0
 12 13  2  0  0  0
 13 14  1  0  0  0
 14 15  2  0  0  0
 15 16  1  0  0  0
 16 17  2  0  0  0
 15  9  1  0  0  0
  9 10  2  0  0  0
  9 11  2  0  0  0
  9  7  1  0  0  0
  7  1  1  0  0  0
  1  2  1  0  0  0
  2  3  1  0  0  0
  3  4  1  0  0  0
  4  5  1  0  0  0
  5  6  1  0  0  0
  4 20  1  0  0  0
 20 21  1  0  0  0
 21 22  2  0  0  0
 22 23  1  0  0  0
 23 24  2  0  0  0
 24 25  1  0  0  0
 24 26  1  0  0  0
 26 27  1  0  0  0
 26 28  2  0  0  0
 17 12  1  0  0  0
  6  1  1  0  0  0
 28 21  1  0  0  0
  7  8  1  0  0  0
M  END
> <minimizedAffinity>
-8.32451

> <CNNscore>
0.4339222610

> <CNNaffinity>
7.0273451805

> <CNN_VS>
3.0493214130

> <CNNaffinity_variance>
0.0864161998

$$$$
[H]c1c([H])c(O[C@]2([H])C([H])([H])C([H])([H])[C@@]([H])(N([H])S(=O)(=O)c3c([H])c([H])c(OC([H])([H])[H])c([H])c3[H])C([H])([H])C2([H])[H])c([H])c(Cl)c1Cl


 28 30  0  0  0  0  0  0  0  0999 V2000
   11.3953   20.8782   -1.0365 C   0  0  0  0  0  0  0  0  0  0  0  0
   10.9630   22.0899   -1.8329 C   0  0  0  0  0  0  0  0  0  0  0  0
   11.7510   23.2736   -1.3556 C   0  0  0  0  0  0  0  0  0  0  0  0
   13.2136   23.1771   -1.7920 C   0  0  0  0  0  0  0  0  0  0  0  0
   13.4374   21.7345   -2.1992 C   0  0  0  0  0  0  0  0  0  0  0  0
   12.9143   20.8142   -1.1414 C   0  0  0  0  0  0  0  0  0  0  0  0
   10.9428   21.0312    0.3016 N   0  0  0  0  0  0  0  0  0  0  0  0
   11.2534   20.2332    0.8951 H   0  0  0  0  0  0  0  0  0  0  0  0
   11.4751   22.4726    1.0674 S   0  0  0  0  0  0  0  0  0  0  0  0
   10.8082   23.6877    0.4796 O   0  0  0  0  0  0  0  0  0  0  0  0
   11.0700   22.4054    2.5127 O   0  0  0  0  0  0  0  0  0  0  0  0
   15.9437   22.8828    0.9425 C   0  0  0  0  0  0  0  0  0  0  0  0
   15.4074   21.6374    1.1301 C   0  0  0  0  0  0  0  0  0  0  0  0
   14.0168   21.5401    1.1646 C   0  0  0  0  0  0  0  0  0  0  0  0
   13.2155   22.6369    1.0181 C   0  0  0  0  0  0  0  0  0  0  0  0
   13.7634   23.8916    0.8290 C   0  0  0  0  0  0  0  0  0  0  0  0
   15.1401   24.0007    0.7930 C   0  0  0  0  0  0  0  0  0  0  0  0
   17.9703   24.2737    1.1408 C   0  0  0  0  0  0  0  0  0  0  0  0
   17.3035   23.0666    0.8959 O   0  0  0  0  0  0  0  0  0  0  0  0
   13.3809   24.0370   -2.8632 O   0  0  0  0  0  0  0  0  0  0  0  0
   14.3618   24.9292   -3.1388 C   0  0  0  0  0  0  0  0  0  0  0  0
   15.3663   25.1055   -2.1968 C   0  0  0  0  0  0  0  0  0  0  0  0
   16.3935   26.0045   -2.4265 C   0  0  0  0  0  0  0  0  0  0  0  0
   16.4087   26.7199   -3.5958 C   0  0  0  0  0  0  0  0  0  0  0  0
   17.7076   27.8655   -3.9009 Cl  0  0  0  0  0  0  0  0  0  0  0  0
   15.4256   26.5559   -4.5319 C   0  0  0  0  0  0  0  0  0  0  0  0
   15.4206   27.4580   -6.0358 Cl  0  0  0  0  0  0  0  0  0  0  0  0
   14.3913   25.6475   -4.2955 C   0  0  0  0  0  0  0  0  0  0  0  0
 18 19  1  0  0  0
 19 12  1  0  0  0
 12 13  2  0  0  0
 13 14  1  0  0  0
 14 15  2  0  0  0
 15 16  1  0  0  0
 16 17  2  0  0  0
 15  9  1  0  0  0
  9 10  2  0  0  0
  9 11  2  0  0  0
  9  7  1  0  0  0
  7  1  1  0  0  0
  1  2  1  0  0  0
  2  3  1  0  0  0
  3  4  1  0  0  0
  4  5  1  0  0  0
  5  6  1  0  0  0
  4 20  1  0  0  0
 20 21  1  0  0  0
 21 22  2  0  0  0
 22 23  1  0  0  0
 23 24  2  0  0  0
 24 25  1  0  0  0
 24 26  1  0  0  0
 26 27  1  0  0  0
 26 28  2  0  0  0
 17 12  1  0  0  0
  6  1  1  0  0  0
 28 21  1  0  0  0
  7  8  1  0  0  0
M  END
> <minimizedAffinity>
-4.71777

> <CNNscore>
0.4333956242

> <CNNaffinity>
7.3245077133

> <CNN_VS>
3.1744096279

> <CNNaffinity_variance>
0.1438098997

$$$$
[H]c1c([H])c(O[C@]2([H])C([H])([H])C([H])([H])[C@@]([H])(N([H])S(=O)(=O)c3c([H])c([H])c(OC([H])([H])[H])c([H])c3[H])C([H])([H])C2([H])[H])c([H])c(Cl)c1Cl


 28 30  0  0  0  0  0  0  0  0999 V2000
   12.4635   23.4663   -1.8464 C   0  0  0  0  0  0  0  0  0  0  0  0
   13.6654   24.0403   -1.1287 C   0  0  0  0  0  0  0  0  0  0  0  0
   14.7871   23.0486   -1.2195 C   0  0  0  0  0  0  0  0  0  0  0  0
   15.3410   22.9687   -2.6429 C   0  0  0  0  0  0  0  0  0  0  0  0
   14.3012   23.6146   -3.5364 C   0  0  0  0  0  0  0  0  0  0  0  0
   12.9453   23.0583   -3.2335 C   0  0  0  0  0  0  0  0  0  0  0  0
   11.9675   22.3691   -1.0922 N   0  0  0  0  0  0  0  0  0  0  0  0
   12.5546   21.5205   -1.2359 H   0  0  0  0  0  0  0  0  0  0  0  0
   11.8877   22.6525    0.5992 S   0  0  0  0  0  0  0  0  0  0  0  0
   13.1550   22.2247    1.2902 O   0  0  0  0  0  0  0  0  0  0  0  0
   11.7485   24.1330    0.8141 O   0  0  0  0  0  0  0  0  0  0  0  0
    8.3118   20.6903    2.4741 C   0  0  0  0  0  0  0  0  0  0  0  0
    8.5380   22.0159    2.7298 C   0  0  0  0  0  0  0  0  0  0  0  0
    9.6560   22.5989    2.1342 C   0  0  0  0  0  0  0  0  0  0  0  0
   10.4957   21.8841    1.3276 C   0  0  0  0  0  0  0  0  0  0  0  0
   10.2615   20.5459    1.0735 C   0  0  0  0  0  0  0  0  0  0  0  0
    9.1569   19.9572    1.6580 C   0  0  0  0  0  0  0  0  0  0  0  0
    6.1498   20.6551    3.6597 C   0  0  0  0  0  0  0  0  0  0  0  0
    7.2336   20.0395    3.0209 O   0  0  0  0  0  0  0  0  0  0  0  0
   16.5318   23.6734   -2.6610 O   0  0  0  0  0  0  0  0  0  0  0  0
   16.7766   24.9964   -2.8155 C   0  0  0  0  0  0  0  0  0  0  0  0
   17.7098   25.5892   -1.9756 C   0  0  0  0  0  0  0  0  0  0  0  0
   17.9989   26.9381   -2.0893 C   0  0  0  0  0  0  0  0  0  0  0  0
   17.3532   27.6837   -3.0414 C   0  0  0  0  0  0  0  0  0  0  0  0
   17.7106   29.3985   -3.1971 Cl  0  0  0  0  0  0  0  0  0  0  0  0
   16.4320   27.1124   -3.8749 C   0  0  0  0  0  0  0  0  0  0  0  0
   15.5915   28.0427   -5.1011 Cl  0  0  0  0  0  0  0  0  0  0  0  0
   16.1438   25.7509   -3.7562 C   0  0  0  0  0  0  0  0  0  0  0  0
 18 19  1  0  0  0
 19 12  1  0  0  0
 12 13  2  0  0  0
 13 14  1  0  0  0
 14 15  2  0  0  0
 15 16  1  0  0  0
 16 17  2  0  0  0
 15  9  1  0  0  0
  9 10  2  0  0  0
  9 11  2  0  0  0
  9  7  1  0  0  0
  7  1  1  0  0  0
  1  2  1  0  0  0
  2  3  1  0  0  0
  3  4  1  0  0  0
  4  5  1  0  0  0
  5  6  1  0  0  0
  4 20  1  0  0  0
 20 21  1  0  0  0
 21 22  2  0  0  0
 22 23  1  0  0  0
 23 24  2  0  0  0
 24 25  1  0  0  0
 24 26  1  0  0  0
 26 27  1  0  0  0
 26 28  2  0  0  0
 17 12  1  0  0  0
  6  1  1  0  0  0
 28 21  1  0  0  0
  7  8  1  0  0  0
M  END
> <minimizedAffinity>
7.06507

> <CNNscore>
0.4285968244

> <CNNaffinity>
7.0483140945

> <CNN_VS>
3.0208849907

> <CNNaffinity_variance>
1.7025804520

$$$$
[H]c1c([H])c(O[C@]2([H])C([H])([H])C([H])([H])[C@@]([H])(N([H])S(=O)(=O)c3c([H])c([H])c(OC([H])([H])[H])c([H])c3[H])C([H])([H])C2([H])[H])c([H])c(Cl)c1Cl


 28 30  0  0  0  0  0  0  0  0999 V2000
   12.6300   23.0605   -1.1528 C   0  0  0  0  0  0  0  0  0  0  0  0
   11.7347   24.0804   -1.8218 C   0  0  0  0  0  0  0  0  0  0  0  0
   12.4131   25.4168   -1.7591 C   0  0  0  0  0  0  0  0  0  0  0  0
   13.6208   25.4686   -2.6960 C   0  0  0  0  0  0  0  0  0  0  0  0
   13.9431   24.0301   -3.0479 C   0  0  0  0  0  0  0  0  0  0  0  0
   14.0002   23.1970   -1.8059 C   0  0  0  0  0  0  0  0  0  0  0  0
   12.6571   23.3280    0.2423 N   0  0  0  0  0  0  0  0  0  0  0  0
   12.2626   24.2696    0.4503 H   0  0  0  0  0  0  0  0  0  0  0  0
   11.7934   22.1920    1.1967 S   0  0  0  0  0  0  0  0  0  0  0  0
   11.2564   21.0627    0.3583 O   0  0  0  0  0  0  0  0  0  0  0  0
   12.7550   21.5891    2.1814 O   0  0  0  0  0  0  0  0  0  0  0  0
    8.5002   24.1233    3.5582 C   0  0  0  0  0  0  0  0  0  0  0  0
    9.1568   23.0549    4.1068 C   0  0  0  0  0  0  0  0  0  0  0  0
   10.1750   22.4750    3.3508 C   0  0  0  0  0  0  0  0  0  0  0  0
   10.5098   22.9473    2.1133 C   0  0  0  0  0  0  0  0  0  0  0  0
    9.8427   24.0266    1.5652 C   0  0  0  0  0  0  0  0  0  0  0  0
    8.8319   24.6096    2.3047 C   0  0  0  0  0  0  0  0  0  0  0  0
    6.9845   26.0287    3.9497 C   0  0  0  0  0  0  0  0  0  0  0  0
    7.4851   24.7523    4.2358 O   0  0  0  0  0  0  0  0  0  0  0  0
   13.2431   26.1906   -3.8145 O   0  0  0  0  0  0  0  0  0  0  0  0
   12.6873   27.4203   -3.9297 C   0  0  0  0  0  0  0  0  0  0  0  0
   13.4043   28.5074   -3.4487 C   0  0  0  0  0  0  0  0  0  0  0  0
   12.8842   29.7869   -3.5404 C   0  0  0  0  0  0  0  0  0  0  0  0
   11.6517   29.9697   -4.1123 C   0  0  0  0  0  0  0  0  0  0  0  0
   10.9786   31.5896   -4.2355 Cl  0  0  0  0  0  0  0  0  0  0  0  0
   10.9351   28.9076   -4.5900 C   0  0  0  0  0  0  0  0  0  0  0  0
    9.3565   29.1129   -5.3258 Cl  0  0  0  0  0  0  0  0  0  0  0  0
   11.4643   27.6185   -4.4951 C   0  0  0  0  0  0  0  0  0  0  0  0
 18 19  1  0  0  0
 19 12  1  0  0  0
 12 13  2  0  0  0
 13 14  1  0  0  0
 14 15  2  0  0  0
 15 16  1  0  0  0
 16 17  2  0  0  0
 15  9  1  0  0  0
  9 10  2  0  0  0
  9 11  2  0  0  0
  9  7  1  0  0  0
  7  1  1  0  0  0
  1  2  1  0  0  0
  2  3  1  0  0  0
  3  4  1  0  0  0
  4  5  1  0  0  0
  5  6  1  0  0  0
  4 20  1  0  0  0
 20 21  1  0  0  0
 21 22  2  0  0  0
 22 23  1  0  0  0
 23 24  2  0  0  0
 24 25  1  0  0  0
 24 26  1  0  0  0
 26 27  1  0  0  0
 26 28  2  0  0  0
 17 12  1  0  0  0
  6  1  1  0  0  0
 28 21  1  0  0  0
  7  8  1  0  0  0
M  END
> <minimizedAffinity>
9.14459

> <CNNscore>
0.4201971292

> <CNNaffinity>
6.5782256126

> <CNN_VS>
2.7641515732

> <CNNaffinity_variance>
0.9282382131

$$$$
[H]c1c([H])c(O[C@]2([H])C([H])([H])C([H])([H])[C@@]([H])(N([H])S(=O)(=O)c3c([H])c([H])c(OC([H])([H])[H])c([H])c3[H])C([H])([H])C2([H])[H])c([H])c(Cl)c1Cl


 28 30  0  0  0  0  0  0  0  0999 V2000
   13.6821   22.8204   -0.7298 C   0  0  0  0  0  0  0  0  0  0  0  0
   13.2212   21.3832   -0.6235 C   0  0  0  0  0  0  0  0  0  0  0  0
   12.9931   21.0669    0.8249 C   0  0  0  0  0  0  0  0  0  0  0  0
   11.7521   21.7838    1.3589 C   0  0  0  0  0  0  0  0  0  0  0  0
   11.4285   22.8711    0.3539 C   0  0  0  0  0  0  0  0  0  0  0  0
   12.6607   23.6569    0.0314 C   0  0  0  0  0  0  0  0  0  0  0  0
   14.9897   22.9179   -0.1826 N   0  0  0  0  0  0  0  0  0  0  0  0
   15.6665   22.3417   -0.7261 H   0  0  0  0  0  0  0  0  0  0  0  0
   15.6140   24.5161   -0.1239 S   0  0  0  0  0  0  0  0  0  0  0  0
   14.8989   25.3498    0.9058 O   0  0  0  0  0  0  0  0  0  0  0  0
   17.0534   24.4352    0.2992 O   0  0  0  0  0  0  0  0  0  0  0  0
   15.5143   26.5188   -4.1403 C   0  0  0  0  0  0  0  0  0  0  0  0
   16.6325   26.6667   -3.3647 C   0  0  0  0  0  0  0  0  0  0  0  0
   16.6354   26.0337   -2.1221 C   0  0  0  0  0  0  0  0  0  0  0  0
   15.5710   25.2947   -1.6893 C   0  0  0  0  0  0  0  0  0  0  0  0
   14.4450   25.1494   -2.4774 C   0  0  0  0  0  0  0  0  0  0  0  0
   14.4302   25.7719   -3.7106 C   0  0  0  0  0  0  0  0  0  0  0  0
   15.5051   26.4398   -6.6050 C   0  0  0  0  0  0  0  0  0  0  0  0
   15.4295   27.1091   -5.3770 O   0  0  0  0  0  0  0  0  0  0  0  0
   10.7366   20.8468    1.4351 O   0  0  0  0  0  0  0  0  0  0  0  0
    9.6524   20.6486    0.6479 C   0  0  0  0  0  0  0  0  0  0  0  0
    9.8003   19.8463   -0.4754 C   0  0  0  0  0  0  0  0  0  0  0  0
    8.7255   19.6100   -1.3151 C   0  0  0  0  0  0  0  0  0  0  0  0
    7.5116   20.1772   -1.0253 C   0  0  0  0  0  0  0  0  0  0  0  0
    6.1375   19.8856   -2.0832 Cl  0  0  0  0  0  0  0  0  0  0  0  0
    7.3523   20.9694    0.0779 C   0  0  0  0  0  0  0  0  0  0  0  0
    5.8111   21.7073    0.4720 Cl  0  0  0  0  0  0  0  0  0  0  0  0
    8.4399   21.2048    0.9220 C   0  0  0  0  0  0  0  0  0  0  0  0
 18 19  1  0  0  0
 19 12  1  0  0  0
 12 13  2  0  0  0
 13 14  1  0  0  0
 14 15  2  0  0  0
 15 16  1  0  0  0
 16 17  2  0  0  0
 15  9  1  0  0  0
  9 10  2  0  0  0
  9 11  2  0  0  0
  9  7  1  0  0  0
  7  1  1  0  0  0
  1  2  1  0  0  0
  2  3  1  0  0  0
  3  4  1  0  0  0
  4  5  1  0  0  0
  5  6  1  0  0  0
  4 20  1  0  0  0
 20 21  1  0  0  0
 21 22  2  0  0  0
 22 23  1  0  0  0
 23 24  2  0  0  0
 24 25  1  0  0  0
 24 26  1  0  0  0
 26 27  1  0  0  0
 26 28  2  0  0  0
 17 12  1  0  0  0
  6  1  1  0  0  0
 28 21  1  0  0  0
  7  8  1  0  0  0
M  END
> <minimizedAffinity>
-6.74993

> <CNNscore>
0.4076169133

> <CNNaffinity>
7.3798761368

> <CNN_VS>
3.0081622601

> <CNNaffinity_variance>
0.1683409512

$$$$
[H]c1c([H])c(O[C@]2([H])C([H])([H])C([H])([H])[C@@]([H])(N([H])S(=O)(=O)c3c([H])c([H])c(OC([H])([H])[H])c([H])c3[H])C([H])([H])C2([H])[H])c([H])c(Cl)c1Cl


 28 30  0  0  0  0  0  0  0  0999 V2000
   12.7934   21.2602    0.3753 C   0  0  0  0  0  0  0  0  0  0  0  0
   12.1644   22.2212   -0.6096 C   0  0  0  0  0  0  0  0  0  0  0  0
   13.0384   23.4364   -0.7067 C   0  0  0  0  0  0  0  0  0  0  0  0
   14.3437   23.1220   -1.4392 C   0  0  0  0  0  0  0  0  0  0  0  0
   14.4681   21.6116   -1.4487 C   0  0  0  0  0  0  0  0  0  0  0  0
   14.2368   21.0675   -0.0739 C   0  0  0  0  0  0  0  0  0  0  0  0
   12.6931   21.8176    1.6783 N   0  0  0  0  0  0  0  0  0  0  0  0
   12.7187   22.8586    1.6428 H   0  0  0  0  0  0  0  0  0  0  0  0
   11.2707   21.3722    2.5302 S   0  0  0  0  0  0  0  0  0  0  0  0
   10.4379   20.3974    1.7410 O   0  0  0  0  0  0  0  0  0  0  0  0
   11.6877   20.6721    3.7926 O   0  0  0  0  0  0  0  0  0  0  0  0
    8.8287   24.9433    3.7286 C   0  0  0  0  0  0  0  0  0  0  0  0
    8.9155   23.8901    4.5986 C   0  0  0  0  0  0  0  0  0  0  0  0
    9.6807   22.7945    4.2000 C   0  0  0  0  0  0  0  0  0  0  0  0
   10.3203   22.7654    2.9931 C   0  0  0  0  0  0  0  0  0  0  0  0
   10.2286   23.8323    2.1193 C   0  0  0  0  0  0  0  0  0  0  0  0
    9.4733   24.9235    2.5031 C   0  0  0  0  0  0  0  0  0  0  0  0
    7.1789   26.6974    3.1973 C   0  0  0  0  0  0  0  0  0  0  0  0
    8.0958   26.0608    4.0433 O   0  0  0  0  0  0  0  0  0  0  0  0
   14.2279   23.6283   -2.7218 O   0  0  0  0  0  0  0  0  0  0  0  0
   14.6848   24.7822   -3.2640 C   0  0  0  0  0  0  0  0  0  0  0  0
   13.9497   25.3550   -4.2930 C   0  0  0  0  0  0  0  0  0  0  0  0
   14.3704   26.5341   -4.8836 C   0  0  0  0  0  0  0  0  0  0  0  0
   15.5223   27.1313   -4.4410 C   0  0  0  0  0  0  0  0  0  0  0  0
   16.0686   28.6296   -5.1821 Cl  0  0  0  0  0  0  0  0  0  0  0  0
   16.2557   26.5777   -3.4284 C   0  0  0  0  0  0  0  0  0  0  0  0
   17.7326   27.3203   -2.8430 Cl  0  0  0  0  0  0  0  0  0  0  0  0
   15.8270   25.3878   -2.8357 C   0  0  0  0  0  0  0  0  0  0  0  0
 18 19  1  0  0  0
 19 12  1  0  0  0
 12 13  2  0  0  0
 13 14  1  0  0  0
 14 15  2  0  0  0
 15 16  1  0  0  0
 16 17  2  0  0  0
 15  9  1  0  0  0
  9 10  2  0  0  0
  9 11  2  0  0  0
  9  7  1  0  0  0
  7  1  1  0  0  0
  1  2  1  0  0  0
  2  3  1  0  0  0
  3  4  1  0  0  0
  4  5  1  0  0  0
  5  6  1  0  0  0
  4 20  1  0  0  0
 20 21  1  0  0  0
 21 22  2  0  0  0
 22 23  1  0  0  0
 23 24  2  0  0  0
 24 25  1  0  0  0
 24 26  1  0  0  0
 26 27  1  0  0  0
 26 28  2  0  0  0
 17 12  1  0  0  0
  6  1  1  0  0  0
 28 21  1  0  0  0
  7  8  1  0  0  0
M  END
> <minimizedAffinity>
-8.43126

> <CNNscore>
0.3668010831

> <CNNaffinity>
6.8429412842

> <CNN_VS>
2.5099983215

> <CNNaffinity_variance>
0.0756417438

$$$$
[H]c1c([H])c(O[C@]2([H])C([H])([H])C([H])([H])[C@@]([H])(N([H])S(=O)(=O)c3c([H])c([H])c(OC([H])([H])[H])c([H])c3[H])C([H])([H])C2([H])[H])c([H])c(Cl)c1Cl


 28 30  0  0  0  0  0  0  0  0999 V2000
   12.3316   23.8336    0.7288 C   0  0  0  0  0  0  0  0  0  0  0  0
   13.8249   23.7116    0.5177 C   0  0  0  0  0  0  0  0  0  0  0  0
   14.0770   22.5673   -0.4188 C   0  0  0  0  0  0  0  0  0  0  0  0
   13.6346   22.9096   -1.8422 C   0  0  0  0  0  0  0  0  0  0  0  0
   12.7323   24.1214   -1.7231 C   0  0  0  0  0  0  0  0  0  0  0  0
   11.7047   23.8951   -0.6589 C   0  0  0  0  0  0  0  0  0  0  0  0
   11.8884   22.7140    1.4830 N   0  0  0  0  0  0  0  0  0  0  0  0
   12.5266   22.5267    2.2849 H   0  0  0  0  0  0  0  0  0  0  0  0
   10.3027   22.8745    2.1211 S   0  0  0  0  0  0  0  0  0  0  0  0
   10.2414   22.4402    3.5613 O   0  0  0  0  0  0  0  0  0  0  0  0
    9.9350   24.3309    2.0855 O   0  0  0  0  0  0  0  0  0  0  0  0
    7.2763   20.6556   -0.3426 C   0  0  0  0  0  0  0  0  0  0  0  0
    8.6048   20.4549   -0.6043 C   0  0  0  0  0  0  0  0  0  0  0  0
    9.5222   21.1573    0.1765 C   0  0  0  0  0  0  0  0  0  0  0  0
    9.1203   22.0121    1.1636 C   0  0  0  0  0  0  0  0  0  0  0  0
    7.7772   22.2102    1.4227 C   0  0  0  0  0  0  0  0  0  0  0  0
    6.8588   21.5198    0.6557 C   0  0  0  0  0  0  0  0  0  0  0  0
    6.3685   19.7169   -2.4344 C   0  0  0  0  0  0  0  0  0  0  0  0
    6.3077   20.0034   -1.0648 O   0  0  0  0  0  0  0  0  0  0  0  0
   14.7760   23.1982   -2.5695 O   0  0  0  0  0  0  0  0  0  0  0  0
   15.2824   24.3812   -2.9920 C   0  0  0  0  0  0  0  0  0  0  0  0
   16.1446   25.0617   -2.1429 C   0  0  0  0  0  0  0  0  0  0  0  0
   16.6913   26.2750   -2.5236 C   0  0  0  0  0  0  0  0  0  0  0  0
   16.3722   26.7984   -3.7498 C   0  0  0  0  0  0  0  0  0  0  0  0
   17.0595   28.3390   -4.2465 Cl  0  0  0  0  0  0  0  0  0  0  0  0
   15.5244   26.1385   -4.5956 C   0  0  0  0  0  0  0  0  0  0  0  0
   15.0992   26.7852   -6.1693 Cl  0  0  0  0  0  0  0  0  0  0  0  0
   14.9753   24.9145   -4.2068 C   0  0  0  0  0  0  0  0  0  0  0  0
 18 19  1  0  0  0
 19 12  1  0  0  0
 12 13  2  0  0  0
 13 14  1  0  0  0
 14 15  2  0  0  0
 15 16  1  0  0  0
 16 17  2  0  0  0
 15  9  1  0  0  0
  9 10  2  0  0  0
  9 11  2  0  0  0
  9  7  1  0  0  0
  7  1  1  0  0  0
  1  2  1  0  0  0
  2  3  1  0  0  0
  3  4  1  0  0  0
  4  5  1  0  0  0
  5  6  1  0  0  0
  4 20  1  0  0  0
 20 21  1  0  0  0
 21 22  2  0  0  0
 22 23  1  0  0  0
 23 24  2  0  0  0
 24 25  1  0  0  0
 24 26  1  0  0  0
 26 27  1  0  0  0
 26 28  2  0  0  0
 17 12  1  0  0  0
  6  1  1  0  0  0
 28 21  1  0  0  0
  7  8  1  0  0  0
M  END
> <minimizedAffinity>
-8.30330

> <CNNscore>
0.3611497581

> <CNNaffinity>
7.0446825027

> <CNN_VS>
2.5441854000

> <CNNaffinity_variance>
0.0980433598

$$$$
[H]c1c([H])c(O[C@]2([H])C([H])([H])C([H])([H])[C@@]([H])(N([H])S(=O)(=O)c3c([H])c([H])c(OC([H])([H])[H])c([H])c3[H])C([H])([H])C2([H])[H])c([H])c(Cl)c1Cl


 28 30  0  0  0  0  0  0  0  0999 V2000
   12.1758   21.4174    0.0444 C   0  0  0  0  0  0  0  0  0  0  0  0
   12.0319   22.3047   -1.1727 C   0  0  0  0  0  0  0  0  0  0  0  0
   13.0486   23.4035   -1.0781 C   0  0  0  0  0  0  0  0  0  0  0  0
   14.4636   22.8690   -1.3049 C   0  0  0  0  0  0  0  0  0  0  0  0
   14.3768   21.3647   -1.1422 C   0  0  0  0  0  0  0  0  0  0  0  0
   13.6464   21.0249    0.1190 C   0  0  0  0  0  0  0  0  0  0  0  0
   11.7418   22.1422    1.1867 N   0  0  0  0  0  0  0  0  0  0  0  0
   11.4684   23.1145    0.9311 H   0  0  0  0  0  0  0  0  0  0  0  0
   10.4082   21.4373    2.0065 S   0  0  0  0  0  0  0  0  0  0  0  0
   10.7903   20.1393    2.6665 O   0  0  0  0  0  0  0  0  0  0  0  0
    9.9872   22.3785    3.0996 O   0  0  0  0  0  0  0  0  0  0  0  0
    6.8720   20.8692   -0.6999 C   0  0  0  0  0  0  0  0  0  0  0  0
    6.7423   21.7040    0.3772 C   0  0  0  0  0  0  0  0  0  0  0  0
    7.8568   21.8613    1.2004 C   0  0  0  0  0  0  0  0  0  0  0  0
    9.0330   21.2131    0.9496 C   0  0  0  0  0  0  0  0  0  0  0  0
    9.1573   20.3716   -0.1397 C   0  0  0  0  0  0  0  0  0  0  0  0
    8.0599   20.2076   -0.9626 C   0  0  0  0  0  0  0  0  0  0  0  0
    5.8712   19.8862   -2.7280 C   0  0  0  0  0  0  0  0  0  0  0  0
    5.8232   20.6585   -1.5606 O   0  0  0  0  0  0  0  0  0  0  0  0
   14.8339   23.2183   -2.5917 O   0  0  0  0  0  0  0  0  0  0  0  0
   15.2547   24.3996   -3.1033 C   0  0  0  0  0  0  0  0  0  0  0  0
   16.1053   25.1786   -2.3305 C   0  0  0  0  0  0  0  0  0  0  0  0
   16.5661   26.3950   -2.8038 C   0  0  0  0  0  0  0  0  0  0  0  0
   16.1733   26.8231   -4.0455 C   0  0  0  0  0  0  0  0  0  0  0  0
   16.7511   28.3663   -4.6595 Cl  0  0  0  0  0  0  0  0  0  0  0  0
   15.3360   26.0656   -4.8168 C   0  0  0  0  0  0  0  0  0  0  0  0
   14.8179   26.5891   -6.4083 Cl  0  0  0  0  0  0  0  0  0  0  0  0
   14.8737   24.8389   -4.3347 C   0  0  0  0  0  0  0  0  0  0  0  0
 18 19  1  0  0  0
 19 12  1  0  0  0
 12 13  2  0  0  0
 13 14  1  0  0  0
 14 15  2  0  0  0
 15 16  1  0  0  0
 16 17  2  0  0  0
 15  9  1  0  0  0
  9 10  2  0  0  0
  9 11  2  0  0  0
  9  7  1  0  0  0
  7  1  1  0  0  0
  1  2  1  0  0  0
  2  3  1  0  0  0
  3  4  1  0  0  0
  4  5  1  0  0  0
  5  6  1  0  0  0
  4 20  1  0  0  0
 20 21  1  0  0  0
 21 22  2  0  0  0
 22 23  1  0  0  0
 23 24  2  0  0  0
 24 25  1  0  0  0
 24 26  1  0  0  0
 26 27  1  0  0  0
 26 28  2  0  0  0
 17 12  1  0  0  0
  6  1  1  0  0  0
 28 21  1  0  0  0
  7  8  1  0  0  0
M  END
> <minimizedAffinity>
-8.10606

> <CNNscore>
0.3601966500

> <CNNaffinity>
7.0736556053

> <CNN_VS>
2.5479071140

> <CNNaffinity_variance>
0.1706543267

$$$$
[H]c1c([H])c(C([H])([H])[H])c(C([H])([H])N([H])C([H])([H])[H])c([H])c1C(=O)N1c2c([H])c(N(C([H])([H])[H])C([H])([H])[H])c(OC([H])([H])[H])c([H])c2C([H])([H])C1([H])[H]


 27 29  0  0  0  0  0  0  0  0999 V2000
   15.3785   29.6561   -5.9688 C   0  0  0  0  0  0  0  0  0  0  0  0
   16.4357   28.7470   -5.9325 C   0  0  0  0  0  0  0  0  0  0  0  0
   16.3275   27.6682   -5.0344 C   0  0  0  0  0  0  0  0  0  0  0  0
   17.3010   26.5545   -4.8469 C   0  0  0  0  0  0  0  0  0  0  0  0
   16.3729   25.5128   -4.2281 C   0  0  0  0  0  0  0  0  0  0  0  0
   15.4634   26.3083   -3.4107 N   0  0  0  0  0  0  0  0  0  0  0  0
   15.0578   26.0284   -2.1132 C   0  0  0  0  0  0  0  0  0  0  0  0
   14.8333   27.0106   -1.2939 O   0  0  0  0  0  0  0  0  0  0  0  0
   15.2599   27.4788   -4.2119 C   0  0  0  0  0  0  0  0  0  0  0  0
   14.2522   28.3897   -4.2831 C   0  0  0  0  0  0  0  0  0  0  0  0
   14.2754   29.4744   -5.1342 C   0  0  0  0  0  0  0  0  0  0  0  0
   14.8262   24.7034   -1.5334 C   0  0  0  0  0  0  0  0  0  0  0  0
   15.8662   23.8393   -1.3248 C   0  0  0  0  0  0  0  0  0  0  0  0
   15.6207   22.5576   -0.8309 C   0  0  0  0  0  0  0  0  0  0  0  0
   14.3660   22.1108   -0.5346 C   0  0  0  0  0  0  0  0  0  0  0  0
   14.1519   20.7499    0.0252 C   0  0  0  0  0  0  0  0  0  0  0  0
   13.2855   22.9866   -0.7313 C   0  0  0  0  0  0  0  0  0  0  0  0
   13.5606   24.2808   -1.2360 C   0  0  0  0  0  0  0  0  0  0  0  0
   11.9139   22.5343   -0.6285 C   0  0  0  0  0  0  0  0  0  0  0  0
   11.2986   22.9789    0.6670 N   0  0  0  0  0  0  0  0  0  0  0  0
   11.1393   21.8539    1.5755 C   0  0  0  0  0  0  0  0  0  0  0  0
   12.1419   23.5759    1.0591 H   0  0  0  0  0  0  0  0  0  0  0  0
   13.2050   30.3617   -5.2195 N   0  0  0  0  0  0  0  0  0  0  0  0
   13.3104   31.7870   -5.5962 C   0  0  0  0  0  0  0  0  0  0  0  0
   11.8428   29.8943   -4.8902 C   0  0  0  0  0  0  0  0  0  0  0  0
   15.8420   32.0038   -6.3299 C   0  0  0  0  0  0  0  0  0  0  0  0
   15.4072   30.7599   -6.8307 O   0  0  0  0  0  0  0  0  0  0  0  0
 26 27  1  0  0  0
 27  1  1  0  0  0
  1  2  2  0  0  0
  2  3  1  0  0  0
  3  4  1  0  0  0
  4  5  1  0  0  0
  5  6  1  0  0  0
  6  7  1  0  0  0
  7  8  2  0  0  0
  7 12  1  0  0  0
 12 13  2  0  0  0
 13 14  1  0  0  0
 14 15  2  0  0  0
 15 16  1  0  0  0
 15 17  1  0  0  0
 17 19  1  0  0  0
 19 20  1  0  0  0
 20 21  1  0  0  0
 17 18  2  0  0  0
  6  9  1  0  0  0
  9 10  1  0  0  0
 10 11  2  0  0  0
 11 23  1  0  0  0
 23 24  1  0  0  0
 23 25  1  0  0  0
 11  1  1  0  0  0
  9  3  2  0  0  0
 18 12  1  0  0  0
 20 22  1  0  0  0
M  END
> <minimizedAffinity>
37.30067

> <CNNscore>
0.4870312214

> <CNNaffinity>
6.3129162788

> <CNN_VS>
3.0745873451

> <CNNaffinity_variance>
1.1060553789

$$$$
[H]c1c([H])c(C([H])([H])[H])c(C([H])([H])N([H])C([H])([H])[H])c([H])c1C(=O)N1c2c([H])c(N(C([H])([H])[H])C([H])([H])[H])c(OC([H])([H])[H])c([H])c2C([H])([H])C1([H])[H]


 27 29  0  0  0  0  0  0  0  0999 V2000
   14.7329   25.8389    0.6668 C   0  0  0  0  0  0  0  0  0  0  0  0
   15.1137   24.6255    0.0942 C   0  0  0  0  0  0  0  0  0  0  0  0
   14.0917   23.7033   -0.2010 C   0  0  0  0  0  0  0  0  0  0  0  0
   14.2455   22.3689   -0.8482 C   0  0  0  0  0  0  0  0  0  0  0  0
   12.8252   22.1812   -1.3745 C   0  0  0  0  0  0  0  0  0  0  0  0
   11.9955   22.7994   -0.3462 N   0  0  0  0  0  0  0  0  0  0  0  0
   10.8273   22.2818    0.1960 C   0  0  0  0  0  0  0  0  0  0  0  0
   10.5511   22.5133    1.4435 O   0  0  0  0  0  0  0  0  0  0  0  0
   12.7741   23.9363    0.0472 C   0  0  0  0  0  0  0  0  0  0  0  0
   12.4497   25.1338    0.6049 C   0  0  0  0  0  0  0  0  0  0  0  0
   13.3858   26.0945    0.9247 C   0  0  0  0  0  0  0  0  0  0  0  0
    9.8151   21.4848   -0.5009 C   0  0  0  0  0  0  0  0  0  0  0  0
    9.8642   21.3236   -1.8586 C   0  0  0  0  0  0  0  0  0  0  0  0
    8.8570   20.6146   -2.5144 C   0  0  0  0  0  0  0  0  0  0  0  0
    7.8008   20.0566   -1.8551 C   0  0  0  0  0  0  0  0  0  0  0  0
    6.7683   19.2767   -2.5878 C   0  0  0  0  0  0  0  0  0  0  0  0
    7.7378   20.2013   -0.4592 C   0  0  0  0  0  0  0  0  0  0  0  0
    8.7703   20.9276    0.1823 C   0  0  0  0  0  0  0  0  0  0  0  0
    6.5622   19.8125    0.2915 C   0  0  0  0  0  0  0  0  0  0  0  0
    6.9209   19.4676    1.7082 N   0  0  0  0  0  0  0  0  0  0  0  0
    6.6538   20.5889    2.5957 C   0  0  0  0  0  0  0  0  0  0  0  0
    6.1302   18.7214    1.9063 H   0  0  0  0  0  0  0  0  0  0  0  0
   13.0167   27.3313    1.4487 N   0  0  0  0  0  0  0  0  0  0  0  0
   12.5746   27.5677    2.8391 C   0  0  0  0  0  0  0  0  0  0  0  0
   13.0252   28.5240    0.5770 C   0  0  0  0  0  0  0  0  0  0  0  0
   16.9124   26.3997    1.5571 C   0  0  0  0  0  0  0  0  0  0  0  0
   15.6866   26.8109    0.9954 O   0  0  0  0  0  0  0  0  0  0  0  0
 26 27  1  0  0  0
 27  1  1  0  0  0
  1  2  2  0  0  0
  2  3  1  0  0  0
  3  4  1  0  0  0
  4  5  1  0  0  0
  5  6  1  0  0  0
  6  7  1  0  0  0
  7  8  2  0  0  0
  7 12  1  0  0  0
 12 13  2  0  0  0
 13 14  1  0  0  0
 14 15  2  0  0  0
 15 16  1  0  0  0
 15 17  1  0  0  0
 17 19  1  0  0  0
 19 20  1  0  0  0
 20 21  1  0  0  0
 17 18  2  0  0  0
  6  9  1  0  0  0
  9 10  1  0  0  0
 10 11  2  0  0  0
 11 23  1  0  0  0
 23 24  1  0  0  0
 23 25  1  0  0  0
 11  1  1  0  0  0
  9  3  2  0  0  0
 18 12  1  0  0  0
 20 22  1  0  0  0
M  END
> <minimizedAffinity>
15.71137

> <CNNscore>
0.4391832054

> <CNNaffinity>
5.8850650787

> <CNN_VS>
2.5846216679

> <CNNaffinity_variance>
0.7481450438

$$$$
[H]c1c([H])c(C([H])([H])[H])c(C([H])([H])N([H])C([H])([H])[H])c([H])c1C(=O)N1c2c([H])c(N(C([H])([H])[H])C([H])([H])[H])c(OC([H])([H])[H])c([H])c2C([H])([H])C1([H])[H]


 27 29  0  0  0  0  0  0  0  0999 V2000
   16.2885   23.5907   -4.7001 C   0  0  0  0  0  0  0  0  0  0  0  0
   16.0989   22.2988   -4.2097 C   0  0  0  0  0  0  0  0  0  0  0  0
   15.3570   22.1631   -3.0210 C   0  0  0  0  0  0  0  0  0  0  0  0
   14.9896   20.8931   -2.3316 C   0  0  0  0  0  0  0  0  0  0  0  0
   13.7882   21.3835   -1.5282 C   0  0  0  0  0  0  0  0  0  0  0  0
   14.1537   22.7484   -1.1658 N   0  0  0  0  0  0  0  0  0  0  0  0
   14.0047   23.3417    0.0802 C   0  0  0  0  0  0  0  0  0  0  0  0
   14.8812   24.2147    0.4749 O   0  0  0  0  0  0  0  0  0  0  0  0
   14.8306   23.2165   -2.3388 C   0  0  0  0  0  0  0  0  0  0  0  0
   15.0395   24.4574   -2.8554 C   0  0  0  0  0  0  0  0  0  0  0  0
   15.7526   24.6811   -4.0143 C   0  0  0  0  0  0  0  0  0  0  0  0
   12.9241   23.1056    1.0403 C   0  0  0  0  0  0  0  0  0  0  0  0
   12.9984   22.0760    1.9382 C   0  0  0  0  0  0  0  0  0  0  0  0
   11.9325   21.8257    2.8033 C   0  0  0  0  0  0  0  0  0  0  0  0
   10.7924   22.5753    2.8027 C   0  0  0  0  0  0  0  0  0  0  0  0
    9.6951   22.2980    3.7671 C   0  0  0  0  0  0  0  0  0  0  0  0
   10.7009   23.6442    1.8957 C   0  0  0  0  0  0  0  0  0  0  0  0
   11.7947   23.8756    1.0266 C   0  0  0  0  0  0  0  0  0  0  0  0
    9.4609   24.3641    1.6943 C   0  0  0  0  0  0  0  0  0  0  0  0
    9.2353   25.3612    2.7941 N   0  0  0  0  0  0  0  0  0  0  0  0
    8.0624   26.1765    2.5189 C   0  0  0  0  0  0  0  0  0  0  0  0
    8.9440   24.6624    3.5992 H   0  0  0  0  0  0  0  0  0  0  0  0
   15.9063   25.9600   -4.5446 N   0  0  0  0  0  0  0  0  0  0  0  0
   16.3307   27.1518   -3.7803 C   0  0  0  0  0  0  0  0  0  0  0  0
   15.6065   26.1983   -5.9714 C   0  0  0  0  0  0  0  0  0  0  0  0
   18.4242   23.8765   -5.8021 C   0  0  0  0  0  0  0  0  0  0  0  0
   17.0177   23.8153   -5.8748 O   0  0  0  0  0  0  0  0  0  0  0  0
 26 27  1  0  0  0
 27  1  1  0  0  0
  1  2  2  0  0  0
  2  3  1  0  0  0
  3  4  1  0  0  0
  4  5  1  0  0  0
  5  6  1  0  0  0
  6  7  1  0  0  0
  7  8  2  0  0  0
  7 12  1  0  0  0
 12 13  2  0  0  0
 13 14  1  0  0  0
 14 15  2  0  0  0
 15 16  1  0  0  0
 15 17  1  0  0  0
 17 19  1  0  0  0
 19 20  1  0  0  0
 20 21  1  0  0  0
 17 18  2  0  0  0
  6  9  1  0  0  0
  9 10  1  0  0  0
 10 11  2  0  0  0
 11 23  1  0  0  0
 23 24  1  0  0  0
 23 25  1  0  0  0
 11  1  1  0  0  0
  9  3  2  0  0  0
 18 12  1  0  0  0
 20 22  1  0  0  0
M  END
> <minimizedAffinity>
13.45047

> <CNNscore>
0.4111259282

> <CNNaffinity>
6.4793519974

> <CNN_VS>
2.6638295650

> <CNNaffinity_variance>
0.6109474301

$$$$
[H]c1c([H])c(C([H])([H])[H])c(C([H])([H])N([H])C([H])([H])[H])c([H])c1C(=O)N1c2c([H])c(N(C([H])([H])[H])C([H])([H])[H])c(OC([H])([H])[H])c([H])c2C([H])([H])C1([H])[H]


 27 29  0  0  0  0  0  0  0  0999 V2000
   14.4520   22.5407   -0.2466 C   0  0  0  0  0  0  0  0  0  0  0  0
   14.2940   23.7412    0.4458 C   0  0  0  0  0  0  0  0  0  0  0  0
   13.7298   24.8219   -0.2584 C   0  0  0  0  0  0  0  0  0  0  0  0
   13.4257   26.1806    0.2749 C   0  0  0  0  0  0  0  0  0  0  0  0
   12.3714   26.6167   -0.7388 C   0  0  0  0  0  0  0  0  0  0  0  0
   12.8304   26.0189   -1.9878 N   0  0  0  0  0  0  0  0  0  0  0  0
   12.8847   26.6363   -3.2296 C   0  0  0  0  0  0  0  0  0  0  0  0
   13.8377   26.3200   -4.0532 O   0  0  0  0  0  0  0  0  0  0  0  0
   13.3435   24.7506   -1.5614 C   0  0  0  0  0  0  0  0  0  0  0  0
   13.5152   23.5595   -2.1955 C   0  0  0  0  0  0  0  0  0  0  0  0
   14.0581   22.4504   -1.5819 C   0  0  0  0  0  0  0  0  0  0  0  0
   11.9490   27.6331   -3.7550 C   0  0  0  0  0  0  0  0  0  0  0  0
   10.9822   27.2788   -4.6560 C   0  0  0  0  0  0  0  0  0  0  0  0
   10.1397   28.2520   -5.1948 C   0  0  0  0  0  0  0  0  0  0  0  0
   10.2299   29.5714   -4.8591 C   0  0  0  0  0  0  0  0  0  0  0  0
    9.2877   30.5709   -5.4286 C   0  0  0  0  0  0  0  0  0  0  0  0
   11.2089   29.9541   -3.9272 C   0  0  0  0  0  0  0  0  0  0  0  0
   12.0532   28.9484   -3.3972 C   0  0  0  0  0  0  0  0  0  0  0  0
   11.5007   31.3474   -3.6624 C   0  0  0  0  0  0  0  0  0  0  0  0
   12.9817   31.5760   -3.5667 N   0  0  0  0  0  0  0  0  0  0  0  0
   13.5535   31.8120   -4.8834 C   0  0  0  0  0  0  0  0  0  0  0  0
   12.9693   32.5554   -3.0550 H   0  0  0  0  0  0  0  0  0  0  0  0
   14.1744   21.2303   -2.2439 N   0  0  0  0  0  0  0  0  0  0  0  0
   13.3991   20.0130   -1.9252 C   0  0  0  0  0  0  0  0  0  0  0  0
   15.1558   21.0856   -3.3386 C   0  0  0  0  0  0  0  0  0  0  0  0
   14.1645   20.5556    1.1076 C   0  0  0  0  0  0  0  0  0  0  0  0
   15.0086   21.4171    0.3779 O   0  0  0  0  0  0  0  0  0  0  0  0
 26 27  1  0  0  0
 27  1  1  0  0  0
  1  2  2  0  0  0
  2  3  1  0  0  0
  3  4  1  0  0  0
  4  5  1  0  0  0
  5  6  1  0  0  0
  6  7  1  0  0  0
  7  8  2  0  0  0
  7 12  1  0  0  0
 12 13  2  0  0  0
 13 14  1  0  0  0
 14 15  2  0  0  0
 15 16  1  0  0  0
 15 17  1  0  0  0
 17 19  1  0  0  0
 19 20  1  0  0  0
 20 21  1  0  0  0
 17 18  2  0  0  0
  6  9  1  0  0  0
  9 10  1  0  0  0
 10 11  2  0  0  0
 11 23  1  0  0  0
 23 24  1  0  0  0
 23 25  1  0  0  0
 11  1  1  0  0  0
  9  3  2  0  0  0
 18 12  1  0  0  0
 20 22  1  0  0  0
M  END
> <minimizedAffinity>
23.74370

> <CNNscore>
0.4075956047

> <CNNaffinity>
6.0485453606

> <CNN_VS>
2.4653604031

> <CNNaffinity_variance>
0.8653122187

$$$$
[H]c1c([H])c(C([H])([H])[H])c(C([H])([H])N([H])C([H])([H])[H])c([H])c1C(=O)N1c2c([H])c(N(C([H])([H])[H])C([H])([H])[H])c(OC([H])([H])[H])c([H])c2C([H])([H])C1([H])[H]


 27 29  0  0  0  0  0  0  0  0999 V2000
   14.3778   22.7858   -2.7942 C   0  0  0  0  0  0  0  0  0  0  0  0
   13.8338   21.5249   -2.5502 C   0  0  0  0  0  0  0  0  0  0  0  0
   13.0458   21.3758   -1.3931 C   0  0  0  0  0  0  0  0  0  0  0  0
   12.3301   20.1466   -0.9460 C   0  0  0  0  0  0  0  0  0  0  0  0
   11.2794   20.7843   -0.0412 C   0  0  0  0  0  0  0  0  0  0  0  0
   11.9857   21.9089    0.5625 N   0  0  0  0  0  0  0  0  0  0  0  0
   11.9622   22.2788    1.9001 C   0  0  0  0  0  0  0  0  0  0  0  0
   13.0277   22.7951    2.4334 O   0  0  0  0  0  0  0  0  0  0  0  0
   12.7997   22.3867   -0.5157 C   0  0  0  0  0  0  0  0  0  0  0  0
   13.3494   23.5991   -0.7954 C   0  0  0  0  0  0  0  0  0  0  0  0
   14.1324   23.8334   -1.9061 C   0  0  0  0  0  0  0  0  0  0  0  0
   10.8283   22.1684    2.8206 C   0  0  0  0  0  0  0  0  0  0  0  0
   10.3769   20.9438    3.2311 C   0  0  0  0  0  0  0  0  0  0  0  0
    9.2562   20.8539    4.0576 C   0  0  0  0  0  0  0  0  0  0  0  0
    8.5716   21.9515    4.4914 C   0  0  0  0  0  0  0  0  0  0  0  0
    7.4041   21.8133    5.4020 C   0  0  0  0  0  0  0  0  0  0  0  0
    9.0257   23.2188    4.0901 C   0  0  0  0  0  0  0  0  0  0  0  0
   10.1631   23.2832    3.2491 C   0  0  0  0  0  0  0  0  0  0  0  0
    8.2519   24.4166    4.3416 C   0  0  0  0  0  0  0  0  0  0  0  0
    8.7273   25.5521    3.4819 N   0  0  0  0  0  0  0  0  0  0  0  0
    9.0258   25.0900    2.1352 C   0  0  0  0  0  0  0  0  0  0  0  0
    7.7813   26.1191    3.4116 H   0  0  0  0  0  0  0  0  0  0  0  0
   14.6395   25.0991   -2.1911 N   0  0  0  0  0  0  0  0  0  0  0  0
   14.3420   25.8793   -3.4107 C   0  0  0  0  0  0  0  0  0  0  0  0
   15.5735   25.7405   -1.2430 C   0  0  0  0  0  0  0  0  0  0  0  0
   16.5063   23.4505   -3.7350 C   0  0  0  0  0  0  0  0  0  0  0  0
   15.1769   23.0197   -3.9207 O   0  0  0  0  0  0  0  0  0  0  0  0
 26 27  1  0  0  0
 27  1  1  0  0  0
  1  2  2  0  0  0
  2  3  1  0  0  0
  3  4  1  0  0  0
  4  5  1  0  0  0
  5  6  1  0  0  0
  6  7  1  0  0  0
  7  8  2  0  0  0
  7 12  1  0  0  0
 12 13  2  0  0  0
 13 14  1  0  0  0
 14 15  2  0  0  0
 15 16  1  0  0  0
 15 17  1  0  0  0
 17 19  1  0  0  0
 19 20  1  0  0  0
 20 21  1  0  0  0
 17 18  2  0  0  0
  6  9  1  0  0  0
  9 10  1  0  0  0
 10 11  2  0  0  0
 11 23  1  0  0  0
 23 24  1  0  0  0
 23 25  1  0  0  0
 11  1  1  0  0  0
  9  3  2  0  0  0
 18 12  1  0  0  0
 20 22  1  0  0  0
M  END
> <minimizedAffinity>
-1.56159

> <CNNscore>
0.2294919789

> <CNNaffinity>
5.9159808159

> <CNN_VS>
1.3576701880

> <CNNaffinity_variance>
0.3428648114

$$$$
[H]c1c([H])c(C([H])([H])[H])c(C([H])([H])N([H])C([H])([H])[H])c([H])c1C(=O)N1c2c([H])c(N(C([H])([H])[H])C([H])([H])[H])c(OC([H])([H])[H])c([H])c2C([H])([H])C1([H])[H]


 27 29  0  0  0  0  0  0  0  0999 V2000
   13.7045   25.6907   -2.6752 C   0  0  0  0  0  0  0  0  0  0  0  0
   12.3448   25.6696   -2.3650 C   0  0  0  0  0  0  0  0  0  0  0  0
   11.9200   24.7453   -1.3919 C   0  0  0  0  0  0  0  0  0  0  0  0
   10.5359   24.5658   -0.8671 C   0  0  0  0  0  0  0  0  0  0  0  0
   10.8588   23.8943    0.4649 C   0  0  0  0  0  0  0  0  0  0  0  0
   12.0185   23.0648    0.1569 N   0  0  0  0  0  0  0  0  0  0  0  0
   12.2218   21.7487    0.5484 C   0  0  0  0  0  0  0  0  0  0  0  0
   12.8630   20.9440   -0.2438 O   0  0  0  0  0  0  0  0  0  0  0  0
   12.7599   23.8840   -0.7555 C   0  0  0  0  0  0  0  0  0  0  0  0
   14.0774   23.9416   -1.0891 C   0  0  0  0  0  0  0  0  0  0  0  0
   14.5792   24.8163   -2.0295 C   0  0  0  0  0  0  0  0  0  0  0  0
   11.7973   21.1330    1.8077 C   0  0  0  0  0  0  0  0  0  0  0  0
   12.3669   19.9681    2.2440 C   0  0  0  0  0  0  0  0  0  0  0  0
   11.9071   19.3611    3.4133 C   0  0  0  0  0  0  0  0  0  0  0  0
   10.8954   19.8837    4.1651 C   0  0  0  0  0  0  0  0  0  0  0  0
   10.4606   19.2245    5.4251 C   0  0  0  0  0  0  0  0  0  0  0  0
   10.3046   21.0852    3.7401 C   0  0  0  0  0  0  0  0  0  0  0  0
   10.7872   21.6799    2.5490 C   0  0  0  0  0  0  0  0  0  0  0  0
    9.1058   21.6037    4.3650 C   0  0  0  0  0  0  0  0  0  0  0  0
    9.4307   22.7491    5.2799 N   0  0  0  0  0  0  0  0  0  0  0  0
    8.9564   24.0060    4.7217 C   0  0  0  0  0  0  0  0  0  0  0  0
    8.7454   22.5018    6.1110 H   0  0  0  0  0  0  0  0  0  0  0  0
   15.9414   24.8855   -2.3125 N   0  0  0  0  0  0  0  0  0  0  0  0
   16.9413   25.6155   -1.5051 C   0  0  0  0  0  0  0  0  0  0  0  0
   16.4703   24.2158   -3.5184 C   0  0  0  0  0  0  0  0  0  0  0  0
   13.8497   26.3968   -4.9855 C   0  0  0  0  0  0  0  0  0  0  0  0
   14.2106   26.5769   -3.6347 O   0  0  0  0  0  0  0  0  0  0  0  0
 26 27  1  0  0  0
 27  1  1  0  0  0
  1  2  2  0  0  0
  2  3  1  0  0  0
  3  4  1  0  0  0
  4  5  1  0  0  0
  5  6  1  0  0  0
  6  7  1  0  0  0
  7  8  2  0  0  0
  7 12  1  0  0  0
 12 13  2  0  0  0
 13 14  1  0  0  0
 14 15  2  0  0  0
 15 16  1  0  0  0
 15 17  1  0  0  0
 17 19  1  0  0  0
 19 20  1  0  0  0
 20 21  1  0  0  0
 17 18  2  0  0  0
  6  9  1  0  0  0
  9 10  1  0  0  0
 10 11  2  0  0  0
 11 23  1  0  0  0
 23 24  1  0  0  0
 23 25  1  0  0  0
 11  1  1  0  0  0
  9  3  2  0  0  0
 18 12  1  0  0  0
 20 22  1  0  0  0
M  END
> <minimizedAffinity>
-6.21743

> <CNNscore>
0.2097351849

> <CNNaffinity>
6.1338400841

> <CNN_VS>
1.2864820957

> <CNNaffinity_variance>
0.2522875071

$$$$
[H]c1c([H])c(C([H])([H])[H])c(C([H])([H])N([H])C([H])([H])[H])c([H])c1C(=O)N1c2c([H])c(N(C([H])([H])[H])C([H])([H])[H])c(OC([H])([H])[H])c([H])c2C([H])([H])C1([H])[H]


 27 29  0  0  0  0  0  0  0  0999 V2000
   15.2420   24.3412   -3.9680 C   0  0  0  0  0  0  0  0  0  0  0  0
   15.1987   23.0462   -3.4518 C   0  0  0  0  0  0  0  0  0  0  0  0
   14.3254   22.8113   -2.3729 C   0  0  0  0  0  0  0  0  0  0  0  0
   14.0761   21.5119   -1.6855 C   0  0  0  0  0  0  0  0  0  0  0  0
   12.7071   21.8083   -1.0795 C   0  0  0  0  0  0  0  0  0  0  0  0
   12.7869   23.2226   -0.7308 N   0  0  0  0  0  0  0  0  0  0  0  0
   12.3639   23.8075    0.4547 C   0  0  0  0  0  0  0  0  0  0  0  0
   13.0185   24.8241    0.9282 O   0  0  0  0  0  0  0  0  0  0  0  0
   13.5398   23.7743   -1.8181 C   0  0  0  0  0  0  0  0  0  0  0  0
   13.6142   25.0218   -2.3552 C   0  0  0  0  0  0  0  0  0  0  0  0
   14.4407   25.3391   -3.4125 C   0  0  0  0  0  0  0  0  0  0  0  0
   11.2096   23.4117    1.2648 C   0  0  0  0  0  0  0  0  0  0  0  0
   10.0388   24.1171    1.2063 C   0  0  0  0  0  0  0  0  0  0  0  0
    8.9698   23.7654    2.0313 C   0  0  0  0  0  0  0  0  0  0  0  0
    9.0317   22.7262    2.9134 C   0  0  0  0  0  0  0  0  0  0  0  0
    7.8563   22.3613    3.7480 C   0  0  0  0  0  0  0  0  0  0  0  0
   10.2214   21.9824    2.9809 C   0  0  0  0  0  0  0  0  0  0  0  0
   11.2925   22.3610    2.1355 C   0  0  0  0  0  0  0  0  0  0  0  0
   10.4410   20.9948    4.0168 C   0  0  0  0  0  0  0  0  0  0  0  0
   11.8478   20.4721    3.9694 N   0  0  0  0  0  0  0  0  0  0  0  0
   11.8580   19.0174    3.9685 C   0  0  0  0  0  0  0  0  0  0  0  0
   12.1099   20.7838    2.9420 H   0  0  0  0  0  0  0  0  0  0  0  0
   14.4569   26.6144   -3.9726 N   0  0  0  0  0  0  0  0  0  0  0  0
   15.6534   27.4732   -4.0965 C   0  0  0  0  0  0  0  0  0  0  0  0
   13.1989   27.2080   -4.4700 C   0  0  0  0  0  0  0  0  0  0  0  0
   15.5209   24.8700   -6.3132 C   0  0  0  0  0  0  0  0  0  0  0  0
   16.0864   24.6618   -5.0388 O   0  0  0  0  0  0  0  0  0  0  0  0
 26 27  1  0  0  0
 27  1  1  0  0  0
  1  2  2  0  0  0
  2  3  1  0  0  0
  3  4  1  0  0  0
  4  5  1  0  0  0
  5  6  1  0  0  0
  6  7  1  0  0  0
  7  8  2  0  0  0
  7 12  1  0  0  0
 12 13  2  0  0  0
 13 14  1  0  0  0
 14 15  2  0  0  0
 15 16  1  0  0  0
 15 17  1  0  0  0
 17 19  1  0  0  0
 19 20  1  0  0  0
 20 21  1  0  0  0
 17 18  2  0  0  0
  6  9  1  0  0  0
  9 10  1  0  0  0
 10 11  2  0  0  0
 11 23  1  0  0  0
 23 24  1  0  0  0
 23 25  1  0  0  0
 11  1  1  0  0  0
  9  3  2  0  0  0
 18 12  1  0  0  0
 20 22  1  0  0  0
M  END
> <minimizedAffinity>
-6.67285

> <CNNscore>
0.2042462081

> <CNNaffinity>
6.4452042580

> <CNN_VS>
1.3164085150

> <CNNaffinity_variance>
0.0491325110

$$$$
[H]c1c([H])c(C([H])([H])[H])c(C([H])([H])N([H])C([H])([H])[H])c([H])c1C(=O)N1c2c([H])c(N(C([H])([H])[H])C([H])([H])[H])c(OC([H])([H])[H])c([H])c2C([H])([H])C1([H])[H]


 27 29  0  0  0  0  0  0  0  0999 V2000
   16.9073   27.1458   -3.6794 C   0  0  0  0  0  0  0  0  0  0  0  0
   17.1345   26.6936   -2.3797 C   0  0  0  0  0  0  0  0  0  0  0  0
   16.1933   25.7998   -1.8346 C   0  0  0  0  0  0  0  0  0  0  0  0
   16.2419   25.1524   -0.4923 C   0  0  0  0  0  0  0  0  0  0  0  0
   15.3330   23.9557   -0.7589 C   0  0  0  0  0  0  0  0  0  0  0  0
   14.3267   24.4877   -1.6712 N   0  0  0  0  0  0  0  0  0  0  0  0
   12.9555   24.2842   -1.6002 C   0  0  0  0  0  0  0  0  0  0  0  0
   12.1539   25.2340   -1.9763 O   0  0  0  0  0  0  0  0  0  0  0  0
   15.0897   25.3690   -2.5045 C   0  0  0  0  0  0  0  0  0  0  0  0
   14.9102   25.8353   -3.7697 C   0  0  0  0  0  0  0  0  0  0  0  0
   15.7823   26.7113   -4.3809 C   0  0  0  0  0  0  0  0  0  0  0  0
   12.2714   23.0705   -1.1484 C   0  0  0  0  0  0  0  0  0  0  0  0
   12.8204   21.8361   -1.3644 C   0  0  0  0  0  0  0  0  0  0  0  0
   12.1261   20.6869   -0.9845 C   0  0  0  0  0  0  0  0  0  0  0  0
   10.8983   20.7312   -0.3909 C   0  0  0  0  0  0  0  0  0  0  0  0
   10.2087   19.4836    0.0324 C   0  0  0  0  0  0  0  0  0  0  0  0
   10.3221   21.9895   -0.1502 C   0  0  0  0  0  0  0  0  0  0  0  0
   11.0454   23.1403   -0.5476 C   0  0  0  0  0  0  0  0  0  0  0  0
    8.9504   22.1234    0.2937 C   0  0  0  0  0  0  0  0  0  0  0  0
    8.8661   22.9819    1.5226 N   0  0  0  0  0  0  0  0  0  0  0  0
    9.2601   22.2311    2.7047 C   0  0  0  0  0  0  0  0  0  0  0  0
    9.6998   23.6735    1.3037 H   0  0  0  0  0  0  0  0  0  0  0  0
   15.5971   27.1312   -5.6961 N   0  0  0  0  0  0  0  0  0  0  0  0
   15.3440   26.2377   -6.8460 C   0  0  0  0  0  0  0  0  0  0  0  0
   15.6788   28.5702   -6.0202 C   0  0  0  0  0  0  0  0  0  0  0  0
   19.1047   28.1535   -3.7942 C   0  0  0  0  0  0  0  0  0  0  0  0
   17.7922   28.0397   -4.2959 O   0  0  0  0  0  0  0  0  0  0  0  0
 26 27  1  0  0  0
 27  1  1  0  0  0
  1  2  2  0  0  0
  2  3  1  0  0  0
  3  4  1  0  0  0
  4  5  1  0  0  0
  5  6  1  0  0  0
  6  7  1  0  0  0
  7  8  2  0  0  0
  7 12  1  0  0  0
 12 13  2  0  0  0
 13 14  1  0  0  0
 14 15  2  0  0  0
 15 16  1  0  0  0
 15 17  1  0  0  0
 17 19  1  0  0  0
 19 20  1  0  0  0
 20 21  1  0  0  0
 17 18  2  0  0  0
  6  9  1  0  0  0
  9 10  1  0  0  0
 10 11  2  0  0  0
 11 23  1  0  0  0
 23 24  1  0  0  0
 23 25  1  0  0  0
 11  1  1  0  0  0
  9  3  2  0  0  0
 18 12  1  0  0  0
 20 22  1  0  0  0
M  END
> <minimizedAffinity>
-6.00274

> <CNNscore>
0.2039315552

> <CNNaffinity>
6.3907418251

> <CNN_VS>
1.3032739162

> <CNNaffinity_variance>
0.1461385787

$$$$
[H]c1c([H])c(C([H])([H])[H])c(C([H])([H])N([H])C([H])([H])[H])c([H])c1C(=O)N1c2c([H])c(N(C([H])([H])[H])C([H])([H])[H])c(OC([H])([H])[H])c([H])c2C([H])([H])C1([H])[H]


 27 29  0  0  0  0  0  0  0  0999 V2000
   16.0252   25.6913   -2.7778 C   0  0  0  0  0  0  0  0  0  0  0  0
   16.3539   25.1413   -1.5389 C   0  0  0  0  0  0  0  0  0  0  0  0
   15.3034   24.5964   -0.7764 C   0  0  0  0  0  0  0  0  0  0  0  0
   15.4115   23.9212    0.5486 C   0  0  0  0  0  0  0  0  0  0  0  0
   14.1188   23.1104    0.5221 C   0  0  0  0  0  0  0  0  0  0  0  0
   13.1825   23.9830   -0.1779 N   0  0  0  0  0  0  0  0  0  0  0  0
   11.8700   24.2497    0.1861 C   0  0  0  0  0  0  0  0  0  0  0  0
   11.3745   25.4269   -0.0481 O   0  0  0  0  0  0  0  0  0  0  0  0
   14.0049   24.5867   -1.1841 C   0  0  0  0  0  0  0  0  0  0  0  0
   13.7319   25.1326   -2.3998 C   0  0  0  0  0  0  0  0  0  0  0  0
   14.6992   25.6865   -3.2116 C   0  0  0  0  0  0  0  0  0  0  0  0
   10.9284   23.3208    0.8152 C   0  0  0  0  0  0  0  0  0  0  0  0
    9.7512   22.9937    0.1994 C   0  0  0  0  0  0  0  0  0  0  0  0
    8.8367   22.1572    0.8407 C   0  0  0  0  0  0  0  0  0  0  0  0
    9.0624   21.6326    2.0799 C   0  0  0  0  0  0  0  0  0  0  0  0
    8.0777   20.7151    2.7121 C   0  0  0  0  0  0  0  0  0  0  0  0
   10.2701   21.9475    2.7244 C   0  0  0  0  0  0  0  0  0  0  0  0
   11.1802   22.8005    2.0541 C   0  0  0  0  0  0  0  0  0  0  0  0
   10.5051   21.5957    4.1092 C   0  0  0  0  0  0  0  0  0  0  0  0
   11.8102   20.8695    4.2637 N   0  0  0  0  0  0  0  0  0  0  0  0
   11.6820   19.4827    3.8433 C   0  0  0  0  0  0  0  0  0  0  0  0
   12.3840   21.3814    3.4698 H   0  0  0  0  0  0  0  0  0  0  0  0
   14.3949   26.1924   -4.4733 N   0  0  0  0  0  0  0  0  0  0  0  0
   15.1073   25.8480   -5.7217 C   0  0  0  0  0  0  0  0  0  0  0  0
   13.3008   27.1740   -4.6205 C   0  0  0  0  0  0  0  0  0  0  0  0
   17.3452   27.6154   -3.4202 C   0  0  0  0  0  0  0  0  0  0  0  0
   17.0092   26.2579   -3.5981 O   0  0  0  0  0  0  0  0  0  0  0  0
 26 27  1  0  0  0
 27  1  1  0  0  0
  1  2  2  0  0  0
  2  3  1  0  0  0
  3  4  1  0  0  0
  4  5  1  0  0  0
  5  6  1  0  0  0
  6  7  1  0  0  0
  7  8  2  0  0  0
  7 12  1  0  0  0
 12 13  2  0  0  0
 13 14  1  0  0  0
 14 15  2  0  0  0
 15 16  1  0  0  0
 15 17  1  0  0  0
 17 19  1  0  0  0
 19 20  1  0  0  0
 20 21  1  0  0  0
 17 18  2  0  0  0
  6  9  1  0  0  0
  9 10  1  0  0  0
 10 11  2  0  0  0
 11 23  1  0  0  0
 23 24  1  0  0  0
 23 25  1  0  0  0
 11  1  1  0  0  0
  9  3  2  0  0  0
 18 12  1  0  0  0
 20 22  1  0  0  0
M  END
> <minimizedAffinity>
-6.49393

> <CNNscore>
0.1956764162

> <CNNaffinity>
6.2829866409

> <CNN_VS>
1.2294323444

> <CNNaffinity_variance>
0.1951036900

$$$$
[H]c1c([H])c(C(=O)N([H])[C@]2([H])C([H])([H])C([H])([H])[C@]([H])(N([H])S(=O)(=O)c3c([H])c([H])c(OC([H])([H])[H])c([H])c3[H])C([H])([H])C2([H])[H])c([H])c([H])c1C#N


 31 33  0  0  0  0  0  0  0  0999 V2000
   14.7542   25.4002   -4.7312 C   0  0  0  0  0  0  0  0  0  0  0  0
   13.6604   26.3735   -4.3880 C   0  0  0  0  0  0  0  0  0  0  0  0
   13.4145   26.3672   -2.8730 C   0  0  0  0  0  0  0  0  0  0  0  0
   12.8315   24.9892   -2.6056 C   0  0  0  0  0  0  0  0  0  0  0  0
   13.9064   23.9875   -2.8161 C   0  0  0  0  0  0  0  0  0  0  0  0
   15.0136   24.3626   -3.7051 C   0  0  0  0  0  0  0  0  0  0  0  0
   12.2759   24.8804   -1.2928 N   0  0  0  0  0  0  0  0  0  0  0  0
   11.6416   23.6951   -0.8497 C   0  0  0  0  0  0  0  0  0  0  0  0
   11.5775   22.7156   -1.6595 O   0  0  0  0  0  0  0  0  0  0  0  0
   12.3450   25.6954   -0.6578 H   0  0  0  0  0  0  0  0  0  0  0  0
   11.0569   23.5156    0.4671 C   0  0  0  0  0  0  0  0  0  0  0  0
   10.4958   24.6199    1.1037 C   0  0  0  0  0  0  0  0  0  0  0  0
    9.9481   24.4487    2.3395 C   0  0  0  0  0  0  0  0  0  0  0  0
    9.9454   23.2119    2.9536 C   0  0  0  0  0  0  0  0  0  0  0  0
   10.5024   22.1215    2.3189 C   0  0  0  0  0  0  0  0  0  0  0  0
   11.0562   22.2868    1.0731 C   0  0  0  0  0  0  0  0  0  0  0  0
    9.3658   23.0514    4.2510 C   0  0  0  0  0  0  0  0  0  0  0  0
    8.8748   22.9256    5.3050 N   0  0  0  0  0  0  0  0  0  0  0  0
   15.9548   26.1810   -4.9610 N   0  0  0  0  0  0  0  0  0  0  0  0
   16.7276   25.6256   -5.3902 H   0  0  0  0  0  0  0  0  0  0  0  0
   16.5116   26.9852   -3.5513 S   0  0  0  0  0  0  0  0  0  0  0  0
   17.9273   27.4340   -3.7778 O   0  0  0  0  0  0  0  0  0  0  0  0
   15.7075   28.1771   -3.2021 O   0  0  0  0  0  0  0  0  0  0  0  0
   16.5255   24.2800    0.1458 C   0  0  0  0  0  0  0  0  0  0  0  0
   17.4032   24.0574   -0.8933 C   0  0  0  0  0  0  0  0  0  0  0  0
   17.4121   24.8702   -2.0256 C   0  0  0  0  0  0  0  0  0  0  0  0
   16.5391   25.9301   -2.1457 C   0  0  0  0  0  0  0  0  0  0  0  0
   15.6607   26.1439   -1.0933 C   0  0  0  0  0  0  0  0  0  0  0  0
   15.6517   25.3399    0.0270 C   0  0  0  0  0  0  0  0  0  0  0  0
   16.1271   22.1143    1.2354 C   0  0  0  0  0  0  0  0  0  0  0  0
   16.5010   23.4765    1.2892 O   0  0  0  0  0  0  0  0  0  0  0  0
 30 31  1  0  0  0
 31 24  1  0  0  0
 24 25  2  0  0  0
 25 26  1  0  0  0
 26 27  2  0  0  0
 27 28  1  0  0  0
 28 29  2  0  0  0
 27 21  1  0  0  0
 21 22  2  0  0  0
 21 23  2  0  0  0
 21 19  1  0  0  0
 19  1  1  0  0  0
  1  2  1  0  0  0
  2  3  1  0  0  0
  3  4  1  0  0  0
  4  5  1  0  0  0
  5  6  1  0  0  0
  4  7  1  0  0  0
  7  8  1  0  0  0
  8  9  2  0  0  0
  8 11  1  0  0  0
 11 12  2  0  0  0
 12 13  1  0  0  0
 13 14  2  0  0  0
 14 15  1  0  0  0
 15 16  2  0  0  0
 14 17  1  0  0  0
 17 18  3  0  0  0
 29 24  1  0  0  0
  6  1  1  0  0  0
 16 11  1  0  0  0
 19 20  1  0  0  0
  7 10  1  0  0  0
M  END
> <minimizedAffinity>
-2.35771

> <CNNscore>
0.4768161178

> <CNNaffinity>
6.9294600487

> <CNN_VS>
3.3040783405

> <CNNaffinity_variance>
0.1762233973

$$$$
[H]c1c([H])c(C(=O)N([H])[C@]2([H])C([H])([H])C([H])([H])[C@]([H])(N([H])S(=O)(=O)c3c([H])c([H])c(OC([H])([H])[H])c([H])c3[H])C([H])([H])C2([H])[H])c([H])c([H])c1C#N


 31 33  0  0  0  0  0  0  0  0999 V2000
   16.2382   23.7903   -1.3031 C   0  0  0  0  0  0  0  0  0  0  0  0
   15.1330   22.8073   -1.5747 C   0  0  0  0  0  0  0  0  0  0  0  0
   13.7812   23.4249   -1.1909 C   0  0  0  0  0  0  0  0  0  0  0  0
   13.8544   23.5468    0.3223 C   0  0  0  0  0  0  0  0  0  0  0  0
   14.8530   24.5948    0.6504 C   0  0  0  0  0  0  0  0  0  0  0  0
   15.8950   24.8699   -0.3473 C   0  0  0  0  0  0  0  0  0  0  0  0
   12.5834   23.8462    0.9047 N   0  0  0  0  0  0  0  0  0  0  0  0
   11.8853   22.9000    1.6928 C   0  0  0  0  0  0  0  0  0  0  0  0
   12.4242   21.7613    1.8728 O   0  0  0  0  0  0  0  0  0  0  0  0
   12.1722   24.7820    0.7395 H   0  0  0  0  0  0  0  0  0  0  0  0
   10.5939   23.1360    2.3131 C   0  0  0  0  0  0  0  0  0  0  0  0
    9.8158   24.1945    1.8510 C   0  0  0  0  0  0  0  0  0  0  0  0
    8.6044   24.4140    2.4351 C   0  0  0  0  0  0  0  0  0  0  0  0
    8.1516   23.6098    3.4623 C   0  0  0  0  0  0  0  0  0  0  0  0
    8.9261   22.5629    3.9161 C   0  0  0  0  0  0  0  0  0  0  0  0
   10.1480   22.3359    3.3319 C   0  0  0  0  0  0  0  0  0  0  0  0
    6.8773   23.8554    4.0631 C   0  0  0  0  0  0  0  0  0  0  0  0
    5.8405   24.0455    4.5695 N   0  0  0  0  0  0  0  0  0  0  0  0
   16.6160   24.3618   -2.5816 N   0  0  0  0  0  0  0  0  0  0  0  0
   16.8671   25.3732   -2.5189 H   0  0  0  0  0  0  0  0  0  0  0  0
   15.4342   24.1164   -3.8010 S   0  0  0  0  0  0  0  0  0  0  0  0
   16.1241   24.0304   -5.1329 O   0  0  0  0  0  0  0  0  0  0  0  0
   14.6506   22.8753   -3.6144 O   0  0  0  0  0  0  0  0  0  0  0  0
   12.5105   27.6256   -4.1534 C   0  0  0  0  0  0  0  0  0  0  0  0
   12.4275   26.7427   -3.0982 C   0  0  0  0  0  0  0  0  0  0  0  0
   13.3084   25.6694   -2.9759 C   0  0  0  0  0  0  0  0  0  0  0  0
   14.2980   25.4530   -3.9106 C   0  0  0  0  0  0  0  0  0  0  0  0
   14.3713   26.3484   -4.9680 C   0  0  0  0  0  0  0  0  0  0  0  0
   13.4999   27.4103   -5.0891 C   0  0  0  0  0  0  0  0  0  0  0  0
   11.9066   29.9647   -3.7064 C   0  0  0  0  0  0  0  0  0  0  0  0
   11.6368   28.7075   -4.2937 O   0  0  0  0  0  0  0  0  0  0  0  0
 30 31  1  0  0  0
 31 24  1  0  0  0
 24 25  2  0  0  0
 25 26  1  0  0  0
 26 27  2  0  0  0
 27 28  1  0  0  0
 28 29  2  0  0  0
 27 21  1  0  0  0
 21 22  2  0  0  0
 21 23  2  0  0  0
 21 19  1  0  0  0
 19  1  1  0  0  0
  1  2  1  0  0  0
  2  3  1  0  0  0
  3  4  1  0  0  0
  4  5  1  0  0  0
  5  6  1  0  0  0
  4  7  1  0  0  0
  7  8  1  0  0  0
  8  9  2  0  0  0
  8 11  1  0  0  0
 11 12  2  0  0  0
 12 13  1  0  0  0
 13 14  2  0  0  0
 14 15  1  0  0  0
 15 16  2  0  0  0
 14 17  1  0  0  0
 17 18  3  0  0  0
 29 24  1  0  0  0
  6  1  1  0  0  0
 16 11  1  0  0  0
 19 20  1  0  0  0
  7 10  1  0  0  0
M  END
> <minimizedAffinity>
-1.58038

> <CNNscore>
0.4498341978

> <CNNaffinity>
6.7167921066

> <CNN_VS>
3.0214428902

> <CNNaffinity_variance>
0.5596957803

$$$$
[H]c1c([H])c(C(=O)N([H])[C@]2([H])C([H])([H])C([H])([H])[C@]([H])(N([H])S(=O)(=O)c3c([H])c([H])c(OC([H])([H])[H])c([H])c3[H])C([H])([H])C2([H])[H])c([H])c([H])c1C#N


 31 33  0  0  0  0  0  0  0  0999 V2000
    9.2205   22.6400   -1.6787 C   0  0  0  0  0  0  0  0  0  0  0  0
   10.4137   21.7482   -1.8849 C   0  0  0  0  0  0  0  0  0  0  0  0
   11.4817   22.0545   -0.8259 C   0  0  0  0  0  0  0  0  0  0  0  0
   11.9541   23.4547   -1.1811 C   0  0  0  0  0  0  0  0  0  0  0  0
   10.8491   24.4007   -0.8850 C   0  0  0  0  0  0  0  0  0  0  0  0
    9.4827   23.8624   -0.8826 C   0  0  0  0  0  0  0  0  0  0  0  0
   13.1458   23.8194   -0.4804 N   0  0  0  0  0  0  0  0  0  0  0  0
   14.3300   23.0498   -0.5769 C   0  0  0  0  0  0  0  0  0  0  0  0
   14.3073   22.0118   -1.3126 O   0  0  0  0  0  0  0  0  0  0  0  0
   13.1315   24.6701    0.1097 H   0  0  0  0  0  0  0  0  0  0  0  0
   15.5732   23.3608    0.1056 C   0  0  0  0  0  0  0  0  0  0  0  0
   16.2798   22.3236    0.7095 C   0  0  0  0  0  0  0  0  0  0  0  0
   17.4461   22.6183    1.3496 C   0  0  0  0  0  0  0  0  0  0  0  0
   17.9233   23.9130    1.4028 C   0  0  0  0  0  0  0  0  0  0  0  0
   17.2197   24.9364    0.8031 C   0  0  0  0  0  0  0  0  0  0  0  0
   16.0435   24.6466    0.1561 C   0  0  0  0  0  0  0  0  0  0  0  0
   19.1494   24.2031    2.0791 C   0  0  0  0  0  0  0  0  0  0  0  0
   20.1433   24.4379    2.6490 N   0  0  0  0  0  0  0  0  0  0  0  0
    8.2017   21.8359   -1.0311 N   0  0  0  0  0  0  0  0  0  0  0  0
    7.2791   21.8754   -1.5181 H   0  0  0  0  0  0  0  0  0  0  0  0
    8.0124   22.2069    0.6334 S   0  0  0  0  0  0  0  0  0  0  0  0
    8.2131   23.6834    0.8256 O   0  0  0  0  0  0  0  0  0  0  0  0
    6.6753   21.8576    1.1617 O   0  0  0  0  0  0  0  0  0  0  0  0
   11.0988   20.1454    3.3187 C   0  0  0  0  0  0  0  0  0  0  0  0
   11.1543   20.0089    1.9483 C   0  0  0  0  0  0  0  0  0  0  0  0
   10.2232   20.6286    1.1166 C   0  0  0  0  0  0  0  0  0  0  0  0
    9.2097   21.4034    1.6386 C   0  0  0  0  0  0  0  0  0  0  0  0
    9.1644   21.5331    3.0193 C   0  0  0  0  0  0  0  0  0  0  0  0
   10.0856   20.9202    3.8422 C   0  0  0  0  0  0  0  0  0  0  0  0
   11.6330   18.9442    5.3942 C   0  0  0  0  0  0  0  0  0  0  0  0
   12.0230   19.5322    4.1694 O   0  0  0  0  0  0  0  0  0  0  0  0
 30 31  1  0  0  0
 31 24  1  0  0  0
 24 25  2  0  0  0
 25 26  1  0  0  0
 26 27  2  0  0  0
 27 28  1  0  0  0
 28 29  2  0  0  0
 27 21  1  0  0  0
 21 22  2  0  0  0
 21 23  2  0  0  0
 21 19  1  0  0  0
 19  1  1  0  0  0
  1  2  1  0  0  0
  2  3  1  0  0  0
  3  4  1  0  0  0
  4  5  1  0  0  0
  5  6  1  0  0  0
  4  7  1  0  0  0
  7  8  1  0  0  0
  8  9  2  0  0  0
  8 11  1  0  0  0
 11 12  2  0  0  0
 12 13  1  0  0  0
 13 14  2  0  0  0
 14 15  1  0  0  0
 15 16  2  0  0  0
 14 17  1  0  0  0
 17 18  3  0  0  0
 29 24  1  0  0  0
  6  1  1  0  0  0
 16 11  1  0  0  0
 19 20  1  0  0  0
  7 10  1  0  0  0
M  END
> <minimizedAffinity>
6.07274

> <CNNscore>
0.4252214134

> <CNNaffinity>
6.5380835533

> <CNN_VS>
2.7801332474

> <CNNaffinity_variance>
0.9677945375

$$$$
[H]c1c([H])c(C(=O)N([H])[C@]2([H])C([H])([H])C([H])([H])[C@]([H])(N([H])S(=O)(=O)c3c([H])c([H])c(OC([H])([H])[H])c([H])c3[H])C([H])([H])C2([H])[H])c([H])c([H])c1C#N


 31 33  0  0  0  0  0  0  0  0999 V2000
    8.8241   22.0136   -0.0424 C   0  0  0  0  0  0  0  0  0  0  0  0
    9.6368   21.2021   -1.0132 C   0  0  0  0  0  0  0  0  0  0  0  0
   11.1086   21.1905   -0.5776 C   0  0  0  0  0  0  0  0  0  0  0  0
   11.5569   22.6293   -0.7748 C   0  0  0  0  0  0  0  0  0  0  0  0
   10.8710   23.4669    0.2407 C   0  0  0  0  0  0  0  0  0  0  0  0
    9.6038   22.9634    0.7862 C   0  0  0  0  0  0  0  0  0  0  0  0
   12.9767   22.7722   -0.6865 N   0  0  0  0  0  0  0  0  0  0  0  0
   13.5887   23.4703    0.3820 C   0  0  0  0  0  0  0  0  0  0  0  0
   12.8338   23.9741    1.2741 O   0  0  0  0  0  0  0  0  0  0  0  0
   13.5630   22.3502   -1.4284 H   0  0  0  0  0  0  0  0  0  0  0  0
   15.0209   23.6536    0.5342 C   0  0  0  0  0  0  0  0  0  0  0  0
   15.7809   22.5929    1.0208 C   0  0  0  0  0  0  0  0  0  0  0  0
   17.1248   22.7677    1.1630 C   0  0  0  0  0  0  0  0  0  0  0  0
   17.7270   23.9662    0.8344 C   0  0  0  0  0  0  0  0  0  0  0  0
   16.9698   25.0134    0.3529 C   0  0  0  0  0  0  0  0  0  0  0  0
   15.6148   24.8442    0.2070 C   0  0  0  0  0  0  0  0  0  0  0  0
   19.1388   24.1311    0.9902 C   0  0  0  0  0  0  0  0  0  0  0  0
   20.2912   24.2850    1.1174 N   0  0  0  0  0  0  0  0  0  0  0  0
    8.1238   21.0716    0.8098 N   0  0  0  0  0  0  0  0  0  0  0  0
    7.1155   20.9662    0.5603 H   0  0  0  0  0  0  0  0  0  0  0  0
    8.2894   21.4273    2.4801 S   0  0  0  0  0  0  0  0  0  0  0  0
    7.4024   20.5007    3.2622 O   0  0  0  0  0  0  0  0  0  0  0  0
    9.6724   21.2610    2.9789 O   0  0  0  0  0  0  0  0  0  0  0  0
    6.9036   25.6586    3.5584 C   0  0  0  0  0  0  0  0  0  0  0  0
    7.7337   25.4427    2.4794 C   0  0  0  0  0  0  0  0  0  0  0  0
    8.1653   24.1622    2.1377 C   0  0  0  0  0  0  0  0  0  0  0  0
    7.7748   23.0620    2.8706 C   0  0  0  0  0  0  0  0  0  0  0  0
    6.9393   23.2923    3.9541 C   0  0  0  0  0  0  0  0  0  0  0  0
    6.5122   24.5591    4.2923 C   0  0  0  0  0  0  0  0  0  0  0  0
    6.1051   27.2539    5.2476 C   0  0  0  0  0  0  0  0  0  0  0  0
    6.4601   26.9346    3.9171 O   0  0  0  0  0  0  0  0  0  0  0  0
 30 31  1  0  0  0
 31 24  1  0  0  0
 24 25  2  0  0  0
 25 26  1  0  0  0
 26 27  2  0  0  0
 27 28  1  0  0  0
 28 29  2  0  0  0
 27 21  1  0  0  0
 21 22  2  0  0  0
 21 23  2  0  0  0
 21 19  1  0  0  0
 19  1  1  0  0  0
  1  2  1  0  0  0
  2  3  1  0  0  0
  3  4  1  0  0  0
  4  5  1  0  0  0
  5  6  1  0  0  0
  4  7  1  0  0  0
  7  8  1  0  0  0
  8  9  2  0  0  0
  8 11  1  0  0  0
 11 12  2  0  0  0
 12 13  1  0  0  0
 13 14  2  0  0  0
 14 15  1  0  0  0
 15 16  2  0  0  0
 14 17  1  0  0  0
 17 18  3  0  0  0
 29 24  1  0  0  0
  6  1  1  0  0  0
 16 11  1  0  0  0
 19 20  1  0  0  0
  7 10  1  0  0  0
M  END
> <minimizedAffinity>
0.15219

> <CNNscore>
0.4172400534

> <CNNaffinity>
6.5263185501

> <CNN_VS>
2.7230415344

> <CNNaffinity_variance>
0.5243217349

$$$$
[H]c1c([H])c(C(=O)N([H])[C@]2([H])C([H])([H])C([H])([H])[C@]([H])(N([H])S(=O)(=O)c3c([H])c([H])c(OC([H])([H])[H])c([H])c3[H])C([H])([H])C2([H])[H])c([H])c([H])c1C#N


 31 33  0  0  0  0  0  0  0  0999 V2000
   12.7052   21.5041   -2.0854 C   0  0  0  0  0  0  0  0  0  0  0  0
   12.5002   22.9855   -2.2435 C   0  0  0  0  0  0  0  0  0  0  0  0
   11.7104   23.5324   -1.0465 C   0  0  0  0  0  0  0  0  0  0  0  0
   10.3323   22.9117   -1.2066 C   0  0  0  0  0  0  0  0  0  0  0  0
   10.4517   21.4556   -0.9445 C   0  0  0  0  0  0  0  0  0  0  0  0
   11.7690   20.8391   -1.1483 C   0  0  0  0  0  0  0  0  0  0  0  0
    9.3630   23.5125   -0.3444 N   0  0  0  0  0  0  0  0  0  0  0  0
    9.6565   23.8164    1.0067 C   0  0  0  0  0  0  0  0  0  0  0  0
   10.8200   23.5380    1.4404 O   0  0  0  0  0  0  0  0  0  0  0  0
    8.4255   23.7269   -0.7282 H   0  0  0  0  0  0  0  0  0  0  0  0
    8.7223   24.4251    1.9366 C   0  0  0  0  0  0  0  0  0  0  0  0
    7.9361   23.5946    2.7315 C   0  0  0  0  0  0  0  0  0  0  0  0
    7.0600   24.1684    3.6031 C   0  0  0  0  0  0  0  0  0  0  0  0
    6.9480   25.5412    3.7020 C   0  0  0  0  0  0  0  0  0  0  0  0
    7.7289   26.3591    2.9125 C   0  0  0  0  0  0  0  0  0  0  0  0
    8.6141   25.7875    2.0319 C   0  0  0  0  0  0  0  0  0  0  0  0
    6.0229   26.1255    4.6226 C   0  0  0  0  0  0  0  0  0  0  0  0
    5.2556   26.6093    5.3608 N   0  0  0  0  0  0  0  0  0  0  0  0
   14.0720   21.3143   -1.6385 N   0  0  0  0  0  0  0  0  0  0  0  0
   14.1487   20.6703   -0.8204 H   0  0  0  0  0  0  0  0  0  0  0  0
   14.8816   22.7913   -1.3113 S   0  0  0  0  0  0  0  0  0  0  0  0
   14.1479   23.5128   -0.2166 O   0  0  0  0  0  0  0  0  0  0  0  0
   16.2825   22.6054   -0.8733 O   0  0  0  0  0  0  0  0  0  0  0  0
   14.9547   25.5425   -4.9736 C   0  0  0  0  0  0  0  0  0  0  0  0
   14.4364   25.9803   -3.7738 C   0  0  0  0  0  0  0  0  0  0  0  0
   14.4058   25.1564   -2.6500 C   0  0  0  0  0  0  0  0  0  0  0  0
   14.8954   23.8689   -2.6999 C   0  0  0  0  0  0  0  0  0  0  0  0
   15.4145   23.4398   -3.9130 C   0  0  0  0  0  0  0  0  0  0  0  0
   15.4448   24.2548   -5.0250 C   0  0  0  0  0  0  0  0  0  0  0  0
   15.4506   25.8671   -7.3578 C   0  0  0  0  0  0  0  0  0  0  0  0
   14.9944   26.3533   -6.1114 O   0  0  0  0  0  0  0  0  0  0  0  0
 30 31  1  0  0  0
 31 24  1  0  0  0
 24 25  2  0  0  0
 25 26  1  0  0  0
 26 27  2  0  0  0
 27 28  1  0  0  0
 28 29  2  0  0  0
 27 21  1  0  0  0
 21 22  2  0  0  0
 21 23  2  0  0  0
 21 19  1  0  0  0
 19  1  1  0  0  0
  1  2  1  0  0  0
  2  3  1  0  0  0
  3  4  1  0  0  0
  4  5  1  0  0  0
  5  6  1  0  0  0
  4  7  1  0  0  0
  7  8  1  0  0  0
  8  9  2  0  0  0
  8 11  1  0  0  0
 11 12  2  0  0  0
 12 13  1  0  0  0
 13 14  2  0  0  0
 14 15  1  0  0  0
 15 16  2  0  0  0
 14 17  1  0  0  0
 17 18  3  0  0  0
 29 24  1  0  0  0
  6  1  1  0  0  0
 16 11  1  0  0  0
 19 20  1  0  0  0
  7 10  1  0  0  0
M  END
> <minimizedAffinity>
-3.02129

> <CNNscore>
0.4136747122

> <CNNaffinity>
6.8451819420

> <CNN_VS>
2.8316786289

> <CNNaffinity_variance>
0.5815011263

$$$$
[H]c1c([H])c(C(=O)N([H])[C@]2([H])C([H])([H])C([H])([H])[C@]([H])(N([H])S(=O)(=O)c3c([H])c([H])c(OC([H])([H])[H])c([H])c3[H])C([H])([H])C2([H])[H])c([H])c([H])c1C#N


 31 33  0  0  0  0  0  0  0  0999 V2000
   15.3574   24.6205   -0.9097 C   0  0  0  0  0  0  0  0  0  0  0  0
   14.6550   23.8828   -2.0160 C   0  0  0  0  0  0  0  0  0  0  0  0
   13.2483   23.4740   -1.5578 C   0  0  0  0  0  0  0  0  0  0  0  0
   13.5057   22.4370   -0.4768 C   0  0  0  0  0  0  0  0  0  0  0  0
   14.0953   23.1321    0.6947 C   0  0  0  0  0  0  0  0  0  0  0  0
   14.7992   24.3967    0.4449 C   0  0  0  0  0  0  0  0  0  0  0  0
   12.3192   21.7280   -0.1115 N   0  0  0  0  0  0  0  0  0  0  0  0
   11.0578   22.0544   -0.6650 C   0  0  0  0  0  0  0  0  0  0  0  0
   11.0055   23.0069   -1.5071 O   0  0  0  0  0  0  0  0  0  0  0  0
   12.3957   20.9577    0.5763 H   0  0  0  0  0  0  0  0  0  0  0  0
    9.8149   21.3780   -0.3399 C   0  0  0  0  0  0  0  0  0  0  0  0
    9.1371   21.7490    0.8188 C   0  0  0  0  0  0  0  0  0  0  0  0
    7.9711   21.1124    1.1216 C   0  0  0  0  0  0  0  0  0  0  0  0
    7.4663   20.1209    0.3037 C   0  0  0  0  0  0  0  0  0  0  0  0
    8.1414   19.7573   -0.8426 C   0  0  0  0  0  0  0  0  0  0  0  0
    9.3172   20.3948   -1.1540 C   0  0  0  0  0  0  0  0  0  0  0  0
    6.2408   19.4639    0.6377 C   0  0  0  0  0  0  0  0  0  0  0  0
    5.2484   18.9106    0.9146 N   0  0  0  0  0  0  0  0  0  0  0  0
   15.3000   26.0311   -1.2426 N   0  0  0  0  0  0  0  0  0  0  0  0
   14.3866   26.3155   -1.6606 H   0  0  0  0  0  0  0  0  0  0  0  0
   16.5969   26.5364   -2.2460 S   0  0  0  0  0  0  0  0  0  0  0  0
   16.8212   28.0079   -2.0419 O   0  0  0  0  0  0  0  0  0  0  0  0
   17.8682   25.8382   -1.9541 O   0  0  0  0  0  0  0  0  0  0  0  0
   15.6949   26.0386   -6.7098 C   0  0  0  0  0  0  0  0  0  0  0  0
   15.6420   24.9582   -5.8556 C   0  0  0  0  0  0  0  0  0  0  0  0
   15.9140   25.0917   -4.4951 C   0  0  0  0  0  0  0  0  0  0  0  0
   16.2469   26.3151   -3.9542 C   0  0  0  0  0  0  0  0  0  0  0  0
   16.2969   27.3948   -4.8242 C   0  0  0  0  0  0  0  0  0  0  0  0
   16.0278   27.2629   -6.1701 C   0  0  0  0  0  0  0  0  0  0  0  0
   14.1828   25.4509   -8.5548 C   0  0  0  0  0  0  0  0  0  0  0  0
   15.4256   25.9252   -8.0766 O   0  0  0  0  0  0  0  0  0  0  0  0
 30 31  1  0  0  0
 31 24  1  0  0  0
 24 25  2  0  0  0
 25 26  1  0  0  0
 26 27  2  0  0  0
 27 28  1  0  0  0
 28 29  2  0  0  0
 27 21  1  0  0  0
 21 22  2  0  0  0
 21 23  2  0  0  0
 21 19  1  0  0  0
 19  1  1  0  0  0
  1  2  1  0  0  0
  2  3  1  0  0  0
  3  4  1  0  0  0
  4  5  1  0  0  0
  5  6  1  0  0  0
  4  7  1  0  0  0
  7  8  1  0  0  0
  8  9  2  0  0  0
  8 11  1  0  0  0
 11 12  2  0  0  0
 12 13  1  0  0  0
 13 14  2  0  0  0
 14 15  1  0  0  0
 15 16  2  0  0  0
 14 17  1  0  0  0
 17 18  3  0  0  0
 29 24  1  0  0  0
  6  1  1  0  0  0
 16 11  1  0  0  0
 19 20  1  0  0  0
  7 10  1  0  0  0
M  END
> <minimizedAffinity>
-1.91582

> <CNNscore>
0.4061082006

> <CNNaffinity>
6.4511537552

> <CNN_VS>
2.6198663712

> <CNNaffinity_variance>
0.2508493066

$$$$
[H]c1c([H])c(C(=O)N([H])[C@]2([H])C([H])([H])C([H])([H])[C@]([H])(N([H])S(=O)(=O)c3c([H])c([H])c(OC([H])([H])[H])c([H])c3[H])C([H])([H])C2([H])[H])c([H])c([H])c1C#N


 31 33  0  0  0  0  0  0  0  0999 V2000
   15.1363   24.8408   -4.8872 C   0  0  0  0  0  0  0  0  0  0  0  0
   13.9296   25.3702   -4.1625 C   0  0  0  0  0  0  0  0  0  0  0  0
   13.9710   24.9307   -2.6925 C   0  0  0  0  0  0  0  0  0  0  0  0
   13.7775   23.4246   -2.7583 C   0  0  0  0  0  0  0  0  0  0  0  0
   14.9968   22.8314   -3.3623 C   0  0  0  0  0  0  0  0  0  0  0  0
   15.8083   23.6948   -4.2301 C   0  0  0  0  0  0  0  0  0  0  0  0
   13.5096   22.8553   -1.4745 N   0  0  0  0  0  0  0  0  0  0  0  0
   12.2353   22.3358   -1.1429 C   0  0  0  0  0  0  0  0  0  0  0  0
   11.3221   22.3884   -2.0275 O   0  0  0  0  0  0  0  0  0  0  0  0
   14.2743   22.8272   -0.7770 H   0  0  0  0  0  0  0  0  0  0  0  0
   11.8939   21.7448    0.1386 C   0  0  0  0  0  0  0  0  0  0  0  0
   11.3301   20.4714    0.1567 C   0  0  0  0  0  0  0  0  0  0  0  0
   11.0103   19.9193    1.3606 C   0  0  0  0  0  0  0  0  0  0  0  0
   11.2368   20.6002    2.5404 C   0  0  0  0  0  0  0  0  0  0  0  0
   11.7954   21.8609    2.5170 C   0  0  0  0  0  0  0  0  0  0  0  0
   12.1202   22.4235    1.3071 C   0  0  0  0  0  0  0  0  0  0  0  0
   10.8948   20.0046    3.7947 C   0  0  0  0  0  0  0  0  0  0  0  0
   10.6194   19.5340    4.8293 N   0  0  0  0  0  0  0  0  0  0  0  0
   16.0638   25.9475   -5.0235 N   0  0  0  0  0  0  0  0  0  0  0  0
   17.0148   25.6480   -5.3333 H   0  0  0  0  0  0  0  0  0  0  0  0
   16.1747   26.9077   -3.6059 S   0  0  0  0  0  0  0  0  0  0  0  0
   17.3937   27.7801   -3.7068 O   0  0  0  0  0  0  0  0  0  0  0  0
   15.0024   27.7871   -3.4022 O   0  0  0  0  0  0  0  0  0  0  0  0
   16.7552   24.3450    0.1468 C   0  0  0  0  0  0  0  0  0  0  0  0
   15.6701   25.1868    0.0294 C   0  0  0  0  0  0  0  0  0  0  0  0
   15.4785   25.9738   -1.1049 C   0  0  0  0  0  0  0  0  0  0  0  0
   16.3720   25.9371   -2.1538 C   0  0  0  0  0  0  0  0  0  0  0  0
   17.4601   25.0860   -2.0238 C   0  0  0  0  0  0  0  0  0  0  0  0
   17.6498   24.3074   -0.9017 C   0  0  0  0  0  0  0  0  0  0  0  0
   16.3730   22.2713    1.4075 C   0  0  0  0  0  0  0  0  0  0  0  0
   16.9649   23.5482    1.2758 O   0  0  0  0  0  0  0  0  0  0  0  0
 30 31  1  0  0  0
 31 24  1  0  0  0
 24 25  2  0  0  0
 25 26  1  0  0  0
 26 27  2  0  0  0
 27 28  1  0  0  0
 28 29  2  0  0  0
 27 21  1  0  0  0
 21 22  2  0  0  0
 21 23  2  0  0  0
 21 19  1  0  0  0
 19  1  1  0  0  0
  1  2  1  0  0  0
  2  3  1  0  0  0
  3  4  1  0  0  0
  4  5  1  0  0  0
  5  6  1  0  0  0
  4  7  1  0  0  0
  7  8  1  0  0  0
  8  9  2  0  0  0
  8 11  1  0  0  0
 11 12  2  0  0  0
 12 13  1  0  0  0
 13 14  2  0  0  0
 14 15  1  0  0  0
 15 16  2  0  0  0
 14 17  1  0  0  0
 17 18  3  0  0  0
 29 24  1  0  0  0
  6  1  1  0  0  0
 16 11  1  0  0  0
 19 20  1  0  0  0
  7 10  1  0  0  0
M  END
> <minimizedAffinity>
-1.50494

> <CNNscore>
0.4053417742

> <CNNaffinity>
6.9008827209

> <CNN_VS>
2.7972159386

> <CNNaffinity_variance>
0.1412809491

$$$$
[H]c1c([H])c(C(=O)N([H])[C@]2([H])C([H])([H])C([H])([H])[C@]([H])(N([H])S(=O)(=O)c3c([H])c([H])c(OC([H])([H])[H])c([H])c3[H])C([H])([H])C2([H])[H])c([H])c([H])c1C#N


 31 33  0  0  0  0  0  0  0  0999 V2000
   13.7489   24.3067   -1.3826 C   0  0  0  0  0  0  0  0  0  0  0  0
   12.4180   25.0065   -1.4051 C   0  0  0  0  0  0  0  0  0  0  0  0
   11.5210   24.4548   -0.2884 C   0  0  0  0  0  0  0  0  0  0  0  0
   11.2369   23.0264   -0.7233 C   0  0  0  0  0  0  0  0  0  0  0  0
   12.4984   22.2526   -0.6088 C   0  0  0  0  0  0  0  0  0  0  0  0
   13.7590   23.0030   -0.6776 C   0  0  0  0  0  0  0  0  0  0  0  0
   10.1915   22.4236    0.0433 N   0  0  0  0  0  0  0  0  0  0  0  0
   10.1140   22.5809    1.4480 C   0  0  0  0  0  0  0  0  0  0  0  0
   11.0096   23.2816    2.0190 O   0  0  0  0  0  0  0  0  0  0  0  0
    9.4779   21.8597   -0.4516 H   0  0  0  0  0  0  0  0  0  0  0  0
    9.0823   21.9982    2.2871 C   0  0  0  0  0  0  0  0  0  0  0  0
    7.7561   22.0860    1.8713 C   0  0  0  0  0  0  0  0  0  0  0  0
    6.7899   21.5386    2.6610 C   0  0  0  0  0  0  0  0  0  0  0  0
    7.1101   20.9096    3.8478 C   0  0  0  0  0  0  0  0  0  0  0  0
    8.4250   20.8253    4.2549 C   0  0  0  0  0  0  0  0  0  0  0  0
    9.4040   21.3747    3.4640 C   0  0  0  0  0  0  0  0  0  0  0  0
    6.0824   20.3408    4.6634 C   0  0  0  0  0  0  0  0  0  0  0  0
    5.2521   19.8594    5.3317 N   0  0  0  0  0  0  0  0  0  0  0  0
   14.6910   25.2154   -0.7576 N   0  0  0  0  0  0  0  0  0  0  0  0
   14.2757   26.1479   -0.5389 H   0  0  0  0  0  0  0  0  0  0  0  0
   16.1383   25.4054   -1.6595 S   0  0  0  0  0  0  0  0  0  0  0  0
   16.8932   26.5867   -1.1194 O   0  0  0  0  0  0  0  0  0  0  0  0
   17.0295   24.2263   -1.5899 O   0  0  0  0  0  0  0  0  0  0  0  0
   15.3291   26.2014   -6.0978 C   0  0  0  0  0  0  0  0  0  0  0  0
   15.5701   27.2430   -5.2277 C   0  0  0  0  0  0  0  0  0  0  0  0
   15.8175   27.0187   -3.8745 C   0  0  0  0  0  0  0  0  0  0  0  0
   15.8299   25.7412   -3.3570 C   0  0  0  0  0  0  0  0  0  0  0  0
   15.5859   24.7014   -4.2427 C   0  0  0  0  0  0  0  0  0  0  0  0
   15.3411   24.9230   -5.5815 C   0  0  0  0  0  0  0  0  0  0  0  0
   15.6507   25.5806   -8.4530 C   0  0  0  0  0  0  0  0  0  0  0  0
   15.0791   26.4057   -7.4577 O   0  0  0  0  0  0  0  0  0  0  0  0
 30 31  1  0  0  0
 31 24  1  0  0  0
 24 25  2  0  0  0
 25 26  1  0  0  0
 26 27  2  0  0  0
 27 28  1  0  0  0
 28 29  2  0  0  0
 27 21  1  0  0  0
 21 22  2  0  0  0
 21 23  2  0  0  0
 21 19  1  0  0  0
 19  1  1  0  0  0
  1  2  1  0  0  0
  2  3  1  0  0  0
  3  4  1  0  0  0
  4  5  1  0  0  0
  5  6  1  0  0  0
  4  7  1  0  0  0
  7  8  1  0  0  0
  8  9  2  0  0  0
  8 11  1  0  0  0
 11 12  2  0  0  0
 12 13  1  0  0  0
 13 14  2  0  0  0
 14 15  1  0  0  0
 15 16  2  0  0  0
 14 17  1  0  0  0
 17 18  3  0  0  0
 29 24  1  0  0  0
  6  1  1  0  0  0
 16 11  1  0  0  0
 19 20  1  0  0  0
  7 10  1  0  0  0
M  END
> <minimizedAffinity>
-4.79568

> <CNNscore>
0.4046950042

> <CNNaffinity>
6.7771239281

> <CNN_VS>
2.7426681519

> <CNNaffinity_variance>
0.3052268624

$$$$
[H]c1c([H])c(C(=O)N([H])[C@]2([H])C([H])([H])C([H])([H])[C@]([H])(N([H])S(=O)(=O)c3c([H])c([H])c(OC([H])([H])[H])c([H])c3[H])C([H])([H])C2([H])[H])c([H])c([H])c1C#N


 31 33  0  0  0  0  0  0  0  0999 V2000
   15.0909   23.6406   -0.9184 C   0  0  0  0  0  0  0  0  0  0  0  0
   13.7667   23.5449   -1.6246 C   0  0  0  0  0  0  0  0  0  0  0  0
   12.7502   24.4788   -0.9536 C   0  0  0  0  0  0  0  0  0  0  0  0
   12.5285   23.8521    0.4133 C   0  0  0  0  0  0  0  0  0  0  0  0
   13.7737   24.0220    1.2033 C   0  0  0  0  0  0  0  0  0  0  0  0
   15.0283   24.1869    0.4580 C   0  0  0  0  0  0  0  0  0  0  0  0
   11.4056   24.4176    1.0938 N   0  0  0  0  0  0  0  0  0  0  0  0
   10.6153   23.6541    1.9863 C   0  0  0  0  0  0  0  0  0  0  0  0
   10.9336   22.4359    2.1703 O   0  0  0  0  0  0  0  0  0  0  0  0
   11.1733   25.4120    0.9225 H   0  0  0  0  0  0  0  0  0  0  0  0
    9.4637   24.1628    2.7094 C   0  0  0  0  0  0  0  0  0  0  0  0
    9.5249   25.4485    3.2412 C   0  0  0  0  0  0  0  0  0  0  0  0
    8.4428   25.9232    3.9198 C   0  0  0  0  0  0  0  0  0  0  0  0
    7.3077   25.1535    4.0809 C   0  0  0  0  0  0  0  0  0  0  0  0
    7.2523   23.8809    3.5522 C   0  0  0  0  0  0  0  0  0  0  0  0
    8.3393   23.3960    2.8671 C   0  0  0  0  0  0  0  0  0  0  0  0
    6.1817   25.6687    4.7961 C   0  0  0  0  0  0  0  0  0  0  0  0
    5.2493   26.0846    5.3665 N   0  0  0  0  0  0  0  0  0  0  0  0
   15.9478   24.4713   -1.7428 N   0  0  0  0  0  0  0  0  0  0  0  0
   15.8922   25.4848   -1.4985 H   0  0  0  0  0  0  0  0  0  0  0  0
   15.6815   24.2488   -3.4232 S   0  0  0  0  0  0  0  0  0  0  0  0
   16.7369   23.3251   -3.9620 O   0  0  0  0  0  0  0  0  0  0  0  0
   14.3604   23.6588   -3.7326 O   0  0  0  0  0  0  0  0  0  0  0  0
   16.0000   28.1279   -5.8394 C   0  0  0  0  0  0  0  0  0  0  0  0
   16.6173   28.0093   -4.6127 C   0  0  0  0  0  0  0  0  0  0  0  0
   16.5301   26.8367   -3.8642 C   0  0  0  0  0  0  0  0  0  0  0  0
   15.8202   25.7498   -4.3273 C   0  0  0  0  0  0  0  0  0  0  0  0
   15.2035   25.8814   -5.5632 C   0  0  0  0  0  0  0  0  0  0  0  0
   15.2896   27.0414   -6.3039 C   0  0  0  0  0  0  0  0  0  0  0  0
   15.4409   30.4924   -6.2033 C   0  0  0  0  0  0  0  0  0  0  0  0
   16.0756   29.2949   -6.6049 O   0  0  0  0  0  0  0  0  0  0  0  0
 30 31  1  0  0  0
 31 24  1  0  0  0
 24 25  2  0  0  0
 25 26  1  0  0  0
 26 27  2  0  0  0
 27 28  1  0  0  0
 28 29  2  0  0  0
 27 21  1  0  0  0
 21 22  2  0  0  0
 21 23  2  0  0  0
 21 19  1  0  0  0
 19  1  1  0  0  0
  1  2  1  0  0  0
  2  3  1  0  0  0
  3  4  1  0  0  0
  4  5  1  0  0  0
  5  6  1  0  0  0
  4  7  1  0  0  0
  7  8  1  0  0  0
  8  9  2  0  0  0
  8 11  1  0  0  0
 11 12  2  0  0  0
 12 13  1  0  0  0
 13 14  2  0  0  0
 14 15  1  0  0  0
 15 16  2  0  0  0
 14 17  1  0  0  0
 17 18  3  0  0  0
 29 24  1  0  0  0
  6  1  1  0  0  0
 16 11  1  0  0  0
 19 20  1  0  0  0
  7 10  1  0  0  0
M  END
> <minimizedAffinity>
-2.22987

> <CNNscore>
0.3652321994

> <CNNaffinity>
6.1858763695

> <CNN_VS>
2.2592811584

> <CNNaffinity_variance>
0.1567330062

$$$$
[H]OC(=O)c1c([H])c([H])c([C@]([H])(N([H])C(=O)c2c([H])c([H])c([H])c(C(F)(F)F)c2[H])C([H])([H])[H])c([H])c1[H]


 26 27  0  0  0  0  0  0  0  0999 V2000
   12.7767   23.6675   -0.3363 N   0  0  0  0  0  0  0  0  0  0  0  0
   12.1159   23.1315    0.7523 C   0  0  0  0  0  0  0  0  0  0  0  0
   12.6117   22.2471    1.5265 O   0  0  0  0  0  0  0  0  0  0  0  0
   12.0441   24.4114   -0.8560 H   0  0  0  0  0  0  0  0  0  0  0  0
   10.7487   23.5327    1.1699 C   0  0  0  0  0  0  0  0  0  0  0  0
    9.6792   23.0806    0.3852 C   0  0  0  0  0  0  0  0  0  0  0  0
    8.3833   23.4380    0.6579 C   0  0  0  0  0  0  0  0  0  0  0  0
    8.1232   24.2678    1.7425 C   0  0  0  0  0  0  0  0  0  0  0  0
    9.1552   24.7246    2.5244 C   0  0  0  0  0  0  0  0  0  0  0  0
   10.4898   24.3486    2.2331 C   0  0  0  0  0  0  0  0  0  0  0  0
    8.8011   25.6054    3.6624 C   0  0  0  0  0  0  0  0  0  0  0  0
    9.1240   24.9267    4.8784 F   0  0  0  0  0  0  0  0  0  0  0  0
    9.4320   26.8063    3.6768 F   0  0  0  0  0  0  0  0  0  0  0  0
    7.4086   25.8085    3.7694 F   0  0  0  0  0  0  0  0  0  0  0  0
   15.1298   24.1105   -0.0667 C   0  0  0  0  0  0  0  0  0  0  0  0
   13.9806   23.6255   -0.9928 C   0  0  0  0  0  0  0  0  0  0  0  0
   14.2384   24.1725   -2.3251 C   0  0  0  0  0  0  0  0  0  0  0  0
   15.1619   23.8130   -3.2474 C   0  0  0  0  0  0  0  0  0  0  0  0
   15.4542   24.5259   -4.4129 C   0  0  0  0  0  0  0  0  0  0  0  0
   14.7456   25.6802   -4.6430 C   0  0  0  0  0  0  0  0  0  0  0  0
   13.7752   26.1044   -3.7338 C   0  0  0  0  0  0  0  0  0  0  0  0
   13.5238   25.3809   -2.6122 C   0  0  0  0  0  0  0  0  0  0  0  0
   15.0370   26.5338   -5.7709 C   0  0  0  0  0  0  0  0  0  0  0  0
   15.2251   26.0819   -7.0703 O   0  0  0  0  0  0  0  0  0  0  0  0
   15.1296   27.8038   -5.6035 O   0  0  0  0  0  0  0  0  0  0  0  0
   14.9994   26.7805   -7.8549 H   0  0  0  0  0  0  0  0  0  0  0  0
 15 16  1  0  0  0
 16  1  1  0  0  0
  1  2  1  0  0  0
  2  3  2  0  0  0
  2  5  1  0  0  0
  5  6  2  0  0  0
  6  7  1  0  0  0
  7  8  2  0  0  0
  8  9  1  0  0  0
  9 10  2  0  0  0
  9 11  1  0  0  0
 11 12  1  0  0  0
 11 13  1  0  0  0
 11 14  1  0  0  0
 16 17  1  0  0  0
 17 18  2  0  0  0
 18 19  1  0  0  0
 19 20  2  0  0  0
 20 21  1  0  0  0
 21 22  2  0  0  0
 20 23  1  0  0  0
 23 24  1  0  0  0
 23 25  2  0  0  0
 10  5  1  0  0  0
 22 17  1  0  0  0
  1  4  1  0  0  0
 24 26  1  0  0  0
M  END
> <minimizedAffinity>
-9.24393

> <CNNscore>
0.6401814222

> <CNNaffinity>
6.0624904633

> <CNN_VS>
3.8810937405

> <CNNaffinity_variance>
0.1785058826

$$$$
[H]OC(=O)c1c([H])c([H])c([C@]([H])(N([H])C(=O)c2c([H])c([H])c([H])c(C(F)(F)F)c2[H])C([H])([H])[H])c([H])c1[H]


 26 27  0  0  0  0  0  0  0  0999 V2000
   14.0351   23.6210   -0.1919 N   0  0  0  0  0  0  0  0  0  0  0  0
   13.0243   22.7029   -0.4019 C   0  0  0  0  0  0  0  0  0  0  0  0
   13.0033   21.8694   -1.3675 O   0  0  0  0  0  0  0  0  0  0  0  0
   13.7392   24.2568    0.7400 H   0  0  0  0  0  0  0  0  0  0  0  0
   11.8412   22.5579    0.4835 C   0  0  0  0  0  0  0  0  0  0  0  0
   11.3506   21.2619    0.6923 C   0  0  0  0  0  0  0  0  0  0  0  0
   10.2327   21.0279    1.4520 C   0  0  0  0  0  0  0  0  0  0  0  0
    9.5707   22.1035    2.0326 C   0  0  0  0  0  0  0  0  0  0  0  0
   10.0320   23.3824    1.8404 C   0  0  0  0  0  0  0  0  0  0  0  0
   11.1878   23.6119    1.0538 C   0  0  0  0  0  0  0  0  0  0  0  0
    9.2743   24.4779    2.4900 C   0  0  0  0  0  0  0  0  0  0  0  0
   10.1304   25.6173    2.6011 F   0  0  0  0  0  0  0  0  0  0  0  0
    8.1504   24.8650    1.8359 F   0  0  0  0  0  0  0  0  0  0  0  0
    8.9551   24.1853    3.8333 F   0  0  0  0  0  0  0  0  0  0  0  0
   16.1079   24.6913    0.4114 C   0  0  0  0  0  0  0  0  0  0  0  0
   15.2465   24.0229   -0.6952 C   0  0  0  0  0  0  0  0  0  0  0  0
   15.4393   24.7979   -1.9211 C   0  0  0  0  0  0  0  0  0  0  0  0
   16.4760   25.5829   -2.2979 C   0  0  0  0  0  0  0  0  0  0  0  0
   16.4781   26.4355   -3.4047 C   0  0  0  0  0  0  0  0  0  0  0  0
   15.3402   26.4773   -4.1734 C   0  0  0  0  0  0  0  0  0  0  0  0
   14.2370   25.6888   -3.8425 C   0  0  0  0  0  0  0  0  0  0  0  0
   14.2776   24.8743   -2.7565 C   0  0  0  0  0  0  0  0  0  0  0  0
   15.2108   27.3926   -5.2830 C   0  0  0  0  0  0  0  0  0  0  0  0
   15.8814   28.6043   -5.3843 O   0  0  0  0  0  0  0  0  0  0  0  0
   14.4383   27.0992   -6.2660 O   0  0  0  0  0  0  0  0  0  0  0  0
   16.0577   28.9694   -6.3794 H   0  0  0  0  0  0  0  0  0  0  0  0
 15 16  1  0  0  0
 16  1  1  0  0  0
  1  2  1  0  0  0
  2  3  2  0  0  0
  2  5  1  0  0  0
  5  6  2  0  0  0
  6  7  1  0  0  0
  7  8  2  0  0  0
  8  9  1  0  0  0
  9 10  2  0  0  0
  9 11  1  0  0  0
 11 12  1  0  0  0
 11 13  1  0  0  0
 11 14  1  0  0  0
 16 17  1  0  0  0
 17 18  2  0  0  0
 18 19  1  0  0  0
 19 20  2  0  0  0
 20 21  1  0  0  0
 21 22  2  0  0  0
 20 23  1  0  0  0
 23 24  1  0  0  0
 23 25  2  0  0  0
 10  5  1  0  0  0
 22 17  1  0  0  0
  1  4  1  0  0  0
 24 26  1  0  0  0
M  END
> <minimizedAffinity>
-8.61214

> <CNNscore>
0.4941541255

> <CNNaffinity>
6.0390377045

> <CNN_VS>
2.9842154980

> <CNNaffinity_variance>
0.2474795133

$$$$
[H]OC(=O)c1c([H])c([H])c([C@]([H])(N([H])C(=O)c2c([H])c([H])c([H])c(C(F)(F)F)c2[H])C([H])([H])[H])c([H])c1[H]


 26 27  0  0  0  0  0  0  0  0999 V2000
   14.3937   23.8677   -1.8265 N   0  0  0  0  0  0  0  0  0  0  0  0
   15.4343   24.7720   -1.7348 C   0  0  0  0  0  0  0  0  0  0  0  0
   16.1714   24.9130   -0.7032 O   0  0  0  0  0  0  0  0  0  0  0  0
   13.8968   24.0143   -2.8714 H   0  0  0  0  0  0  0  0  0  0  0  0
   15.8383   25.6827   -2.8357 C   0  0  0  0  0  0  0  0  0  0  0  0
   16.7385   26.7098   -2.5214 C   0  0  0  0  0  0  0  0  0  0  0  0
   17.1336   27.6331   -3.4556 C   0  0  0  0  0  0  0  0  0  0  0  0
   16.6307   27.5465   -4.7487 C   0  0  0  0  0  0  0  0  0  0  0  0
   15.7461   26.5498   -5.0793 C   0  0  0  0  0  0  0  0  0  0  0  0
   15.3453   25.6016   -4.1059 C   0  0  0  0  0  0  0  0  0  0  0  0
   15.2526   26.5215   -6.4764 C   0  0  0  0  0  0  0  0  0  0  0  0
   15.3509   25.1815   -6.9647 F   0  0  0  0  0  0  0  0  0  0  0  0
   13.9694   26.9302   -6.6403 F   0  0  0  0  0  0  0  0  0  0  0  0
   16.0883   27.2442   -7.3545 F   0  0  0  0  0  0  0  0  0  0  0  0
   14.1870   21.4736   -1.6493 C   0  0  0  0  0  0  0  0  0  0  0  0
   13.7665   22.8725   -1.1205 C   0  0  0  0  0  0  0  0  0  0  0  0
   12.3336   22.8131   -0.8312 C   0  0  0  0  0  0  0  0  0  0  0  0
   11.4987   23.7775   -0.3779 C   0  0  0  0  0  0  0  0  0  0  0  0
   10.1857   23.5679    0.0514 C   0  0  0  0  0  0  0  0  0  0  0  0
    9.7028   22.2825    0.0059 C   0  0  0  0  0  0  0  0  0  0  0  0
   10.5107   21.2422   -0.4560 C   0  0  0  0  0  0  0  0  0  0  0  0
   11.7824   21.4907   -0.8630 C   0  0  0  0  0  0  0  0  0  0  0  0
    8.3920   21.9492    0.5122 C   0  0  0  0  0  0  0  0  0  0  0  0
    7.2169   22.5806    0.1266 O   0  0  0  0  0  0  0  0  0  0  0  0
    8.2611   21.0059    1.3738 O   0  0  0  0  0  0  0  0  0  0  0  0
    6.3159   22.0008    0.2079 H   0  0  0  0  0  0  0  0  0  0  0  0
 15 16  1  0  0  0
 16  1  1  0  0  0
  1  2  1  0  0  0
  2  3  2  0  0  0
  2  5  1  0  0  0
  5  6  2  0  0  0
  6  7  1  0  0  0
  7  8  2  0  0  0
  8  9  1  0  0  0
  9 10  2  0  0  0
  9 11  1  0  0  0
 11 12  1  0  0  0
 11 13  1  0  0  0
 11 14  1  0  0  0
 16 17  1  0  0  0
 17 18  2  0  0  0
 18 19  1  0  0  0
 19 20  2  0  0  0
 20 21  1  0  0  0
 21 22  2  0  0  0
 20 23  1  0  0  0
 23 24  1  0  0  0
 23 25  2  0  0  0
 10  5  1  0  0  0
 22 17  1  0  0  0
  1  4  1  0  0  0
 24 26  1  0  0  0
M  END
> <minimizedAffinity>
-9.52186

> <CNNscore>
0.4429643154

> <CNNaffinity>
6.1261110306

> <CNN_VS>
2.7136485577

> <CNNaffinity_variance>
0.0924279764

$$$$
[H]OC(=O)c1c([H])c([H])c([C@]([H])(N([H])C(=O)c2c([H])c([H])c([H])c(C(F)(F)F)c2[H])C([H])([H])[H])c([H])c1[H]


 26 27  0  0  0  0  0  0  0  0999 V2000
   10.9425   22.6855   -0.5626 N   0  0  0  0  0  0  0  0  0  0  0  0
   11.7030   23.3211    0.3999 C   0  0  0  0  0  0  0  0  0  0  0  0
   11.4183   23.3353    1.6433 O   0  0  0  0  0  0  0  0  0  0  0  0
   11.4440   22.8928   -1.5949 H   0  0  0  0  0  0  0  0  0  0  0  0
   12.9613   24.0539    0.1093 C   0  0  0  0  0  0  0  0  0  0  0  0
   13.9548   24.0406    1.0975 C   0  0  0  0  0  0  0  0  0  0  0  0
   15.1316   24.7288    0.9461 C   0  0  0  0  0  0  0  0  0  0  0  0
   15.3461   25.4561   -0.2190 C   0  0  0  0  0  0  0  0  0  0  0  0
   14.3863   25.4852   -1.2003 C   0  0  0  0  0  0  0  0  0  0  0  0
   13.1747   24.7703   -1.0328 C   0  0  0  0  0  0  0  0  0  0  0  0
   14.6854   26.2820   -2.4136 C   0  0  0  0  0  0  0  0  0  0  0  0
   15.2839   27.5157   -2.0094 F   0  0  0  0  0  0  0  0  0  0  0  0
   15.5213   25.6857   -3.3003 F   0  0  0  0  0  0  0  0  0  0  0  0
   13.5148   26.6984   -3.0830 F   0  0  0  0  0  0  0  0  0  0  0  0
    9.8048   20.7680    0.3509 C   0  0  0  0  0  0  0  0  0  0  0  0
    9.8245   21.9038   -0.7087 C   0  0  0  0  0  0  0  0  0  0  0  0
    9.3516   21.3289   -1.9683 C   0  0  0  0  0  0  0  0  0  0  0  0
    8.6082   20.2197   -2.1914 C   0  0  0  0  0  0  0  0  0  0  0  0
    8.3730   19.6479   -3.4443 C   0  0  0  0  0  0  0  0  0  0  0  0
    8.9372   20.2621   -4.5360 C   0  0  0  0  0  0  0  0  0  0  0  0
    9.7111   21.4126   -4.3756 C   0  0  0  0  0  0  0  0  0  0  0  0
    9.9151   21.9345   -3.1384 C   0  0  0  0  0  0  0  0  0  0  0  0
    8.8285   19.6976   -5.8609 C   0  0  0  0  0  0  0  0  0  0  0  0
    8.6242   20.4396   -7.0167 O   0  0  0  0  0  0  0  0  0  0  0  0
    8.9293   18.4278   -6.0242 O   0  0  0  0  0  0  0  0  0  0  0  0
    8.9877   20.0073   -7.9307 H   0  0  0  0  0  0  0  0  0  0  0  0
 15 16  1  0  0  0
 16  1  1  0  0  0
  1  2  1  0  0  0
  2  3  2  0  0  0
  2  5  1  0  0  0
  5  6  2  0  0  0
  6  7  1  0  0  0
  7  8  2  0  0  0
  8  9  1  0  0  0
  9 10  2  0  0  0
  9 11  1  0  0  0
 11 12  1  0  0  0
 11 13  1  0  0  0
 11 14  1  0  0  0
 16 17  1  0  0  0
 17 18  2  0  0  0
 18 19  1  0  0  0
 19 20  2  0  0  0
 20 21  1  0  0  0
 21 22  2  0  0  0
 20 23  1  0  0  0
 23 24  1  0  0  0
 23 25  2  0  0  0
 10  5  1  0  0  0
 22 17  1  0  0  0
  1  4  1  0  0  0
 24 26  1  0  0  0
M  END
> <minimizedAffinity>
22.30747

> <CNNscore>
0.4387417436

> <CNNaffinity>
5.2789001465

> <CNN_VS>
2.3160738945

> <CNNaffinity_variance>
0.8813725710

$$$$
[H]OC(=O)c1c([H])c([H])c([C@]([H])(N([H])C(=O)c2c([H])c([H])c([H])c(C(F)(F)F)c2[H])C([H])([H])[H])c([H])c1[H]


 26 27  0  0  0  0  0  0  0  0999 V2000
   12.8421   23.0082   -2.1780 N   0  0  0  0  0  0  0  0  0  0  0  0
   12.2567   23.9047   -1.3048 C   0  0  0  0  0  0  0  0  0  0  0  0
   12.3097   25.1724   -1.4380 O   0  0  0  0  0  0  0  0  0  0  0  0
   12.6493   21.9374   -1.7579 H   0  0  0  0  0  0  0  0  0  0  0  0
   11.4742   23.5035   -0.1084 C   0  0  0  0  0  0  0  0  0  0  0  0
   10.5770   24.4433    0.4166 C   0  0  0  0  0  0  0  0  0  0  0  0
    9.8456   24.1878    1.5485 C   0  0  0  0  0  0  0  0  0  0  0  0
    9.9957   22.9638    2.1903 C   0  0  0  0  0  0  0  0  0  0  0  0
   10.8702   22.0282    1.6952 C   0  0  0  0  0  0  0  0  0  0  0  0
   11.6202   22.3034    0.5252 C   0  0  0  0  0  0  0  0  0  0  0  0
   10.9771   20.7473    2.4329 C   0  0  0  0  0  0  0  0  0  0  0  0
   12.0024   20.8773    3.4205 F   0  0  0  0  0  0  0  0  0  0  0  0
    9.8424   20.3507    3.0619 F   0  0  0  0  0  0  0  0  0  0  0  0
   11.4498   19.6972    1.6170 F   0  0  0  0  0  0  0  0  0  0  0  0
   14.0445   21.5079   -3.6303 C   0  0  0  0  0  0  0  0  0  0  0  0
   13.5519   22.9545   -3.3508 C   0  0  0  0  0  0  0  0  0  0  0  0
   14.6368   23.8614   -3.7266 C   0  0  0  0  0  0  0  0  0  0  0  0
   15.9667   23.6294   -3.8272 C   0  0  0  0  0  0  0  0  0  0  0  0
   16.9433   24.6125   -4.0054 C   0  0  0  0  0  0  0  0  0  0  0  0
   16.5200   25.9168   -4.0893 C   0  0  0  0  0  0  0  0  0  0  0  0
   15.1615   26.2241   -3.9983 C   0  0  0  0  0  0  0  0  0  0  0  0
   14.2456   25.2365   -3.8239 C   0  0  0  0  0  0  0  0  0  0  0  0
   17.4578   27.0113   -4.1820 C   0  0  0  0  0  0  0  0  0  0  0  0
   18.8291   26.8597   -4.3389 O   0  0  0  0  0  0  0  0  0  0  0  0
   17.0334   28.2221   -4.1268 O   0  0  0  0  0  0  0  0  0  0  0  0
   19.3458   27.6697   -4.8202 H   0  0  0  0  0  0  0  0  0  0  0  0
 15 16  1  0  0  0
 16  1  1  0  0  0
  1  2  1  0  0  0
  2  3  2  0  0  0
  2  5  1  0  0  0
  5  6  2  0  0  0
  6  7  1  0  0  0
  7  8  2  0  0  0
  8  9  1  0  0  0
  9 10  2  0  0  0
  9 11  1  0  0  0
 11 12  1  0  0  0
 11 13  1  0  0  0
 11 14  1  0  0  0
 16 17  1  0  0  0
 17 18  2  0  0  0
 18 19  1  0  0  0
 19 20  2  0  0  0
 20 21  1  0  0  0
 21 22  2  0  0  0
 20 23  1  0  0  0
 23 24  1  0  0  0
 23 25  2  0  0  0
 10  5  1  0  0  0
 22 17  1  0  0  0
  1  4  1  0  0  0
 24 26  1  0  0  0
M  END
> <minimizedAffinity>
4.63492

> <CNNscore>
0.4149869084

> <CNNaffinity>
5.7160692215

> <CNN_VS>
2.3720939159

> <CNNaffinity_variance>
1.0481828451

$$$$
[H]OC(=O)c1c([H])c([H])c([C@]([H])(N([H])C(=O)c2c([H])c([H])c([H])c(C(F)(F)F)c2[H])C([H])([H])[H])c([H])c1[H]


 26 27  0  0  0  0  0  0  0  0999 V2000
   13.5972   23.4326   -0.7549 N   0  0  0  0  0  0  0  0  0  0  0  0
   12.8079   22.3628   -1.1310 C   0  0  0  0  0  0  0  0  0  0  0  0
   13.1806   21.4464   -1.9364 O   0  0  0  0  0  0  0  0  0  0  0  0
   12.9574   24.1056   -0.0493 H   0  0  0  0  0  0  0  0  0  0  0  0
   11.4294   22.1348   -0.6287 C   0  0  0  0  0  0  0  0  0  0  0  0
   11.0517   22.8110    0.5392 C   0  0  0  0  0  0  0  0  0  0  0  0
    9.8184   22.6285    1.1111 C   0  0  0  0  0  0  0  0  0  0  0  0
    8.9182   21.7525    0.5155 C   0  0  0  0  0  0  0  0  0  0  0  0
    9.2669   21.0776   -0.6283 C   0  0  0  0  0  0  0  0  0  0  0  0
   10.5436   21.2743   -1.2100 C   0  0  0  0  0  0  0  0  0  0  0  0
    8.2559   20.1606   -1.2055 C   0  0  0  0  0  0  0  0  0  0  0  0
    8.4032   20.1609   -2.6275 F   0  0  0  0  0  0  0  0  0  0  0  0
    8.3373   18.8750   -0.7798 F   0  0  0  0  0  0  0  0  0  0  0  0
    6.9382   20.6310   -1.0202 F   0  0  0  0  0  0  0  0  0  0  0  0
   15.3249   24.6832    0.3663 C   0  0  0  0  0  0  0  0  0  0  0  0
   14.8550   23.9543   -0.9226 C   0  0  0  0  0  0  0  0  0  0  0  0
   15.2915   24.7633   -2.0609 C   0  0  0  0  0  0  0  0  0  0  0  0
   16.3606   25.5848   -2.1830 C   0  0  0  0  0  0  0  0  0  0  0  0
   16.5824   26.4633   -3.2465 C   0  0  0  0  0  0  0  0  0  0  0  0
   15.6436   26.4925   -4.2493 C   0  0  0  0  0  0  0  0  0  0  0  0
   14.5200   25.6667   -4.1869 C   0  0  0  0  0  0  0  0  0  0  0  0
   14.3434   24.8280   -3.1334 C   0  0  0  0  0  0  0  0  0  0  0  0
   15.7358   27.4301   -5.3439 C   0  0  0  0  0  0  0  0  0  0  0  0
   15.7926   28.8094   -5.1942 O   0  0  0  0  0  0  0  0  0  0  0  0
   15.7778   26.9984   -6.5526 O   0  0  0  0  0  0  0  0  0  0  0  0
   16.2838   29.3539   -5.9796 H   0  0  0  0  0  0  0  0  0  0  0  0
 15 16  1  0  0  0
 16  1  1  0  0  0
  1  2  1  0  0  0
  2  3  2  0  0  0
  2  5  1  0  0  0
  5  6  2  0  0  0
  6  7  1  0  0  0
  7  8  2  0  0  0
  8  9  1  0  0  0
  9 10  2  0  0  0
  9 11  1  0  0  0
 11 12  1  0  0  0
 11 13  1  0  0  0
 11 14  1  0  0  0
 16 17  1  0  0  0
 17 18  2  0  0  0
 18 19  1  0  0  0
 19 20  2  0  0  0
 20 21  1  0  0  0
 21 22  2  0  0  0
 20 23  1  0  0  0
 23 24  1  0  0  0
 23 25  2  0  0  0
 10  5  1  0  0  0
 22 17  1  0  0  0
  1  4  1  0  0  0
 24 26  1  0  0  0
M  END
> <minimizedAffinity>
-8.87520

> <CNNscore>
0.4098828435

> <CNNaffinity>
5.8366727829

> <CNN_VS>
2.3923521042

> <CNNaffinity_variance>
0.2401565611

$$$$
[H]OC(=O)c1c([H])c([H])c([C@]([H])(N([H])C(=O)c2c([H])c([H])c([H])c(C(F)(F)F)c2[H])C([H])([H])[H])c([H])c1[H]


 26 27  0  0  0  0  0  0  0  0999 V2000
   14.5591   25.8396   -2.5841 N   0  0  0  0  0  0  0  0  0  0  0  0
   14.3990   26.6788   -3.6700 C   0  0  0  0  0  0  0  0  0  0  0  0
   13.8372   27.8228   -3.6140 O   0  0  0  0  0  0  0  0  0  0  0  0
   15.0668   24.8635   -2.9710 H   0  0  0  0  0  0  0  0  0  0  0  0
   14.8791   26.3614   -5.0387 C   0  0  0  0  0  0  0  0  0  0  0  0
   14.7169   25.0434   -5.4864 C   0  0  0  0  0  0  0  0  0  0  0  0
   15.1728   24.6380   -6.7149 C   0  0  0  0  0  0  0  0  0  0  0  0
   15.8096   25.5587   -7.5389 C   0  0  0  0  0  0  0  0  0  0  0  0
   15.9814   26.8552   -7.1209 C   0  0  0  0  0  0  0  0  0  0  0  0
   15.5062   27.2625   -5.8498 C   0  0  0  0  0  0  0  0  0  0  0  0
   16.6694   27.7794   -8.0530 C   0  0  0  0  0  0  0  0  0  0  0  0
   16.9206   29.0092   -7.3688 F   0  0  0  0  0  0  0  0  0  0  0  0
   17.8514   27.3270   -8.5417 F   0  0  0  0  0  0  0  0  0  0  0  0
   15.8410   28.1733   -9.1256 F   0  0  0  0  0  0  0  0  0  0  0  0
   15.5719   25.1923   -0.4958 C   0  0  0  0  0  0  0  0  0  0  0  0
   14.3334   25.7726   -1.2325 C   0  0  0  0  0  0  0  0  0  0  0  0
   13.1454   25.1994   -0.5996 C   0  0  0  0  0  0  0  0  0  0  0  0
   12.8683   25.0051    0.7112 C   0  0  0  0  0  0  0  0  0  0  0  0
   11.7863   24.2715    1.2043 C   0  0  0  0  0  0  0  0  0  0  0  0
   10.9344   23.7063    0.2865 C   0  0  0  0  0  0  0  0  0  0  0  0
   11.1605   23.8727   -1.0808 C   0  0  0  0  0  0  0  0  0  0  0  0
   12.2260   24.5934   -1.5166 C   0  0  0  0  0  0  0  0  0  0  0  0
    9.8411   22.8551    0.6941 C   0  0  0  0  0  0  0  0  0  0  0  0
    9.9346   21.8669    1.6651 O   0  0  0  0  0  0  0  0  0  0  0  0
    8.6860   22.9950    0.1504 O   0  0  0  0  0  0  0  0  0  0  0  0
    9.0254   21.6188    2.1812 H   0  0  0  0  0  0  0  0  0  0  0  0
 15 16  1  0  0  0
 16  1  1  0  0  0
  1  2  1  0  0  0
  2  3  2  0  0  0
  2  5  1  0  0  0
  5  6  2  0  0  0
  6  7  1  0  0  0
  7  8  2  0  0  0
  8  9  1  0  0  0
  9 10  2  0  0  0
  9 11  1  0  0  0
 11 12  1  0  0  0
 11 13  1  0  0  0
 11 14  1  0  0  0
 16 17  1  0  0  0
 17 18  2  0  0  0
 18 19  1  0  0  0
 19 20  2  0  0  0
 20 21  1  0  0  0
 21 22  2  0  0  0
 20 23  1  0  0  0
 23 24  1  0  0  0
 23 25  2  0  0  0
 10  5  1  0  0  0
 22 17  1  0  0  0
  1  4  1  0  0  0
 24 26  1  0  0  0
M  END
> <minimizedAffinity>
8.24593

> <CNNscore>
0.3970175385

> <CNNaffinity>
5.4378633499

> <CNN_VS>
2.1589272022

> <CNNaffinity_variance>
0.1350684166

$$$$
[H]OC(=O)c1c([H])c([H])c([C@]([H])(N([H])C(=O)c2c([H])c([H])c([H])c(C(F)(F)F)c2[H])C([H])([H])[H])c([H])c1[H]


 26 27  0  0  0  0  0  0  0  0999 V2000
   14.3545   23.0502   -0.9817 N   0  0  0  0  0  0  0  0  0  0  0  0
   14.7662   23.1282   -2.2983 C   0  0  0  0  0  0  0  0  0  0  0  0
   14.7184   22.1553   -3.1222 O   0  0  0  0  0  0  0  0  0  0  0  0
   14.5648   24.0866   -0.4898 H   0  0  0  0  0  0  0  0  0  0  0  0
   15.3001   24.3631   -2.9265 C   0  0  0  0  0  0  0  0  0  0  0  0
   16.1384   25.1699   -2.1454 C   0  0  0  0  0  0  0  0  0  0  0  0
   16.6414   26.3558   -2.6165 C   0  0  0  0  0  0  0  0  0  0  0  0
   16.3137   26.7672   -3.9033 C   0  0  0  0  0  0  0  0  0  0  0  0
   15.4925   25.9940   -4.6864 C   0  0  0  0  0  0  0  0  0  0  0  0
   14.9792   24.7708   -4.1890 C   0  0  0  0  0  0  0  0  0  0  0  0
   15.1871   26.4973   -6.0464 C   0  0  0  0  0  0  0  0  0  0  0  0
   15.5020   25.4712   -6.9907 F   0  0  0  0  0  0  0  0  0  0  0  0
   13.8963   26.8639   -6.2464 F   0  0  0  0  0  0  0  0  0  0  0  0
   16.0377   27.5564   -6.4292 F   0  0  0  0  0  0  0  0  0  0  0  0
   14.6162   20.8754    0.0220 C   0  0  0  0  0  0  0  0  0  0  0  0
   13.7875   22.1854   -0.0802 C   0  0  0  0  0  0  0  0  0  0  0  0
   12.3745   21.8078   -0.0423 C   0  0  0  0  0  0  0  0  0  0  0  0
   11.5717   21.3485   -1.0309 C   0  0  0  0  0  0  0  0  0  0  0  0
   10.1855   21.2006   -0.9378 C   0  0  0  0  0  0  0  0  0  0  0  0
    9.5911   21.5444    0.2522 C   0  0  0  0  0  0  0  0  0  0  0  0
   10.3626   22.0200    1.3137 C   0  0  0  0  0  0  0  0  0  0  0  0
   11.7079   22.1491    1.1794 C   0  0  0  0  0  0  0  0  0  0  0  0
    8.1567   21.5137    0.4171 C   0  0  0  0  0  0  0  0  0  0  0  0
    7.3235   22.6125    0.2543 O   0  0  0  0  0  0  0  0  0  0  0  0
    7.5731   20.4129    0.7285 O   0  0  0  0  0  0  0  0  0  0  0  0
    6.3085   22.4027   -0.0293 H   0  0  0  0  0  0  0  0  0  0  0  0
 15 16  1  0  0  0
 16  1  1  0  0  0
  1  2  1  0  0  0
  2  3  2  0  0  0
  2  5  1  0  0  0
  5  6  2  0  0  0
  6  7  1  0  0  0
  7  8  2  0  0  0
  8  9  1  0  0  0
  9 10  2  0  0  0
  9 11  1  0  0  0
 11 12  1  0  0  0
 11 13  1  0  0  0
 11 14  1  0  0  0
 16 17  1  0  0  0
 17 18  2  0  0  0
 18 19  1  0  0  0
 19 20  2  0  0  0
 20 21  1  0  0  0
 21 22  2  0  0  0
 20 23  1  0  0  0
 23 24  1  0  0  0
 23 25  2  0  0  0
 10  5  1  0  0  0
 22 17  1  0  0  0
  1  4  1  0  0  0
 24 26  1  0  0  0
M  END
> <minimizedAffinity>
-9.75966

> <CNNscore>
0.3951450288

> <CNNaffinity>
5.9557170868

> <CNN_VS>
2.3533720970

> <CNNaffinity_variance>
0.1175729409

$$$$
[H]OC(=O)c1c([H])c([H])c([C@]([H])(N([H])C(=O)c2c([H])c([H])c([H])c(C(F)(F)F)c2[H])C([H])([H])[H])c([H])c1[H]


 26 27  0  0  0  0  0  0  0  0999 V2000
   14.1823   23.3839   -0.8317 N   0  0  0  0  0  0  0  0  0  0  0  0
   13.4175   22.2961   -1.2069 C   0  0  0  0  0  0  0  0  0  0  0  0
   13.7706   21.4416   -2.0859 O   0  0  0  0  0  0  0  0  0  0  0  0
   13.5668   23.9871   -0.0459 H   0  0  0  0  0  0  0  0  0  0  0  0
   12.0928   21.9738   -0.6188 C   0  0  0  0  0  0  0  0  0  0  0  0
   11.6542   20.6462   -0.7136 C   0  0  0  0  0  0  0  0  0  0  0  0
   10.4242   20.2582   -0.2468 C   0  0  0  0  0  0  0  0  0  0  0  0
    9.5918   21.2054    0.3384 C   0  0  0  0  0  0  0  0  0  0  0  0
    9.9996   22.5125    0.4407 C   0  0  0  0  0  0  0  0  0  0  0  0
   11.2724   22.9016   -0.0450 C   0  0  0  0  0  0  0  0  0  0  0  0
    9.0586   23.4653    1.0756 C   0  0  0  0  0  0  0  0  0  0  0  0
    8.3004   22.7631    2.0633 F   0  0  0  0  0  0  0  0  0  0  0  0
    9.6414   24.5312    1.6796 F   0  0  0  0  0  0  0  0  0  0  0  0
    8.0700   23.9208    0.1773 F   0  0  0  0  0  0  0  0  0  0  0  0
   15.9204   24.6782    0.2218 C   0  0  0  0  0  0  0  0  0  0  0  0
   15.3982   23.9761   -1.0619 C   0  0  0  0  0  0  0  0  0  0  0  0
   15.7144   24.8497   -2.1921 C   0  0  0  0  0  0  0  0  0  0  0  0
   16.5595   25.9049   -2.2640 C   0  0  0  0  0  0  0  0  0  0  0  0
   16.6452   26.7949   -3.3376 C   0  0  0  0  0  0  0  0  0  0  0  0
   15.8090   26.5795   -4.4062 C   0  0  0  0  0  0  0  0  0  0  0  0
   14.9169   25.5060   -4.3977 C   0  0  0  0  0  0  0  0  0  0  0  0
   14.8660   24.6655   -3.3321 C   0  0  0  0  0  0  0  0  0  0  0  0
   15.7576   27.4947   -5.5222 C   0  0  0  0  0  0  0  0  0  0  0  0
   15.8488   28.8758   -5.4105 O   0  0  0  0  0  0  0  0  0  0  0  0
   15.6265   27.0395   -6.7159 O   0  0  0  0  0  0  0  0  0  0  0  0
   16.2315   29.3987   -6.2676 H   0  0  0  0  0  0  0  0  0  0  0  0
 15 16  1  0  0  0
 16  1  1  0  0  0
  1  2  1  0  0  0
  2  3  2  0  0  0
  2  5  1  0  0  0
  5  6  2  0  0  0
  6  7  1  0  0  0
  7  8  2  0  0  0
  8  9  1  0  0  0
  9 10  2  0  0  0
  9 11  1  0  0  0
 11 12  1  0  0  0
 11 13  1  0  0  0
 11 14  1  0  0  0
 16 17  1  0  0  0
 17 18  2  0  0  0
 18 19  1  0  0  0
 19 20  2  0  0  0
 20 21  1  0  0  0
 21 22  2  0  0  0
 20 23  1  0  0  0
 23 24  1  0  0  0
 23 25  2  0  0  0
 10  5  1  0  0  0
 22 17  1  0  0  0
  1  4  1  0  0  0
 24 26  1  0  0  0
M  END
> <minimizedAffinity>
-9.02057

> <CNNscore>
0.3950583339

> <CNNaffinity>
5.9548344612

> <CNN_VS>
2.3525068760

> <CNNaffinity_variance>
0.2811242342

$$$$
[H]c1nc(N([H])c2c([H])c([H])c(N3C([H])([H])C([H])([H])N(C([H])([H])[H])C([H])([H])C3([H])[H])c(OC([H])([H])[H])c2[H])nc(N([H])c2c([H])c([H])c([H])c([H])c2C(=O)N([H])c2c([H])c([H])c([H])c([H])c2[H])c1Cl


 42 46  0  0  0  0  0  0  0  0999 V2000
   11.1383   22.4197    2.0733 C   0  0  0  0  0  0  0  0  0  0  0  0
   11.8128   21.4707    1.3646 N   0  0  0  0  0  0  0  0  0  0  0  0
   12.1335   20.3070    1.9218 C   0  0  0  0  0  0  0  0  0  0  0  0
   11.7698   20.0848    3.2263 C   0  0  0  0  0  0  0  0  0  0  0  0
   12.1917   18.5565    4.0117 Cl  0  0  0  0  0  0  0  0  0  0  0  0
   11.0742   21.0615    3.9574 C   0  0  0  0  0  0  0  0  0  0  0  0
   10.7801   22.2096    3.3399 N   0  0  0  0  0  0  0  0  0  0  0  0
   10.8940   23.6970    1.4661 N   0  0  0  0  0  0  0  0  0  0  0  0
   10.1480   24.2990    1.8430 H   0  0  0  0  0  0  0  0  0  0  0  0
   13.7745   24.5973   -0.7345 C   0  0  0  0  0  0  0  0  0  0  0  0
   13.0463   24.1892    0.3885 C   0  0  0  0  0  0  0  0  0  0  0  0
   11.6772   24.1203    0.3579 C   0  0  0  0  0  0  0  0  0  0  0  0
   11.0503   24.4618   -0.8083 C   0  0  0  0  0  0  0  0  0  0  0  0
   11.7746   24.8680   -1.9241 C   0  0  0  0  0  0  0  0  0  0  0  0
   13.1645   24.9431   -1.8985 C   0  0  0  0  0  0  0  0  0  0  0  0
   13.8110   25.4198   -3.0758 N   0  0  0  0  0  0  0  0  0  0  0  0
   14.8105   24.5491   -3.6739 C   0  0  0  0  0  0  0  0  0  0  0  0
   15.5617   25.1252   -4.8056 C   0  0  0  0  0  0  0  0  0  0  0  0
   15.2545   26.4559   -5.1912 N   0  0  0  0  0  0  0  0  0  0  0  0
   16.1872   27.4315   -4.7425 C   0  0  0  0  0  0  0  0  0  0  0  0
   13.8732   26.7680   -5.1117 C   0  0  0  0  0  0  0  0  0  0  0  0
   13.4451   26.6843   -3.6307 C   0  0  0  0  0  0  0  0  0  0  0  0
   15.8347   24.2960    0.5634 C   0  0  0  0  0  0  0  0  0  0  0  0
   15.1345   24.6346   -0.6195 O   0  0  0  0  0  0  0  0  0  0  0  0
   10.7843   20.7460    5.3118 N   0  0  0  0  0  0  0  0  0  0  0  0
   11.5590   20.9394    6.0338 H   0  0  0  0  0  0  0  0  0  0  0  0
    9.5700   20.3052    5.8281 C   0  0  0  0  0  0  0  0  0  0  0  0
    9.1642   18.9743    5.7106 C   0  0  0  0  0  0  0  0  0  0  0  0
    7.8771   18.5804    6.0629 C   0  0  0  0  0  0  0  0  0  0  0  0
    6.9781   19.4963    6.5335 C   0  0  0  0  0  0  0  0  0  0  0  0
    7.3988   20.8012    6.6439 C   0  0  0  0  0  0  0  0  0  0  0  0
    8.6576   21.2405    6.3139 C   0  0  0  0  0  0  0  0  0  0  0  0
    9.0908   22.6180    6.6403 C   0  0  0  0  0  0  0  0  0  0  0  0
    9.9003   22.6758    7.6407 O   0  0  0  0  0  0  0  0  0  0  0  0
    8.7072   23.7170    5.9616 N   0  0  0  0  0  0  0  0  0  0  0  0
    9.3202   24.5577    6.8835 H   0  0  0  0  0  0  0  0  0  0  0  0
    8.3231   24.8195    5.2817 C   0  0  0  0  0  0  0  0  0  0  0  0
    9.0754   25.2915    4.1852 C   0  0  0  0  0  0  0  0  0  0  0  0
    8.7215   26.4382    3.5665 C   0  0  0  0  0  0  0  0  0  0  0  0
    7.6487   27.2101    3.9295 C   0  0  0  0  0  0  0  0  0  0  0  0
    6.8909   26.7822    4.9924 C   0  0  0  0  0  0  0  0  0  0  0  0
    7.2279   25.6231    5.6379 C   0  0  0  0  0  0  0  0  0  0  0  0
 23 24  1  0  0  0
 24 10  1  0  0  0
 10 11  2  0  0  0
 11 12  1  0  0  0
 12  8  1  0  0  0
  8  1  1  0  0  0
  1  2  2  0  0  0
  2  3  1  0  0  0
  3  4  2  0  0  0
  4  5  1  0  0  0
  4  6  1  0  0  0
  6 25  1  0  0  0
 25 27  1  0  0  0
 27 28  2  0  0  0
 28 29  1  0  0  0
 29 30  2  0  0  0
 30 31  1  0  0  0
 31 32  2  0  0  0
 32 33  1  0  0  0
 33 34  2  0  0  0
 33 35  1  0  0  0
 35 37  1  0  0  0
 37 38  2  0  0  0
 38 39  1  0  0  0
 39 40  2  0  0  0
 40 41  1  0  0  0
 41 42  2  0  0  0
  6  7  2  0  0  0
 12 13  2  0  0  0
 13 14  1  0  0  0
 14 15  2  0  0  0
 15 16  1  0  0  0
 16 17  1  0  0  0
 17 18  1  0  0  0
 18 19  1  0  0  0
 19 20  1  0  0  0
 19 21  1  0  0  0
 21 22  1  0  0  0
 15 10  1  0  0  0
 22 16  1  0  0  0
  7  1  1  0  0  0
 32 27  1  0  0  0
 42 37  1  0  0  0
  8  9  1  0  0  0
 25 26  1  0  0  0
 35 36  1  0  0  0
M  END
> <minimizedAffinity>
-9.40504

> <CNNscore>
0.2126467377

> <CNNaffinity>
7.4190826416

> <CNN_VS>
1.5776437521

> <CNNaffinity_variance>
0.2297285050

$$$$
[H]c1nc(N([H])c2c([H])c([H])c(N3C([H])([H])C([H])([H])N(C([H])([H])[H])C([H])([H])C3([H])[H])c(OC([H])([H])[H])c2[H])nc(N([H])c2c([H])c([H])c([H])c([H])c2C(=O)N([H])c2c([H])c([H])c([H])c([H])c2[H])c1Cl


 42 46  0  0  0  0  0  0  0  0999 V2000
   10.0325   23.5730    2.6081 C   0  0  0  0  0  0  0  0  0  0  0  0
    9.9016   24.9052    2.3514 N   0  0  0  0  0  0  0  0  0  0  0  0
    9.3458   25.7176    3.2449 C   0  0  0  0  0  0  0  0  0  0  0  0
    8.9071   25.1832    4.4304 C   0  0  0  0  0  0  0  0  0  0  0  0
    8.1459   26.2262    5.6401 Cl  0  0  0  0  0  0  0  0  0  0  0  0
    9.0419   23.8109    4.6964 C   0  0  0  0  0  0  0  0  0  0  0  0
    9.6105   23.0477    3.7583 N   0  0  0  0  0  0  0  0  0  0  0  0
   10.5515   22.7154    1.5810 N   0  0  0  0  0  0  0  0  0  0  0  0
   10.3196   21.7119    1.5984 H   0  0  0  0  0  0  0  0  0  0  0  0
   13.5131   23.7910   -0.4247 C   0  0  0  0  0  0  0  0  0  0  0  0
   12.7446   23.2657    0.6201 C   0  0  0  0  0  0  0  0  0  0  0  0
   11.3751   23.2518    0.5540 C   0  0  0  0  0  0  0  0  0  0  0  0
   10.7885   23.7664   -0.5687 C   0  0  0  0  0  0  0  0  0  0  0  0
   11.5528   24.2890   -1.6067 C   0  0  0  0  0  0  0  0  0  0  0  0
   12.9434   24.3090   -1.5443 C   0  0  0  0  0  0  0  0  0  0  0  0
   13.6339   24.9124   -2.6355 N   0  0  0  0  0  0  0  0  0  0  0  0
   14.6228   24.0941   -3.3193 C   0  0  0  0  0  0  0  0  0  0  0  0
   15.4196   24.7868   -4.3499 C   0  0  0  0  0  0  0  0  0  0  0  0
   15.1615   26.1653   -4.5664 N   0  0  0  0  0  0  0  0  0  0  0  0
   16.1102   27.0443   -3.9747 C   0  0  0  0  0  0  0  0  0  0  0  0
   13.7882   26.5090   -4.4775 C   0  0  0  0  0  0  0  0  0  0  0  0
   13.3196   26.2489   -3.0296 C   0  0  0  0  0  0  0  0  0  0  0  0
   15.6001   24.7020    0.4886 C   0  0  0  0  0  0  0  0  0  0  0  0
   14.8704   23.7628   -0.2793 O   0  0  0  0  0  0  0  0  0  0  0  0
    8.5161   23.3555    5.9350 N   0  0  0  0  0  0  0  0  0  0  0  0
    7.9780   24.0736    6.5295 H   0  0  0  0  0  0  0  0  0  0  0  0
    8.5326   22.0532    6.4243 C   0  0  0  0  0  0  0  0  0  0  0  0
    9.5056   21.6230    7.3287 C   0  0  0  0  0  0  0  0  0  0  0  0
    9.6270   20.2797    7.6706 C   0  0  0  0  0  0  0  0  0  0  0  0
    8.7900   19.3484    7.1224 C   0  0  0  0  0  0  0  0  0  0  0  0
    7.8370   19.7935    6.2359 C   0  0  0  0  0  0  0  0  0  0  0  0
    7.6732   21.1068    5.8685 C   0  0  0  0  0  0  0  0  0  0  0  0
    6.5072   21.5291    5.0600 C   0  0  0  0  0  0  0  0  0  0  0  0
    5.6245   22.1793    5.7366 O   0  0  0  0  0  0  0  0  0  0  0  0
    6.3679   21.2878    3.7417 N   0  0  0  0  0  0  0  0  0  0  0  0
    5.0682   21.7806    3.7409 H   0  0  0  0  0  0  0  0  0  0  0  0
    6.2276   21.0462    2.4199 C   0  0  0  0  0  0  0  0  0  0  0  0
    7.1995   21.4875    1.4970 C   0  0  0  0  0  0  0  0  0  0  0  0
    7.0053   21.3069    0.1731 C   0  0  0  0  0  0  0  0  0  0  0  0
    5.8993   20.7052   -0.3684 C   0  0  0  0  0  0  0  0  0  0  0  0
    4.9311   20.2609    0.4991 C   0  0  0  0  0  0  0  0  0  0  0  0
    5.1026   20.4318    1.8464 C   0  0  0  0  0  0  0  0  0  0  0  0
 23 24  1  0  0  0
 24 10  1  0  0  0
 10 11  2  0  0  0
 11 12  1  0  0  0
 12  8  1  0  0  0
  8  1  1  0  0  0
  1  2  2  0  0  0
  2  3  1  0  0  0
  3  4  2  0  0  0
  4  5  1  0  0  0
  4  6  1  0  0  0
  6 25  1  0  0  0
 25 27  1  0  0  0
 27 28  2  0  0  0
 28 29  1  0  0  0
 29 30  2  0  0  0
 30 31  1  0  0  0
 31 32  2  0  0  0
 32 33  1  0  0  0
 33 34  2  0  0  0
 33 35  1  0  0  0
 35 37  1  0  0  0
 37 38  2  0  0  0
 38 39  1  0  0  0
 39 40  2  0  0  0
 40 41  1  0  0  0
 41 42  2  0  0  0
  6  7  2  0  0  0
 12 13  2  0  0  0
 13 14  1  0  0  0
 14 15  2  0  0  0
 15 16  1  0  0  0
 16 17  1  0  0  0
 17 18  1  0  0  0
 18 19  1  0  0  0
 19 20  1  0  0  0
 19 21  1  0  0  0
 21 22  1  0  0  0
 15 10  1  0  0  0
 22 16  1  0  0  0
  7  1  1  0  0  0
 32 27  1  0  0  0
 42 37  1  0  0  0
  8  9  1  0  0  0
 25 26  1  0  0  0
 35 36  1  0  0  0
M  END
> <minimizedAffinity>
-8.63521

> <CNNscore>
0.1426349133

> <CNNaffinity>
6.7733659744

> <CNN_VS>
0.9661184549

> <CNNaffinity_variance>
0.7309992909

$$$$
[H]c1nc(N([H])c2c([H])c([H])c(N3C([H])([H])C([H])([H])N(C([H])([H])[H])C([H])([H])C3([H])[H])c(OC([H])([H])[H])c2[H])nc(N([H])c2c([H])c([H])c([H])c([H])c2C(=O)N([H])c2c([H])c([H])c([H])c([H])c2[H])c1Cl


 42 46  0  0  0  0  0  0  0  0999 V2000
   10.8230   22.6816    2.1090 C   0  0  0  0  0  0  0  0  0  0  0  0
   11.6514   21.7523    1.5540 N   0  0  0  0  0  0  0  0  0  0  0  0
   11.9100   20.6105    2.1838 C   0  0  0  0  0  0  0  0  0  0  0  0
   11.3237   20.3904    3.4050 C   0  0  0  0  0  0  0  0  0  0  0  0
   11.6545   18.8914    4.2851 Cl  0  0  0  0  0  0  0  0  0  0  0  0
   10.4695   21.3467    3.9776 C   0  0  0  0  0  0  0  0  0  0  0  0
   10.2486   22.4733    3.2937 N   0  0  0  0  0  0  0  0  0  0  0  0
   10.6441   23.9395    1.4416 N   0  0  0  0  0  0  0  0  0  0  0  0
    9.8982   24.5755    1.7579 H   0  0  0  0  0  0  0  0  0  0  0  0
   13.6464   24.7484   -0.6280 C   0  0  0  0  0  0  0  0  0  0  0  0
   12.8528   24.4085    0.4733 C   0  0  0  0  0  0  0  0  0  0  0  0
   11.4910   24.2974    0.3575 C   0  0  0  0  0  0  0  0  0  0  0  0
   10.9376   24.5278   -0.8714 C   0  0  0  0  0  0  0  0  0  0  0  0
   11.7268   24.8664   -1.9657 C   0  0  0  0  0  0  0  0  0  0  0  0
   13.1095   24.9839   -1.8539 C   0  0  0  0  0  0  0  0  0  0  0  0
   13.8236   25.3855   -3.0201 N   0  0  0  0  0  0  0  0  0  0  0  0
   14.8410   24.4712   -3.5139 C   0  0  0  0  0  0  0  0  0  0  0  0
   15.6586   24.9736   -4.6347 C   0  0  0  0  0  0  0  0  0  0  0  0
   15.3906   26.2833   -5.1106 N   0  0  0  0  0  0  0  0  0  0  0  0
   16.3118   27.2728   -4.6687 C   0  0  0  0  0  0  0  0  0  0  0  0
   14.0114   26.6145   -5.1226 C   0  0  0  0  0  0  0  0  0  0  0  0
   13.5049   26.6201   -3.6642 C   0  0  0  0  0  0  0  0  0  0  0  0
   15.6971   24.0688    0.5348 C   0  0  0  0  0  0  0  0  0  0  0  0
   14.9940   24.8344   -0.4262 O   0  0  0  0  0  0  0  0  0  0  0  0
    9.9502   21.0372    5.2632 N   0  0  0  0  0  0  0  0  0  0  0  0
   10.5014   20.3249    5.8528 H   0  0  0  0  0  0  0  0  0  0  0  0
    8.8577   21.6277    5.8901 C   0  0  0  0  0  0  0  0  0  0  0  0
    9.0083   22.7148    6.7535 C   0  0  0  0  0  0  0  0  0  0  0  0
    7.9422   23.1815    7.5161 C   0  0  0  0  0  0  0  0  0  0  0  0
    6.7178   22.5793    7.4344 C   0  0  0  0  0  0  0  0  0  0  0  0
    6.5902   21.5120    6.5762 C   0  0  0  0  0  0  0  0  0  0  0  0
    7.6086   21.0155    5.7997 C   0  0  0  0  0  0  0  0  0  0  0  0
    7.3437   19.9911    4.7644 C   0  0  0  0  0  0  0  0  0  0  0  0
    7.6322   18.7943    5.1439 O   0  0  0  0  0  0  0  0  0  0  0  0
    6.8332   20.2553    3.5457 N   0  0  0  0  0  0  0  0  0  0  0  0
    7.0284   18.9440    3.1278 H   0  0  0  0  0  0  0  0  0  0  0  0
    6.3213   20.5194    2.3237 C   0  0  0  0  0  0  0  0  0  0  0  0
    7.0920   21.1814    1.3445 C   0  0  0  0  0  0  0  0  0  0  0  0
    6.5397   21.5074    0.1564 C   0  0  0  0  0  0  0  0  0  0  0  0
    5.2417   21.2358   -0.1902 C   0  0  0  0  0  0  0  0  0  0  0  0
    4.4599   20.5907    0.7371 C   0  0  0  0  0  0  0  0  0  0  0  0
    4.9949   20.2492    1.9499 C   0  0  0  0  0  0  0  0  0  0  0  0
 23 24  1  0  0  0
 24 10  1  0  0  0
 10 11  2  0  0  0
 11 12  1  0  0  0
 12  8  1  0  0  0
  8  1  1  0  0  0
  1  2  2  0  0  0
  2  3  1  0  0  0
  3  4  2  0  0  0
  4  5  1  0  0  0
  4  6  1  0  0  0
  6 25  1  0  0  0
 25 27  1  0  0  0
 27 28  2  0  0  0
 28 29  1  0  0  0
 29 30  2  0  0  0
 30 31  1  0  0  0
 31 32  2  0  0  0
 32 33  1  0  0  0
 33 34  2  0  0  0
 33 35  1  0  0  0
 35 37  1  0  0  0
 37 38  2  0  0  0
 38 39  1  0  0  0
 39 40  2  0  0  0
 40 41  1  0  0  0
 41 42  2  0  0  0
  6  7  2  0  0  0
 12 13  2  0  0  0
 13 14  1  0  0  0
 14 15  2  0  0  0
 15 16  1  0  0  0
 16 17  1  0  0  0
 17 18  1  0  0  0
 18 19  1  0  0  0
 19 20  1  0  0  0
 19 21  1  0  0  0
 21 22  1  0  0  0
 15 10  1  0  0  0
 22 16  1  0  0  0
  7  1  1  0  0  0
 32 27  1  0  0  0
 42 37  1  0  0  0
  8  9  1  0  0  0
 25 26  1  0  0  0
 35 36  1  0  0  0
M  END
> <minimizedAffinity>
-8.59057

> <CNNscore>
0.1418505609

> <CNNaffinity>
6.9419174194

> <CNN_VS>
0.9847148657

> <CNNaffinity_variance>
0.4329808354

$$$$
[H]c1nc(N([H])c2c([H])c([H])c(N3C([H])([H])C([H])([H])N(C([H])([H])[H])C([H])([H])C3([H])[H])c(OC([H])([H])[H])c2[H])nc(N([H])c2c([H])c([H])c([H])c([H])c2C(=O)N([H])c2c([H])c([H])c([H])c([H])c2[H])c1Cl


 42 46  0  0  0  0  0  0  0  0999 V2000
   10.6228   22.8673    2.2101 C   0  0  0  0  0  0  0  0  0  0  0  0
   11.4581   21.9060    1.7243 N   0  0  0  0  0  0  0  0  0  0  0  0
   11.6985   20.7997    2.4212 C   0  0  0  0  0  0  0  0  0  0  0  0
   11.0864   20.6492    3.6403 C   0  0  0  0  0  0  0  0  0  0  0  0
   11.3921   19.1998    4.6080 Cl  0  0  0  0  0  0  0  0  0  0  0  0
   10.2251   21.6387    4.1417 C   0  0  0  0  0  0  0  0  0  0  0  0
   10.0235   22.7267    3.3924 N   0  0  0  0  0  0  0  0  0  0  0  0
   10.4635   24.0872    1.4710 N   0  0  0  0  0  0  0  0  0  0  0  0
    9.7069   24.7369    1.7291 H   0  0  0  0  0  0  0  0  0  0  0  0
   13.5297   24.7849   -0.5446 C   0  0  0  0  0  0  0  0  0  0  0  0
   12.7021   24.5014    0.5477 C   0  0  0  0  0  0  0  0  0  0  0  0
   11.3439   24.3893    0.3967 C   0  0  0  0  0  0  0  0  0  0  0  0
   10.8284   24.5616   -0.8579 C   0  0  0  0  0  0  0  0  0  0  0  0
   11.6512   24.8440   -1.9432 C   0  0  0  0  0  0  0  0  0  0  0  0
   13.0306   24.9623   -1.7959 C   0  0  0  0  0  0  0  0  0  0  0  0
   13.7809   25.3046   -2.9583 N   0  0  0  0  0  0  0  0  0  0  0  0
   14.7580   24.3308   -3.4189 C   0  0  0  0  0  0  0  0  0  0  0  0
   15.6160   24.7694   -4.5361 C   0  0  0  0  0  0  0  0  0  0  0  0
   15.4214   26.0813   -5.0409 N   0  0  0  0  0  0  0  0  0  0  0  0
   16.3848   27.0318   -4.6036 C   0  0  0  0  0  0  0  0  0  0  0  0
   14.0610   26.4808   -5.0806 C   0  0  0  0  0  0  0  0  0  0  0  0
   13.5343   26.5406   -3.6306 C   0  0  0  0  0  0  0  0  0  0  0  0
   15.5971   23.9483    0.4780 C   0  0  0  0  0  0  0  0  0  0  0  0
   14.8711   24.8762   -0.3069 O   0  0  0  0  0  0  0  0  0  0  0  0
    9.6784   21.4022    5.4314 N   0  0  0  0  0  0  0  0  0  0  0  0
   10.1216   20.6107    6.0109 H   0  0  0  0  0  0  0  0  0  0  0  0
    8.6943   22.1468    6.0737 C   0  0  0  0  0  0  0  0  0  0  0  0
    8.9925   23.3423    6.7307 C   0  0  0  0  0  0  0  0  0  0  0  0
    8.0455   23.9839    7.5229 C   0  0  0  0  0  0  0  0  0  0  0  0
    6.7958   23.4513    7.6749 C   0  0  0  0  0  0  0  0  0  0  0  0
    6.5219   22.2747    7.0173 C   0  0  0  0  0  0  0  0  0  0  0  0
    7.4187   21.6045    6.2215 C   0  0  0  0  0  0  0  0  0  0  0  0
    6.9893   20.4512    5.3986 C   0  0  0  0  0  0  0  0  0  0  0  0
    6.8841   20.7286    4.1450 O   0  0  0  0  0  0  0  0  0  0  0  0
    6.7457   19.2184    5.8848 N   0  0  0  0  0  0  0  0  0  0  0  0
    6.2633   18.7784    4.6576 H   0  0  0  0  0  0  0  0  0  0  0  0
    6.5014   17.9820    6.3716 C   0  0  0  0  0  0  0  0  0  0  0  0
    5.1918   17.5871    6.7181 C   0  0  0  0  0  0  0  0  0  0  0  0
    4.9764   16.3767    7.2763 C   0  0  0  0  0  0  0  0  0  0  0  0
    5.9639   15.4644    7.5425 C   0  0  0  0  0  0  0  0  0  0  0  0
    7.2526   15.8125    7.2177 C   0  0  0  0  0  0  0  0  0  0  0  0
    7.4989   17.0340    6.6511 C   0  0  0  0  0  0  0  0  0  0  0  0
 23 24  1  0  0  0
 24 10  1  0  0  0
 10 11  2  0  0  0
 11 12  1  0  0  0
 12  8  1  0  0  0
  8  1  1  0  0  0
  1  2  2  0  0  0
  2  3  1  0  0  0
  3  4  2  0  0  0
  4  5  1  0  0  0
  4  6  1  0  0  0
  6 25  1  0  0  0
 25 27  1  0  0  0
 27 28  2  0  0  0
 28 29  1  0  0  0
 29 30  2  0  0  0
 30 31  1  0  0  0
 31 32  2  0  0  0
 32 33  1  0  0  0
 33 34  2  0  0  0
 33 35  1  0  0  0
 35 37  1  0  0  0
 37 38  2  0  0  0
 38 39  1  0  0  0
 39 40  2  0  0  0
 40 41  1  0  0  0
 41 42  2  0  0  0
  6  7  2  0  0  0
 12 13  2  0  0  0
 13 14  1  0  0  0
 14 15  2  0  0  0
 15 16  1  0  0  0
 16 17  1  0  0  0
 17 18  1  0  0  0
 18 19  1  0  0  0
 19 20  1  0  0  0
 19 21  1  0  0  0
 21 22  1  0  0  0
 15 10  1  0  0  0
 22 16  1  0  0  0
  7  1  1  0  0  0
 32 27  1  0  0  0
 42 37  1  0  0  0
  8  9  1  0  0  0
 25 26  1  0  0  0
 35 36  1  0  0  0
M  END
> <minimizedAffinity>
-8.04682

> <CNNscore>
0.1389528364

> <CNNaffinity>
6.9887948036

> <CNN_VS>
0.9711128473

> <CNNaffinity_variance>
0.1694327891

$$$$
[H]c1nc(N([H])c2c([H])c([H])c(N3C([H])([H])C([H])([H])N(C([H])([H])[H])C([H])([H])C3([H])[H])c(OC([H])([H])[H])c2[H])nc(N([H])c2c([H])c([H])c([H])c([H])c2C(=O)N([H])c2c([H])c([H])c([H])c([H])c2[H])c1Cl


 42 46  0  0  0  0  0  0  0  0999 V2000
   10.5632   22.4250    1.7412 C   0  0  0  0  0  0  0  0  0  0  0  0
   10.0314   21.4005    1.0164 N   0  0  0  0  0  0  0  0  0  0  0  0
    8.7420   21.0933    1.1194 C   0  0  0  0  0  0  0  0  0  0  0  0
    7.9604   21.8316    1.9724 C   0  0  0  0  0  0  0  0  0  0  0  0
    6.2431   21.4454    2.1524 Cl  0  0  0  0  0  0  0  0  0  0  0  0
    8.5071   22.8878    2.7193 C   0  0  0  0  0  0  0  0  0  0  0  0
    9.8094   23.1474    2.5699 N   0  0  0  0  0  0  0  0  0  0  0  0
   11.9767   22.6639    1.6725 N   0  0  0  0  0  0  0  0  0  0  0  0
   12.5758   22.3691    2.4569 H   0  0  0  0  0  0  0  0  0  0  0  0
   14.3423   24.3558   -0.6711 C   0  0  0  0  0  0  0  0  0  0  0  0
   13.8313   23.7496    0.4820 C   0  0  0  0  0  0  0  0  0  0  0  0
   12.5369   23.3000    0.5313 C   0  0  0  0  0  0  0  0  0  0  0  0
   11.7654   23.4626   -0.5857 C   0  0  0  0  0  0  0  0  0  0  0  0
   12.2735   24.0659   -1.7315 C   0  0  0  0  0  0  0  0  0  0  0  0
   13.5859   24.5273   -1.7868 C   0  0  0  0  0  0  0  0  0  0  0  0
   13.9958   25.1770   -2.9874 N   0  0  0  0  0  0  0  0  0  0  0  0
   14.9075   24.4442   -3.8515 C   0  0  0  0  0  0  0  0  0  0  0  0
   15.4245   25.1934   -5.0128 C   0  0  0  0  0  0  0  0  0  0  0  0
   15.0026   26.5391   -5.1698 N   0  0  0  0  0  0  0  0  0  0  0  0
   15.9609   27.5099   -4.7669 C   0  0  0  0  0  0  0  0  0  0  0  0
   13.6457   26.7558   -4.8179 C   0  0  0  0  0  0  0  0  0  0  0  0
   13.4888   26.4733   -3.3082 C   0  0  0  0  0  0  0  0  0  0  0  0
   16.5389   24.4680    0.4161 C   0  0  0  0  0  0  0  0  0  0  0  0
   15.6423   24.7718   -0.6365 O   0  0  0  0  0  0  0  0  0  0  0  0
    7.6199   23.5586    3.6030 N   0  0  0  0  0  0  0  0  0  0  0  0
    6.6097   23.7049    3.2611 H   0  0  0  0  0  0  0  0  0  0  0  0
    7.8834   23.9627    4.9079 C   0  0  0  0  0  0  0  0  0  0  0  0
    7.8474   23.0623    5.9746 C   0  0  0  0  0  0  0  0  0  0  0  0
    7.9295   23.5031    7.2918 C   0  0  0  0  0  0  0  0  0  0  0  0
    8.0469   24.8366    7.5686 C   0  0  0  0  0  0  0  0  0  0  0  0
    8.0830   25.7062    6.5035 C   0  0  0  0  0  0  0  0  0  0  0  0
    8.0096   25.3226    5.1867 C   0  0  0  0  0  0  0  0  0  0  0  0
    8.2470   26.2971    4.0977 C   0  0  0  0  0  0  0  0  0  0  0  0
    9.4598   26.2932    3.6636 O   0  0  0  0  0  0  0  0  0  0  0  0
    7.3009   27.1050    3.5803 N   0  0  0  0  0  0  0  0  0  0  0  0
    8.2364   27.7843    2.8084 H   0  0  0  0  0  0  0  0  0  0  0  0
    6.3529   27.9155    3.0609 C   0  0  0  0  0  0  0  0  0  0  0  0
    6.7080   29.0932    2.3696 C   0  0  0  0  0  0  0  0  0  0  0  0
    5.7475   29.9318    1.9256 C   0  0  0  0  0  0  0  0  0  0  0  0
    4.4037   29.7235    2.0966 C   0  0  0  0  0  0  0  0  0  0  0  0
    4.0186   28.5862    2.7642 C   0  0  0  0  0  0  0  0  0  0  0  0
    4.9722   27.7192    3.2254 C   0  0  0  0  0  0  0  0  0  0  0  0
 23 24  1  0  0  0
 24 10  1  0  0  0
 10 11  2  0  0  0
 11 12  1  0  0  0
 12  8  1  0  0  0
  8  1  1  0  0  0
  1  2  2  0  0  0
  2  3  1  0  0  0
  3  4  2  0  0  0
  4  5  1  0  0  0
  4  6  1  0  0  0
  6 25  1  0  0  0
 25 27  1  0  0  0
 27 28  2  0  0  0
 28 29  1  0  0  0
 29 30  2  0  0  0
 30 31  1  0  0  0
 31 32  2  0  0  0
 32 33  1  0  0  0
 33 34  2  0  0  0
 33 35  1  0  0  0
 35 37  1  0  0  0
 37 38  2  0  0  0
 38 39  1  0  0  0
 39 40  2  0  0  0
 40 41  1  0  0  0
 41 42  2  0  0  0
  6  7  2  0  0  0
 12 13  2  0  0  0
 13 14  1  0  0  0
 14 15  2  0  0  0
 15 16  1  0  0  0
 16 17  1  0  0  0
 17 18  1  0  0  0
 18 19  1  0  0  0
 19 20  1  0  0  0
 19 21  1  0  0  0
 21 22  1  0  0  0
 15 10  1  0  0  0
 22 16  1  0  0  0
  7  1  1  0  0  0
 32 27  1  0  0  0
 42 37  1  0  0  0
  8  9  1  0  0  0
 25 26  1  0  0  0
 35 36  1  0  0  0
M  END
> <minimizedAffinity>
-8.76039

> <CNNscore>
0.1307662576

> <CNNaffinity>
7.1585607529

> <CNN_VS>
0.9360982180

> <CNNaffinity_variance>
0.2953688502

$$$$
[H]c1nc(N([H])c2c([H])c([H])c(N3C([H])([H])C([H])([H])N(C([H])([H])[H])C([H])([H])C3([H])[H])c(OC([H])([H])[H])c2[H])nc(N([H])c2c([H])c([H])c([H])c([H])c2C(=O)N([H])c2c([H])c([H])c([H])c([H])c2[H])c1Cl


 42 46  0  0  0  0  0  0  0  0999 V2000
    9.0893   21.3028   -0.3786 C   0  0  0  0  0  0  0  0  0  0  0  0
    9.6373   20.0950   -0.0645 N   0  0  0  0  0  0  0  0  0  0  0  0
   10.9241   19.8526   -0.2944 C   0  0  0  0  0  0  0  0  0  0  0  0
   11.6863   20.8464   -0.8554 C   0  0  0  0  0  0  0  0  0  0  0  0
   13.3992   20.5599   -1.1938 Cl  0  0  0  0  0  0  0  0  0  0  0  0
   11.1230   22.0915   -1.1789 C   0  0  0  0  0  0  0  0  0  0  0  0
    9.8243   22.2731   -0.9217 N   0  0  0  0  0  0  0  0  0  0  0  0
    7.6777   21.4921   -0.2019 N   0  0  0  0  0  0  0  0  0  0  0  0
    7.1669   22.1063   -0.8521 H   0  0  0  0  0  0  0  0  0  0  0  0
    5.5161   19.1517    1.7478 C   0  0  0  0  0  0  0  0  0  0  0  0
    6.1497   19.7759    0.6675 C   0  0  0  0  0  0  0  0  0  0  0  0
    6.9985   20.8354    0.8602 C   0  0  0  0  0  0  0  0  0  0  0  0
    7.2050   21.2578    2.1442 C   0  0  0  0  0  0  0  0  0  0  0  0
    6.5744   20.6376    3.2176 C   0  0  0  0  0  0  0  0  0  0  0  0
    5.7091   19.5634    3.0283 C   0  0  0  0  0  0  0  0  0  0  0  0
    5.0727   19.0301    4.1867 N   0  0  0  0  0  0  0  0  0  0  0  0
    3.9151   19.7521    4.6904 C   0  0  0  0  0  0  0  0  0  0  0  0
    3.3636   19.2595    5.9672 C   0  0  0  0  0  0  0  0  0  0  0  0
    4.0092   18.1552    6.5815 N   0  0  0  0  0  0  0  0  0  0  0  0
    4.8571   18.4974    7.6710 C   0  0  0  0  0  0  0  0  0  0  0  0
    4.4681   17.1787    5.6608 C   0  0  0  0  0  0  0  0  0  0  0  0
    5.5582   17.8239    4.7782 C   0  0  0  0  0  0  0  0  0  0  0  0
    4.1744   17.8270    0.1779 C   0  0  0  0  0  0  0  0  0  0  0  0
    4.6894   18.1019    1.4676 O   0  0  0  0  0  0  0  0  0  0  0  0
   11.9902   23.0336   -1.7943 N   0  0  0  0  0  0  0  0  0  0  0  0
   11.7094   23.3890   -2.7708 H   0  0  0  0  0  0  0  0  0  0  0  0
   13.1162   23.6273   -1.2330 C   0  0  0  0  0  0  0  0  0  0  0  0
   14.2771   23.8453   -1.9777 C   0  0  0  0  0  0  0  0  0  0  0  0
   15.4546   24.2674   -1.3683 C   0  0  0  0  0  0  0  0  0  0  0  0
   15.4977   24.4774   -0.0183 C   0  0  0  0  0  0  0  0  0  0  0  0
   14.3427   24.2594    0.6962 C   0  0  0  0  0  0  0  0  0  0  0  0
   13.1551   23.8469    0.1430 C   0  0  0  0  0  0  0  0  0  0  0  0
   11.9122   23.8194    0.9468 C   0  0  0  0  0  0  0  0  0  0  0  0
   11.0936   24.7703    0.6549 O   0  0  0  0  0  0  0  0  0  0  0  0
   11.6318   22.8915    1.8826 N   0  0  0  0  0  0  0  0  0  0  0  0
   10.4885   23.5731    2.2834 H   0  0  0  0  0  0  0  0  0  0  0  0
   11.3498   21.9614    2.8211 C   0  0  0  0  0  0  0  0  0  0  0  0
   12.0080   20.7133    2.8228 C   0  0  0  0  0  0  0  0  0  0  0  0
   11.6583   19.7662    3.7194 C   0  0  0  0  0  0  0  0  0  0  0  0
   10.6796   19.9251    4.6657 C   0  0  0  0  0  0  0  0  0  0  0  0
   10.0168   21.1280    4.6961 C   0  0  0  0  0  0  0  0  0  0  0  0
   10.3513   22.1054    3.7979 C   0  0  0  0  0  0  0  0  0  0  0  0
 23 24  1  0  0  0
 24 10  1  0  0  0
 10 11  2  0  0  0
 11 12  1  0  0  0
 12  8  1  0  0  0
  8  1  1  0  0  0
  1  2  2  0  0  0
  2  3  1  0  0  0
  3  4  2  0  0  0
  4  5  1  0  0  0
  4  6  1  0  0  0
  6 25  1  0  0  0
 25 27  1  0  0  0
 27 28  2  0  0  0
 28 29  1  0  0  0
 29 30  2  0  0  0
 30 31  1  0  0  0
 31 32  2  0  0  0
 32 33  1  0  0  0
 33 34  2  0  0  0
 33 35  1  0  0  0
 35 37  1  0  0  0
 37 38  2  0  0  0
 38 39  1  0  0  0
 39 40  2  0  0  0
 40 41  1  0  0  0
 41 42  2  0  0  0
  6  7  2  0  0  0
 12 13  2  0  0  0
 13 14  1  0  0  0
 14 15  2  0  0  0
 15 16  1  0  0  0
 16 17  1  0  0  0
 17 18  1  0  0  0
 18 19  1  0  0  0
 19 20  1  0  0  0
 19 21  1  0  0  0
 21 22  1  0  0  0
 15 10  1  0  0  0
 22 16  1  0  0  0
  7  1  1  0  0  0
 32 27  1  0  0  0
 42 37  1  0  0  0
  8  9  1  0  0  0
 25 26  1  0  0  0
 35 36  1  0  0  0
M  END
> <minimizedAffinity>
-7.51344

> <CNNscore>
0.0831397474

> <CNNaffinity>
6.4572610855

> <CNN_VS>
0.5368550420

> <CNNaffinity_variance>
1.0297176838

$$$$
[H]c1nc(N([H])c2c([H])c([H])c(N3C([H])([H])C([H])([H])N(C([H])([H])[H])C([H])([H])C3([H])[H])c(OC([H])([H])[H])c2[H])nc(N([H])c2c([H])c([H])c([H])c([H])c2C(=O)N([H])c2c([H])c([H])c([H])c([H])c2[H])c1Cl


 42 46  0  0  0  0  0  0  0  0999 V2000
    9.4402   21.4667   -0.2251 C   0  0  0  0  0  0  0  0  0  0  0  0
    9.9544   20.2079   -0.1318 N   0  0  0  0  0  0  0  0  0  0  0  0
   11.1871   19.9447   -0.5543 C   0  0  0  0  0  0  0  0  0  0  0  0
   11.9284   20.9697   -1.0865 C   0  0  0  0  0  0  0  0  0  0  0  0
   13.5673   20.6591   -1.6766 Cl  0  0  0  0  0  0  0  0  0  0  0  0
   11.4000   22.2673   -1.1827 C   0  0  0  0  0  0  0  0  0  0  0  0
   10.1555   22.4673   -0.7390 N   0  0  0  0  0  0  0  0  0  0  0  0
    8.0743   21.6891    0.1550 N   0  0  0  0  0  0  0  0  0  0  0  0
    7.3196   21.3077   -0.4333 H   0  0  0  0  0  0  0  0  0  0  0  0
    6.8042   22.6707    3.5276 C   0  0  0  0  0  0  0  0  0  0  0  0
    7.0614   21.9087    2.3824 C   0  0  0  0  0  0  0  0  0  0  0  0
    7.7736   22.4275    1.3319 C   0  0  0  0  0  0  0  0  0  0  0  0
    8.2250   23.7132    1.4444 C   0  0  0  0  0  0  0  0  0  0  0  0
    7.9686   24.4705    2.5825 C   0  0  0  0  0  0  0  0  0  0  0  0
    7.2434   23.9507    3.6512 C   0  0  0  0  0  0  0  0  0  0  0  0
    6.9898   24.8229    4.7495 N   0  0  0  0  0  0  0  0  0  0  0  0
    7.9012   24.7371    5.8795 C   0  0  0  0  0  0  0  0  0  0  0  0
    7.5341   25.5475    7.0566 C   0  0  0  0  0  0  0  0  0  0  0  0
    6.3408   26.3120    6.9841 N   0  0  0  0  0  0  0  0  0  0  0  0
    5.2323   25.7441    7.6707 C   0  0  0  0  0  0  0  0  0  0  0  0
    6.1105   26.8898    5.7092 C   0  0  0  0  0  0  0  0  0  0  0  0
    5.9014   25.7463    4.6932 C   0  0  0  0  0  0  0  0  0  0  0  0
    6.6128   21.0733    5.3800 C   0  0  0  0  0  0  0  0  0  0  0  0
    6.0905   22.0762    4.5283 O   0  0  0  0  0  0  0  0  0  0  0  0
   12.2356   23.2436   -1.7883 N   0  0  0  0  0  0  0  0  0  0  0  0
   11.9264   23.6225   -2.7473 H   0  0  0  0  0  0  0  0  0  0  0  0
   13.3629   23.8417   -1.2343 C   0  0  0  0  0  0  0  0  0  0  0  0
   14.5045   24.0990   -1.9962 C   0  0  0  0  0  0  0  0  0  0  0  0
   15.6871   24.5252   -1.3997 C   0  0  0  0  0  0  0  0  0  0  0  0
   15.7545   24.7005   -0.0457 C   0  0  0  0  0  0  0  0  0  0  0  0
   14.6183   24.4439    0.6859 C   0  0  0  0  0  0  0  0  0  0  0  0
   13.4266   24.0257    0.1460 C   0  0  0  0  0  0  0  0  0  0  0  0
   12.2011   23.9558    0.9737 C   0  0  0  0  0  0  0  0  0  0  0  0
   11.4081   24.9557    0.7983 O   0  0  0  0  0  0  0  0  0  0  0  0
   11.9107   22.9477    1.8192 N   0  0  0  0  0  0  0  0  0  0  0  0
   10.7994   23.6204    2.3141 H   0  0  0  0  0  0  0  0  0  0  0  0
   11.6187   21.9373    2.6673 C   0  0  0  0  0  0  0  0  0  0  0  0
   12.2848   20.6971    2.5708 C   0  0  0  0  0  0  0  0  0  0  0  0
   11.9260   19.6732    3.3745 C   0  0  0  0  0  0  0  0  0  0  0  0
   10.9302   19.7433    4.3136 C   0  0  0  0  0  0  0  0  0  0  0  0
   10.2593   20.9357    4.4380 C   0  0  0  0  0  0  0  0  0  0  0  0
   10.6028   21.9899    3.6352 C   0  0  0  0  0  0  0  0  0  0  0  0
 23 24  1  0  0  0
 24 10  1  0  0  0
 10 11  2  0  0  0
 11 12  1  0  0  0
 12  8  1  0  0  0
  8  1  1  0  0  0
  1  2  2  0  0  0
  2  3  1  0  0  0
  3  4  2  0  0  0
  4  5  1  0  0  0
  4  6  1  0  0  0
  6 25  1  0  0  0
 25 27  1  0  0  0
 27 28  2  0  0  0
 28 29  1  0  0  0
 29 30  2  0  0  0
 30 31  1  0  0  0
 31 32  2  0  0  0
 32 33  1  0  0  0
 33 34  2  0  0  0
 33 35  1  0  0  0
 35 37  1  0  0  0
 37 38  2  0  0  0
 38 39  1  0  0  0
 39 40  2  0  0  0
 40 41  1  0  0  0
 41 42  2  0  0  0
  6  7  2  0  0  0
 12 13  2  0  0  0
 13 14  1  0  0  0
 14 15  2  0  0  0
 15 16  1  0  0  0
 16 17  1  0  0  0
 17 18  1  0  0  0
 18 19  1  0  0  0
 19 20  1  0  0  0
 19 21  1  0  0  0
 21 22  1  0  0  0
 15 10  1  0  0  0
 22 16  1  0  0  0
  7  1  1  0  0  0
 32 27  1  0  0  0
 42 37  1  0  0  0
  8  9  1  0  0  0
 25 26  1  0  0  0
 35 36  1  0  0  0
M  END
> <minimizedAffinity>
-8.32312

> <CNNscore>
0.0691186264

> <CNNaffinity>
6.5081763268

> <CNN_VS>
0.4498361945

> <CNNaffinity_variance>
1.1655440331

$$$$
[H]c1nc(N([H])c2c([H])c([H])c(N3C([H])([H])C([H])([H])N(C([H])([H])[H])C([H])([H])C3([H])[H])c(OC([H])([H])[H])c2[H])nc(N([H])c2c([H])c([H])c([H])c([H])c2C(=O)N([H])c2c([H])c([H])c([H])c([H])c2[H])c1Cl


 42 46  0  0  0  0  0  0  0  0999 V2000
    9.4959   22.5895    1.7053 C   0  0  0  0  0  0  0  0  0  0  0  0
    9.0920   22.0977    0.5000 N   0  0  0  0  0  0  0  0  0  0  0  0
    7.8816   21.5678    0.3538 C   0  0  0  0  0  0  0  0  0  0  0  0
    7.0496   21.5275    1.4445 C   0  0  0  0  0  0  0  0  0  0  0  0
    5.4366   20.8153    1.2978 Cl  0  0  0  0  0  0  0  0  0  0  0  0
    7.4643   22.0345    2.6868 C   0  0  0  0  0  0  0  0  0  0  0  0
    8.6922   22.5556    2.7682 N   0  0  0  0  0  0  0  0  0  0  0  0
   10.8421   23.0670    1.8448 N   0  0  0  0  0  0  0  0  0  0  0  0
   11.2680   23.1053    2.7819 H   0  0  0  0  0  0  0  0  0  0  0  0
   12.9801   23.0667   -1.2178 C   0  0  0  0  0  0  0  0  0  0  0  0
   12.2882   22.6139   -0.0889 C   0  0  0  0  0  0  0  0  0  0  0  0
   11.5738   23.4801    0.6983 C   0  0  0  0  0  0  0  0  0  0  0  0
   11.5597   24.7994    0.3395 C   0  0  0  0  0  0  0  0  0  0  0  0
   12.2482   25.2490   -0.7823 C   0  0  0  0  0  0  0  0  0  0  0  0
   12.9779   24.3753   -1.5838 C   0  0  0  0  0  0  0  0  0  0  0  0
   13.6904   24.9415   -2.6806 N   0  0  0  0  0  0  0  0  0  0  0  0
   14.7629   24.1410   -3.2498 C   0  0  0  0  0  0  0  0  0  0  0  0
   15.5726   24.8072   -4.2878 C   0  0  0  0  0  0  0  0  0  0  0  0
   15.2448   26.1473   -4.6201 N   0  0  0  0  0  0  0  0  0  0  0  0
   16.1050   27.1254   -4.0487 C   0  0  0  0  0  0  0  0  0  0  0  0
   13.8506   26.4082   -4.6273 C   0  0  0  0  0  0  0  0  0  0  0  0
   13.3189   26.2235   -3.1896 C   0  0  0  0  0  0  0  0  0  0  0  0
   14.1652   20.9271   -1.4112 C   0  0  0  0  0  0  0  0  0  0  0  0
   13.6635   22.1372   -1.9480 O   0  0  0  0  0  0  0  0  0  0  0  0
    6.5417   21.9042    3.7591 N   0  0  0  0  0  0  0  0  0  0  0  0
    5.7400   21.1977    3.6292 H   0  0  0  0  0  0  0  0  0  0  0  0
    6.6138   22.5177    5.0057 C   0  0  0  0  0  0  0  0  0  0  0  0
    7.3484   23.6885    5.2043 C   0  0  0  0  0  0  0  0  0  0  0  0
    7.5672   24.1929    6.4825 C   0  0  0  0  0  0  0  0  0  0  0  0
    7.0639   23.5463    7.5766 C   0  0  0  0  0  0  0  0  0  0  0  0
    6.3411   22.3964    7.3587 C   0  0  0  0  0  0  0  0  0  0  0  0
    6.0936   21.8595    6.1190 C   0  0  0  0  0  0  0  0  0  0  0  0
    5.1503   20.7304    5.9552 C   0  0  0  0  0  0  0  0  0  0  0  0
    3.9165   21.0690    6.1063 O   0  0  0  0  0  0  0  0  0  0  0  0
    5.5181   19.4687    5.6578 N   0  0  0  0  0  0  0  0  0  0  0  0
    4.2216   18.9992    5.8338 H   0  0  0  0  0  0  0  0  0  0  0  0
    5.8861   18.2034    5.3596 C   0  0  0  0  0  0  0  0  0  0  0  0
    5.4003   17.5635    4.1997 C   0  0  0  0  0  0  0  0  0  0  0  0
    5.7153   16.2730    3.9577 C   0  0  0  0  0  0  0  0  0  0  0  0
    6.5000   15.5047    4.7778 C   0  0  0  0  0  0  0  0  0  0  0  0
    6.9930   16.0936    5.9169 C   0  0  0  0  0  0  0  0  0  0  0  0
    6.6886   17.4007    6.1864 C   0  0  0  0  0  0  0  0  0  0  0  0
 23 24  1  0  0  0
 24 10  1  0  0  0
 10 11  2  0  0  0
 11 12  1  0  0  0
 12  8  1  0  0  0
  8  1  1  0  0  0
  1  2  2  0  0  0
  2  3  1  0  0  0
  3  4  2  0  0  0
  4  5  1  0  0  0
  4  6  1  0  0  0
  6 25  1  0  0  0
 25 27  1  0  0  0
 27 28  2  0  0  0
 28 29  1  0  0  0
 29 30  2  0  0  0
 30 31  1  0  0  0
 31 32  2  0  0  0
 32 33  1  0  0  0
 33 34  2  0  0  0
 33 35  1  0  0  0
 35 37  1  0  0  0
 37 38  2  0  0  0
 38 39  1  0  0  0
 39 40  2  0  0  0
 40 41  1  0  0  0
 41 42  2  0  0  0
  6  7  2  0  0  0
 12 13  2  0  0  0
 13 14  1  0  0  0
 14 15  2  0  0  0
 15 16  1  0  0  0
 16 17  1  0  0  0
 17 18  1  0  0  0
 18 19  1  0  0  0
 19 20  1  0  0  0
 19 21  1  0  0  0
 21 22  1  0  0  0
 15 10  1  0  0  0
 22 16  1  0  0  0
  7  1  1  0  0  0
 32 27  1  0  0  0
 42 37  1  0  0  0
  8  9  1  0  0  0
 25 26  1  0  0  0
 35 36  1  0  0  0
M  END
> <minimizedAffinity>
-8.13957

> <CNNscore>
0.0574969500

> <CNNaffinity>
6.6285667419

> <CNN_VS>
0.3811223805

> <CNNaffinity_variance>
0.1228725314

$$$$
[H]c1nc(N([H])c2c([H])c([H])c(N3C([H])([H])C([H])([H])N(C([H])([H])[H])C([H])([H])C3([H])[H])c(OC([H])([H])[H])c2[H])nc(N([H])c2c([H])c([H])c([H])c([H])c2C(=O)N([H])c2c([H])c([H])c([H])c([H])c2[H])c1Cl


 42 46  0  0  0  0  0  0  0  0999 V2000
    9.4990   22.2049    5.5594 C   0  0  0  0  0  0  0  0  0  0  0  0
    9.8400   20.9753    6.0385 N   0  0  0  0  0  0  0  0  0  0  0  0
   10.6143   20.1605    5.3285 C   0  0  0  0  0  0  0  0  0  0  0  0
   11.0610   20.5867    4.1028 C   0  0  0  0  0  0  0  0  0  0  0  0
   12.0796   19.5270    3.1178 Cl  0  0  0  0  0  0  0  0  0  0  0  0
   10.7109   21.8537    3.6083 C   0  0  0  0  0  0  0  0  0  0  0  0
    9.9312   22.6260    4.3708 N   0  0  0  0  0  0  0  0  0  0  0  0
    8.5861   23.0155    6.3138 N   0  0  0  0  0  0  0  0  0  0  0  0
    8.3575   22.7483    7.2820 H   0  0  0  0  0  0  0  0  0  0  0  0
    6.8371   26.2800    5.8285 C   0  0  0  0  0  0  0  0  0  0  0  0
    7.3768   25.1496    6.4524 C   0  0  0  0  0  0  0  0  0  0  0  0
    8.0082   24.1733    5.7254 C   0  0  0  0  0  0  0  0  0  0  0  0
    8.0934   24.3450    4.3716 C   0  0  0  0  0  0  0  0  0  0  0  0
    7.5562   25.4683    3.7519 C   0  0  0  0  0  0  0  0  0  0  0  0
    6.9112   26.4615    4.4839 C   0  0  0  0  0  0  0  0  0  0  0  0
    6.3495   27.5473    3.7511 N   0  0  0  0  0  0  0  0  0  0  0  0
    4.8993   27.5906    3.6506 C   0  0  0  0  0  0  0  0  0  0  0  0
    4.3531   28.6419    2.7712 C   0  0  0  0  0  0  0  0  0  0  0  0
    5.2762   29.4903    2.1065 N   0  0  0  0  0  0  0  0  0  0  0  0
    5.4897   29.1733    0.7365 C   0  0  0  0  0  0  0  0  0  0  0  0
    6.4042   29.8342    2.8948 C   0  0  0  0  0  0  0  0  0  0  0  0
    7.2012   28.5438    3.1836 C   0  0  0  0  0  0  0  0  0  0  0  0
    5.3355   26.8760    7.6750 C   0  0  0  0  0  0  0  0  0  0  0  0
    6.2283   27.2052    6.6269 O   0  0  0  0  0  0  0  0  0  0  0  0
   11.1916   22.1778    2.3115 N   0  0  0  0  0  0  0  0  0  0  0  0
   12.1455   22.6735    2.2552 H   0  0  0  0  0  0  0  0  0  0  0  0
   10.6122   21.8367    1.0935 C   0  0  0  0  0  0  0  0  0  0  0  0
    9.3142   21.3277    1.0172 C   0  0  0  0  0  0  0  0  0  0  0  0
    8.8095   20.8187   -0.1754 C   0  0  0  0  0  0  0  0  0  0  0  0
    9.5814   20.8064   -1.3035 C   0  0  0  0  0  0  0  0  0  0  0  0
   10.8559   21.3147   -1.2073 C   0  0  0  0  0  0  0  0  0  0  0  0
   11.3996   21.8316   -0.0568 C   0  0  0  0  0  0  0  0  0  0  0  0
   12.7041   22.5312   -0.0812 C   0  0  0  0  0  0  0  0  0  0  0  0
   13.4800   22.2001    0.8924 O   0  0  0  0  0  0  0  0  0  0  0  0
   13.0754   23.4157   -1.0274 N   0  0  0  0  0  0  0  0  0  0  0  0
   14.2357   23.7412   -0.3346 H   0  0  0  0  0  0  0  0  0  0  0  0
   13.4484   24.3026   -1.9758 C   0  0  0  0  0  0  0  0  0  0  0  0
   12.6911   25.4694   -2.2126 C   0  0  0  0  0  0  0  0  0  0  0  0
   13.0335   26.3051   -3.2162 C   0  0  0  0  0  0  0  0  0  0  0  0
   14.0988   26.1058   -4.0552 C   0  0  0  0  0  0  0  0  0  0  0  0
   14.8612   24.9806   -3.8550 C   0  0  0  0  0  0  0  0  0  0  0  0
   14.5357   24.1163   -2.8447 C   0  0  0  0  0  0  0  0  0  0  0  0
 23 24  1  0  0  0
 24 10  1  0  0  0
 10 11  2  0  0  0
 11 12  1  0  0  0
 12  8  1  0  0  0
  8  1  1  0  0  0
  1  2  2  0  0  0
  2  3  1  0  0  0
  3  4  2  0  0  0
  4  5  1  0  0  0
  4  6  1  0  0  0
  6 25  1  0  0  0
 25 27  1  0  0  0
 27 28  2  0  0  0
 28 29  1  0  0  0
 29 30  2  0  0  0
 30 31  1  0  0  0
 31 32  2  0  0  0
 32 33  1  0  0  0
 33 34  2  0  0  0
 33 35  1  0  0  0
 35 37  1  0  0  0
 37 38  2  0  0  0
 38 39  1  0  0  0
 39 40  2  0  0  0
 40 41  1  0  0  0
 41 42  2  0  0  0
  6  7  2  0  0  0
 12 13  2  0  0  0
 13 14  1  0  0  0
 14 15  2  0  0  0
 15 16  1  0  0  0
 16 17  1  0  0  0
 17 18  1  0  0  0
 18 19  1  0  0  0
 19 20  1  0  0  0
 19 21  1  0  0  0
 21 22  1  0  0  0
 15 10  1  0  0  0
 22 16  1  0  0  0
  7  1  1  0  0  0
 32 27  1  0  0  0
 42 37  1  0  0  0
  8  9  1  0  0  0
 25 26  1  0  0  0
 35 36  1  0  0  0
M  END
> <minimizedAffinity>
-9.82469

> <CNNscore>
0.0564510785

> <CNNaffinity>
6.4423613548

> <CNN_VS>
0.3636782467

> <CNNaffinity_variance>
0.4989895225

$$$$
[H]c1c([H])c(C2([H])C([H])([H])C([H])([H])N(C(=O)c3c([H])c([H])c(C(F)(F)F)c([H])c3[H])C([H])([H])C2([H])[H])c([H])c([H])c1C#N


 26 28  0  0  0  0  0  0  0  0999 V2000
   12.8855   27.2004   -3.9997 C   0  0  0  0  0  0  0  0  0  0  0  0
   14.0628   27.5538   -4.4972 O   0  0  0  0  0  0  0  0  0  0  0  0
   12.8371   25.9881   -3.3174 N   0  0  0  0  0  0  0  0  0  0  0  0
   14.1418   25.2527   -3.2603 C   0  0  0  0  0  0  0  0  0  0  0  0
   14.4846   25.2689   -1.7790 C   0  0  0  0  0  0  0  0  0  0  0  0
   13.4425   24.4462   -1.0083 C   0  0  0  0  0  0  0  0  0  0  0  0
   12.3048   24.0746   -1.8868 C   0  0  0  0  0  0  0  0  0  0  0  0
   11.7908   25.3113   -2.6302 C   0  0  0  0  0  0  0  0  0  0  0  0
    9.7888   29.9807   -4.8562 C   0  0  0  0  0  0  0  0  0  0  0  0
    9.7771   28.6981   -5.3626 C   0  0  0  0  0  0  0  0  0  0  0  0
   10.7752   27.8145   -5.0830 C   0  0  0  0  0  0  0  0  0  0  0  0
   11.8658   28.1588   -4.2651 C   0  0  0  0  0  0  0  0  0  0  0  0
   11.8578   29.4233   -3.7772 C   0  0  0  0  0  0  0  0  0  0  0  0
   10.8366   30.3499   -4.0549 C   0  0  0  0  0  0  0  0  0  0  0  0
    7.9806   30.4928   -6.2376 F   0  0  0  0  0  0  0  0  0  0  0  0
    8.7045   30.9527   -5.1828 C   0  0  0  0  0  0  0  0  0  0  0  0
    9.2580   32.1911   -5.4904 F   0  0  0  0  0  0  0  0  0  0  0  0
    7.8828   31.1252   -4.1078 F   0  0  0  0  0  0  0  0  0  0  0  0
   14.1637   23.3325   -0.4134 C   0  0  0  0  0  0  0  0  0  0  0  0
   13.7814   22.0477   -0.8220 C   0  0  0  0  0  0  0  0  0  0  0  0
   14.3917   20.9171   -0.3328 C   0  0  0  0  0  0  0  0  0  0  0  0
   15.4192   21.0288    0.5945 C   0  0  0  0  0  0  0  0  0  0  0  0
   15.8108   22.2779    1.0102 C   0  0  0  0  0  0  0  0  0  0  0  0
   15.1836   23.4126    0.5062 C   0  0  0  0  0  0  0  0  0  0  0  0
   16.0880   19.8645    1.1298 C   0  0  0  0  0  0  0  0  0  0  0  0
   16.6048   18.9156    1.5717 N   0  0  0  0  0  0  0  0  0  0  0  0
 15 16  1  0  0  0
 16 17  1  0  0  0
 16 18  1  0  0  0
 16  9  1  0  0  0
  9 10  2  0  0  0
 10 11  1  0  0  0
 11 12  2  0  0  0
 12 13  1  0  0  0
 13 14  2  0  0  0
 12  1  1  0  0  0
  1  2  2  0  0  0
  1  3  1  0  0  0
  3  4  1  0  0  0
  4  5  1  0  0  0
  5  6  1  0  0  0
  6  7  1  0  0  0
  7  8  1  0  0  0
  6 19  1  0  0  0
 19 20  2  0  0  0
 20 21  1  0  0  0
 21 22  2  0  0  0
 22 23  1  0  0  0
 23 24  2  0  0  0
 22 25  1  0  0  0
 25 26  3  0  0  0
 14  9  1  0  0  0
  8  3  1  0  0  0
 24 19  1  0  0  0
M  END
> <minimizedAffinity>
20.24599

> <CNNscore>
0.4929511845

> <CNNaffinity>
6.1199483871

> <CNN_VS>
3.0168356895

> <CNNaffinity_variance>
0.9054773450

$$$$
[H]c1c([H])c(C2([H])C([H])([H])C([H])([H])N(C(=O)c3c([H])c([H])c(C(F)(F)F)c([H])c3[H])C([H])([H])C2([H])[H])c([H])c([H])c1C#N


 26 28  0  0  0  0  0  0  0  0999 V2000
   13.3373   24.4098   -0.9515 C   0  0  0  0  0  0  0  0  0  0  0  0
   14.1270   24.7683    0.0517 O   0  0  0  0  0  0  0  0  0  0  0  0
   12.2012   23.6782   -0.6180 N   0  0  0  0  0  0  0  0  0  0  0  0
   12.0503   23.3944    0.8459 C   0  0  0  0  0  0  0  0  0  0  0  0
   10.8011   24.1747    1.2237 C   0  0  0  0  0  0  0  0  0  0  0  0
    9.5893   23.5746    0.4970 C   0  0  0  0  0  0  0  0  0  0  0  0
   10.0183   22.5757   -0.5140 C   0  0  0  0  0  0  0  0  0  0  0  0
   11.1256   23.1631   -1.3944 C   0  0  0  0  0  0  0  0  0  0  0  0
   14.6833   25.8244   -4.7251 C   0  0  0  0  0  0  0  0  0  0  0  0
   13.6000   26.3843   -4.0813 C   0  0  0  0  0  0  0  0  0  0  0  0
   13.1756   25.9229   -2.8721 C   0  0  0  0  0  0  0  0  0  0  0  0
   13.8166   24.8572   -2.2160 C   0  0  0  0  0  0  0  0  0  0  0  0
   14.8791   24.3217   -2.8653 C   0  0  0  0  0  0  0  0  0  0  0  0
   15.3319   24.7841   -4.1141 C   0  0  0  0  0  0  0  0  0  0  0  0
   15.6212   25.2819   -6.7906 F   0  0  0  0  0  0  0  0  0  0  0  0
   15.1316   26.3186   -6.0601 C   0  0  0  0  0  0  0  0  0  0  0  0
   16.1131   27.2907   -5.8980 F   0  0  0  0  0  0  0  0  0  0  0  0
   14.0898   26.8933   -6.7272 F   0  0  0  0  0  0  0  0  0  0  0  0
    8.7013   23.0740    1.5339 C   0  0  0  0  0  0  0  0  0  0  0  0
    7.8878   21.9855    1.1915 C   0  0  0  0  0  0  0  0  0  0  0  0
    7.0104   21.4226    2.0878 C   0  0  0  0  0  0  0  0  0  0  0  0
    6.9112   21.9323    3.3756 C   0  0  0  0  0  0  0  0  0  0  0  0
    7.6982   22.9994    3.7340 C   0  0  0  0  0  0  0  0  0  0  0  0
    8.5812   23.5582    2.8159 C   0  0  0  0  0  0  0  0  0  0  0  0
    6.0034   21.3663    4.3478 C   0  0  0  0  0  0  0  0  0  0  0  0
    5.2631   20.9337    5.1399 N   0  0  0  0  0  0  0  0  0  0  0  0
 15 16  1  0  0  0
 16 17  1  0  0  0
 16 18  1  0  0  0
 16  9  1  0  0  0
  9 10  2  0  0  0
 10 11  1  0  0  0
 11 12  2  0  0  0
 12 13  1  0  0  0
 13 14  2  0  0  0
 12  1  1  0  0  0
  1  2  2  0  0  0
  1  3  1  0  0  0
  3  4  1  0  0  0
  4  5  1  0  0  0
  5  6  1  0  0  0
  6  7  1  0  0  0
  7  8  1  0  0  0
  6 19  1  0  0  0
 19 20  2  0  0  0
 20 21  1  0  0  0
 21 22  2  0  0  0
 22 23  1  0  0  0
 23 24  2  0  0  0
 22 25  1  0  0  0
 25 26  3  0  0  0
 14  9  1  0  0  0
  8  3  1  0  0  0
 24 19  1  0  0  0
M  END
> <minimizedAffinity>
-9.38496

> <CNNscore>
0.4541818798

> <CNNaffinity>
6.2396645546

> <CNN_VS>
2.8339426517

> <CNNaffinity_variance>
0.0582379997

$$$$
[H]c1c([H])c(C2([H])C([H])([H])C([H])([H])N(C(=O)c3c([H])c([H])c(C(F)(F)F)c([H])c3[H])C([H])([H])C2([H])[H])c([H])c([H])c1C#N


 26 28  0  0  0  0  0  0  0  0999 V2000
   12.7064   26.4909   -2.9727 C   0  0  0  0  0  0  0  0  0  0  0  0
   14.0164   26.4835   -3.1788 O   0  0  0  0  0  0  0  0  0  0  0  0
   12.1754   25.3903   -2.3061 N   0  0  0  0  0  0  0  0  0  0  0  0
   13.1815   24.3452   -1.9291 C   0  0  0  0  0  0  0  0  0  0  0  0
   13.1707   24.3856   -0.4092 C   0  0  0  0  0  0  0  0  0  0  0  0
   11.7971   23.9272    0.1006 C   0  0  0  0  0  0  0  0  0  0  0  0
   10.8311   23.8001   -1.0195 C   0  0  0  0  0  0  0  0  0  0  0  0
   10.8567   25.0669   -1.8802 C   0  0  0  0  0  0  0  0  0  0  0  0
   10.7606   29.9104   -4.5767 C   0  0  0  0  0  0  0  0  0  0  0  0
   10.4726   28.6353   -5.0158 C   0  0  0  0  0  0  0  0  0  0  0  0
   11.1027   27.5455   -4.4958 C   0  0  0  0  0  0  0  0  0  0  0  0
   12.0750   27.6596   -3.4866 C   0  0  0  0  0  0  0  0  0  0  0  0
   12.3427   28.9210   -3.0690 C   0  0  0  0  0  0  0  0  0  0  0  0
   11.7030   30.0584   -3.5938 C   0  0  0  0  0  0  0  0  0  0  0  0
    9.9877   30.9570   -6.5126 F   0  0  0  0  0  0  0  0  0  0  0  0
   10.0837   31.1036   -5.1645 C   0  0  0  0  0  0  0  0  0  0  0  0
   10.8067   32.2528   -4.8619 F   0  0  0  0  0  0  0  0  0  0  0  0
    8.8362   31.2508   -4.6329 F   0  0  0  0  0  0  0  0  0  0  0  0
   12.0324   22.7129    0.8650 C   0  0  0  0  0  0  0  0  0  0  0  0
   11.1359   22.4447    1.9081 C   0  0  0  0  0  0  0  0  0  0  0  0
   11.2530   21.3259    2.6985 C   0  0  0  0  0  0  0  0  0  0  0  0
   12.2830   20.4220    2.4740 C   0  0  0  0  0  0  0  0  0  0  0  0
   13.1743   20.6642    1.4574 C   0  0  0  0  0  0  0  0  0  0  0  0
   13.0427   21.8007    0.6662 C   0  0  0  0  0  0  0  0  0  0  0  0
   12.4380   19.2327    3.2807 C   0  0  0  0  0  0  0  0  0  0  0  0
   12.5655   18.2875    3.9538 N   0  0  0  0  0  0  0  0  0  0  0  0
 15 16  1  0  0  0
 16 17  1  0  0  0
 16 18  1  0  0  0
 16  9  1  0  0  0
  9 10  2  0  0  0
 10 11  1  0  0  0
 11 12  2  0  0  0
 12 13  1  0  0  0
 13 14  2  0  0  0
 12  1  1  0  0  0
  1  2  2  0  0  0
  1  3  1  0  0  0
  3  4  1  0  0  0
  4  5  1  0  0  0
  5  6  1  0  0  0
  6  7  1  0  0  0
  7  8  1  0  0  0
  6 19  1  0  0  0
 19 20  2  0  0  0
 20 21  1  0  0  0
 21 22  2  0  0  0
 22 23  1  0  0  0
 23 24  2  0  0  0
 22 25  1  0  0  0
 25 26  3  0  0  0
 14  9  1  0  0  0
  8  3  1  0  0  0
 24 19  1  0  0  0
M  END
> <minimizedAffinity>
18.27434

> <CNNscore>
0.4339852631

> <CNNaffinity>
5.8291645050

> <CNN_VS>
2.5297715664

> <CNNaffinity_variance>
0.7640574574

$$$$
[H]c1c([H])c(C2([H])C([H])([H])C([H])([H])N(C(=O)c3c([H])c([H])c(C(F)(F)F)c([H])c3[H])C([H])([H])C2([H])[H])c([H])c([H])c1C#N


 26 28  0  0  0  0  0  0  0  0999 V2000
   11.0117   23.1178    0.2619 C   0  0  0  0  0  0  0  0  0  0  0  0
   11.0060   21.9249   -0.3174 O   0  0  0  0  0  0  0  0  0  0  0  0
   11.8729   24.0679   -0.2792 N   0  0  0  0  0  0  0  0  0  0  0  0
   12.6821   23.5838   -1.4442 C   0  0  0  0  0  0  0  0  0  0  0  0
   12.1617   24.4226   -2.6007 C   0  0  0  0  0  0  0  0  0  0  0  0
   12.5154   25.8965   -2.3576 C   0  0  0  0  0  0  0  0  0  0  0  0
   13.0492   26.0947   -0.9865 C   0  0  0  0  0  0  0  0  0  0  0  0
   12.1224   25.4326    0.0377 C   0  0  0  0  0  0  0  0  0  0  0  0
    8.2926   23.2531    3.5239 C   0  0  0  0  0  0  0  0  0  0  0  0
    8.5714   22.0794    2.8561 C   0  0  0  0  0  0  0  0  0  0  0  0
    9.4440   22.0466    1.8107 C   0  0  0  0  0  0  0  0  0  0  0  0
   10.1066   23.2013    1.3586 C   0  0  0  0  0  0  0  0  0  0  0  0
    9.8191   24.3438    2.0288 C   0  0  0  0  0  0  0  0  0  0  0  0
    8.9211   24.3976    3.1100 C   0  0  0  0  0  0  0  0  0  0  0  0
    7.4631   22.1725    5.4172 F   0  0  0  0  0  0  0  0  0  0  0  0
    7.3193   23.2888    4.6548 C   0  0  0  0  0  0  0  0  0  0  0  0
    6.0220   23.3613    4.1585 F   0  0  0  0  0  0  0  0  0  0  0  0
    7.5274   24.3955    5.4247 F   0  0  0  0  0  0  0  0  0  0  0  0
   13.4076   26.2835   -3.4386 C   0  0  0  0  0  0  0  0  0  0  0  0
   14.7815   26.2258   -3.1691 C   0  0  0  0  0  0  0  0  0  0  0  0
   15.7228   26.5636   -4.1125 C   0  0  0  0  0  0  0  0  0  0  0  0
   15.3219   26.9772   -5.3760 C   0  0  0  0  0  0  0  0  0  0  0  0
   13.9804   27.0420   -5.6631 C   0  0  0  0  0  0  0  0  0  0  0  0
   13.0399   26.6970   -4.6980 C   0  0  0  0  0  0  0  0  0  0  0  0
   16.2807   27.3375   -6.3960 C   0  0  0  0  0  0  0  0  0  0  0  0
   17.0455   27.6088   -7.2351 N   0  0  0  0  0  0  0  0  0  0  0  0
 15 16  1  0  0  0
 16 17  1  0  0  0
 16 18  1  0  0  0
 16  9  1  0  0  0
  9 10  2  0  0  0
 10 11  1  0  0  0
 11 12  2  0  0  0
 12 13  1  0  0  0
 13 14  2  0  0  0
 12  1  1  0  0  0
  1  2  2  0  0  0
  1  3  1  0  0  0
  3  4  1  0  0  0
  4  5  1  0  0  0
  5  6  1  0  0  0
  6  7  1  0  0  0
  7  8  1  0  0  0
  6 19  1  0  0  0
 19 20  2  0  0  0
 20 21  1  0  0  0
 21 22  2  0  0  0
 22 23  1  0  0  0
 23 24  2  0  0  0
 22 25  1  0  0  0
 25 26  3  0  0  0
 14  9  1  0  0  0
  8  3  1  0  0  0
 24 19  1  0  0  0
M  END
> <minimizedAffinity>
-3.06525

> <CNNscore>
0.3858799040

> <CNNaffinity>
5.9687948227

> <CNN_VS>
2.3032379150

> <CNNaffinity_variance>
0.3929176927

$$$$
[H]c1c([H])c(C2([H])C([H])([H])C([H])([H])N(C(=O)c3c([H])c([H])c(C(F)(F)F)c([H])c3[H])C([H])([H])C2([H])[H])c([H])c([H])c1C#N


 26 28  0  0  0  0  0  0  0  0999 V2000
   14.0710   23.6972    0.2805 C   0  0  0  0  0  0  0  0  0  0  0  0
   15.3050   23.4077    0.6706 O   0  0  0  0  0  0  0  0  0  0  0  0
   13.9467   24.6072   -0.7654 N   0  0  0  0  0  0  0  0  0  0  0  0
   15.2476   25.1363   -1.2890 C   0  0  0  0  0  0  0  0  0  0  0  0
   15.3009   24.5863   -2.7055 C   0  0  0  0  0  0  0  0  0  0  0  0
   14.1681   25.2086   -3.5340 C   0  0  0  0  0  0  0  0  0  0  0  0
   13.2361   25.9735   -2.6679 C   0  0  0  0  0  0  0  0  0  0  0  0
   12.8194   25.1215   -1.4652 C   0  0  0  0  0  0  0  0  0  0  0  0
   11.1861   21.5248    2.5189 C   0  0  0  0  0  0  0  0  0  0  0  0
   12.4256   20.9982    2.2223 C   0  0  0  0  0  0  0  0  0  0  0  0
   13.3432   21.7023    1.5031 C   0  0  0  0  0  0  0  0  0  0  0  0
   13.0796   22.9990    1.0276 C   0  0  0  0  0  0  0  0  0  0  0  0
   11.8563   23.4981    1.3305 C   0  0  0  0  0  0  0  0  0  0  0  0
   10.8957   22.7864    2.0714 C   0  0  0  0  0  0  0  0  0  0  0  0
    8.9499   20.8927    2.7196 F   0  0  0  0  0  0  0  0  0  0  0  0
   10.1754   20.7415    3.2884 C   0  0  0  0  0  0  0  0  0  0  0  0
   10.1439   21.1798    4.6081 F   0  0  0  0  0  0  0  0  0  0  0  0
   10.5106   19.4193    3.3023 F   0  0  0  0  0  0  0  0  0  0  0  0
   14.8109   25.9733   -4.5906 C   0  0  0  0  0  0  0  0  0  0  0  0
   14.8574   25.3765   -5.8576 C   0  0  0  0  0  0  0  0  0  0  0  0
   15.4357   26.0030   -6.9362 C   0  0  0  0  0  0  0  0  0  0  0  0
   15.9963   27.2647   -6.7876 C   0  0  0  0  0  0  0  0  0  0  0  0
   15.9630   27.8694   -5.5549 C   0  0  0  0  0  0  0  0  0  0  0  0
   15.3744   27.2227   -4.4730 C   0  0  0  0  0  0  0  0  0  0  0  0
   16.6104   27.9575   -7.8977 C   0  0  0  0  0  0  0  0  0  0  0  0
   17.0887   28.5366   -8.7913 N   0  0  0  0  0  0  0  0  0  0  0  0
 15 16  1  0  0  0
 16 17  1  0  0  0
 16 18  1  0  0  0
 16  9  1  0  0  0
  9 10  2  0  0  0
 10 11  1  0  0  0
 11 12  2  0  0  0
 12 13  1  0  0  0
 13 14  2  0  0  0
 12  1  1  0  0  0
  1  2  2  0  0  0
  1  3  1  0  0  0
  3  4  1  0  0  0
  4  5  1  0  0  0
  5  6  1  0  0  0
  6  7  1  0  0  0
  7  8  1  0  0  0
  6 19  1  0  0  0
 19 20  2  0  0  0
 20 21  1  0  0  0
 21 22  2  0  0  0
 22 23  1  0  0  0
 23 24  2  0  0  0
 22 25  1  0  0  0
 25 26  3  0  0  0
 14  9  1  0  0  0
  8  3  1  0  0  0
 24 19  1  0  0  0
M  END
> <minimizedAffinity>
-0.18193

> <CNNscore>
0.3459023833

> <CNNaffinity>
6.4182448387

> <CNN_VS>
2.2200860977

> <CNNaffinity_variance>
0.2255436182

$$$$
[H]c1c([H])c(C2([H])C([H])([H])C([H])([H])N(C(=O)c3c([H])c([H])c(C(F)(F)F)c([H])c3[H])C([H])([H])C2([H])[H])c([H])c([H])c1C#N


 26 28  0  0  0  0  0  0  0  0999 V2000
   11.8414   22.0627    1.8044 C   0  0  0  0  0  0  0  0  0  0  0  0
   12.8260   21.1853    1.9442 O   0  0  0  0  0  0  0  0  0  0  0  0
   12.0968   23.1589    0.9857 N   0  0  0  0  0  0  0  0  0  0  0  0
   13.4714   23.1840    0.3888 C   0  0  0  0  0  0  0  0  0  0  0  0
   13.2063   23.0230   -1.0997 C   0  0  0  0  0  0  0  0  0  0  0  0
   12.4432   24.2514   -1.6148 C   0  0  0  0  0  0  0  0  0  0  0  0
   11.9990   25.1105   -0.4884 C   0  0  0  0  0  0  0  0  0  0  0  0
   11.2953   24.2602    0.5736 C   0  0  0  0  0  0  0  0  0  0  0  0
    8.2993   21.0154    3.9042 C   0  0  0  0  0  0  0  0  0  0  0  0
    8.2690   21.4520    2.5966 C   0  0  0  0  0  0  0  0  0  0  0  0
    9.4101   21.7864    1.9324 C   0  0  0  0  0  0  0  0  0  0  0  0
   10.6756   21.7033    2.5395 C   0  0  0  0  0  0  0  0  0  0  0  0
   10.6833   21.2714    3.8243 C   0  0  0  0  0  0  0  0  0  0  0  0
    9.5159   20.9220    4.5267 C   0  0  0  0  0  0  0  0  0  0  0  0
    6.6661   21.7197    5.4132 F   0  0  0  0  0  0  0  0  0  0  0  0
    7.0447   20.6709    4.6354 C   0  0  0  0  0  0  0  0  0  0  0  0
    7.2529   19.5449    5.4249 F   0  0  0  0  0  0  0  0  0  0  0  0
    6.0474   20.3756    3.7528 F   0  0  0  0  0  0  0  0  0  0  0  0
   13.3151   24.8933   -2.5855 C   0  0  0  0  0  0  0  0  0  0  0  0
   12.8892   26.1292   -3.0905 C   0  0  0  0  0  0  0  0  0  0  0  0
   13.6296   26.8333   -4.0104 C   0  0  0  0  0  0  0  0  0  0  0  0
   14.8378   26.3228   -4.4662 C   0  0  0  0  0  0  0  0  0  0  0  0
   15.2755   25.1129   -3.9858 C   0  0  0  0  0  0  0  0  0  0  0  0
   14.5151   24.4122   -3.0552 C   0  0  0  0  0  0  0  0  0  0  0  0
   15.6466   27.0343   -5.4302 C   0  0  0  0  0  0  0  0  0  0  0  0
   16.2776   27.6172   -6.2205 N   0  0  0  0  0  0  0  0  0  0  0  0
 15 16  1  0  0  0
 16 17  1  0  0  0
 16 18  1  0  0  0
 16  9  1  0  0  0
  9 10  2  0  0  0
 10 11  1  0  0  0
 11 12  2  0  0  0
 12 13  1  0  0  0
 13 14  2  0  0  0
 12  1  1  0  0  0
  1  2  2  0  0  0
  1  3  1  0  0  0
  3  4  1  0  0  0
  4  5  1  0  0  0
  5  6  1  0  0  0
  6  7  1  0  0  0
  7  8  1  0  0  0
  6 19  1  0  0  0
 19 20  2  0  0  0
 20 21  1  0  0  0
 21 22  2  0  0  0
 22 23  1  0  0  0
 23 24  2  0  0  0
 22 25  1  0  0  0
 25 26  3  0  0  0
 14  9  1  0  0  0
  8  3  1  0  0  0
 24 19  1  0  0  0
M  END
> <minimizedAffinity>
-8.68653

> <CNNscore>
0.2995700240

> <CNNaffinity>
6.1856937408

> <CNN_VS>
1.8530484438

> <CNNaffinity_variance>
0.4192544818

$$$$
[H]c1c([H])c(C2([H])C([H])([H])C([H])([H])N(C(=O)c3c([H])c([H])c(C(F)(F)F)c([H])c3[H])C([H])([H])C2([H])[H])c([H])c([H])c1C#N


 26 28  0  0  0  0  0  0  0  0999 V2000
   10.9371   26.7794   -3.7519 C   0  0  0  0  0  0  0  0  0  0  0  0
   10.3785   25.8834   -4.5542 O   0  0  0  0  0  0  0  0  0  0  0  0
   11.6276   26.2830   -2.6501 N   0  0  0  0  0  0  0  0  0  0  0  0
   11.6225   24.7888   -2.5330 C   0  0  0  0  0  0  0  0  0  0  0  0
   13.0843   24.4202   -2.7307 C   0  0  0  0  0  0  0  0  0  0  0  0
   13.9114   24.9842   -1.5669 C   0  0  0  0  0  0  0  0  0  0  0  0
   13.0939   25.8968   -0.7285 C   0  0  0  0  0  0  0  0  0  0  0  0
   12.3708   26.9158   -1.6145 C   0  0  0  0  0  0  0  0  0  0  0  0
   10.1852   30.7402   -5.0935 C   0  0  0  0  0  0  0  0  0  0  0  0
    9.3067   29.7071   -5.3437 C   0  0  0  0  0  0  0  0  0  0  0  0
    9.5574   28.4404   -4.9102 C   0  0  0  0  0  0  0  0  0  0  0  0
   10.7185   28.1184   -4.1857 C   0  0  0  0  0  0  0  0  0  0  0  0
   11.5681   29.1479   -3.9500 C   0  0  0  0  0  0  0  0  0  0  0  0
   11.3269   30.4620   -4.3896 C   0  0  0  0  0  0  0  0  0  0  0  0
   10.5693   33.0229   -4.8069 F   0  0  0  0  0  0  0  0  0  0  0  0
    9.9174   32.1222   -5.5892 C   0  0  0  0  0  0  0  0  0  0  0  0
    8.5498   32.3749   -5.5660 F   0  0  0  0  0  0  0  0  0  0  0  0
   10.3378   32.2525   -6.8803 F   0  0  0  0  0  0  0  0  0  0  0  0
   14.4750   23.8358   -0.8755 C   0  0  0  0  0  0  0  0  0  0  0  0
   14.2724   22.5836   -1.4709 C   0  0  0  0  0  0  0  0  0  0  0  0
   14.7603   21.4254   -0.9135 C   0  0  0  0  0  0  0  0  0  0  0  0
   15.4776   21.4753    0.2744 C   0  0  0  0  0  0  0  0  0  0  0  0
   15.6885   22.6915    0.8767 C   0  0  0  0  0  0  0  0  0  0  0  0
   15.1884   23.8547    0.3005 C   0  0  0  0  0  0  0  0  0  0  0  0
   16.0098   20.2807    0.8901 C   0  0  0  0  0  0  0  0  0  0  0  0
   16.4338   19.3260    1.4112 N   0  0  0  0  0  0  0  0  0  0  0  0
 15 16  1  0  0  0
 16 17  1  0  0  0
 16 18  1  0  0  0
 16  9  1  0  0  0
  9 10  2  0  0  0
 10 11  1  0  0  0
 11 12  2  0  0  0
 12 13  1  0  0  0
 13 14  2  0  0  0
 12  1  1  0  0  0
  1  2  2  0  0  0
  1  3  1  0  0  0
  3  4  1  0  0  0
  4  5  1  0  0  0
  5  6  1  0  0  0
  6  7  1  0  0  0
  7  8  1  0  0  0
  6 19  1  0  0  0
 19 20  2  0  0  0
 20 21  1  0  0  0
 21 22  2  0  0  0
 22 23  1  0  0  0
 23 24  2  0  0  0
 22 25  1  0  0  0
 25 26  3  0  0  0
 14  9  1  0  0  0
  8  3  1  0  0  0
 24 19  1  0  0  0
M  END
> <minimizedAffinity>
42.11462

> <CNNscore>
0.2824434638

> <CNNaffinity>
5.3879022598

> <CNN_VS>
1.5217777491

> <CNNaffinity_variance>
0.7277436256

$$$$
[H]c1c([H])c(C2([H])C([H])([H])C([H])([H])N(C(=O)c3c([H])c([H])c(C(F)(F)F)c([H])c3[H])C([H])([H])C2([H])[H])c([H])c([H])c1C#N


 26 28  0  0  0  0  0  0  0  0999 V2000
   15.1802   24.5111   -1.9125 C   0  0  0  0  0  0  0  0  0  0  0  0
   15.9239   25.1639   -1.0296 O   0  0  0  0  0  0  0  0  0  0  0  0
   14.3980   23.4709   -1.4189 N   0  0  0  0  0  0  0  0  0  0  0  0
   14.5289   23.2386    0.0560 C   0  0  0  0  0  0  0  0  0  0  0  0
   13.1485   23.5916    0.5867 C   0  0  0  0  0  0  0  0  0  0  0  0
   12.1228   22.5897    0.0381 C   0  0  0  0  0  0  0  0  0  0  0  0
   12.7301   21.7275   -1.0068 C   0  0  0  0  0  0  0  0  0  0  0  0
   13.4659   22.5906   -2.0363 C   0  0  0  0  0  0  0  0  0  0  0  0
   15.6152   25.9087   -5.9012 C   0  0  0  0  0  0  0  0  0  0  0  0
   15.5063   24.5658   -5.6075 C   0  0  0  0  0  0  0  0  0  0  0  0
   15.3682   24.1277   -4.3253 C   0  0  0  0  0  0  0  0  0  0  0  0
   15.3272   25.0160   -3.2362 C   0  0  0  0  0  0  0  0  0  0  0  0
   15.4351   26.3310   -3.5465 C   0  0  0  0  0  0  0  0  0  0  0  0
   15.5787   26.8025   -4.8639 C   0  0  0  0  0  0  0  0  0  0  0  0
   14.6033   26.2988   -7.9662 F   0  0  0  0  0  0  0  0  0  0  0  0
   15.7884   26.3832   -7.3056 C   0  0  0  0  0  0  0  0  0  0  0  0
   16.7477   25.6092   -7.9500 F   0  0  0  0  0  0  0  0  0  0  0  0
   16.2258   27.6752   -7.3189 F   0  0  0  0  0  0  0  0  0  0  0  0
   11.5828   21.8887    1.1920 C   0  0  0  0  0  0  0  0  0  0  0  0
   12.1488   20.6419    1.4900 C   0  0  0  0  0  0  0  0  0  0  0  0
   11.7248   19.8870    2.5579 C   0  0  0  0  0  0  0  0  0  0  0  0
   10.7066   20.3548    3.3780 C   0  0  0  0  0  0  0  0  0  0  0  0
   10.1362   21.5741    3.1052 C   0  0  0  0  0  0  0  0  0  0  0  0
   10.5761   22.3264    2.0210 C   0  0  0  0  0  0  0  0  0  0  0  0
   10.2352   19.5925    4.5121 C   0  0  0  0  0  0  0  0  0  0  0  0
    9.8304   18.9876    5.4247 N   0  0  0  0  0  0  0  0  0  0  0  0
 15 16  1  0  0  0
 16 17  1  0  0  0
 16 18  1  0  0  0
 16  9  1  0  0  0
  9 10  2  0  0  0
 10 11  1  0  0  0
 11 12  2  0  0  0
 12 13  1  0  0  0
 13 14  2  0  0  0
 12  1  1  0  0  0
  1  2  2  0  0  0
  1  3  1  0  0  0
  3  4  1  0  0  0
  4  5  1  0  0  0
  5  6  1  0  0  0
  6  7  1  0  0  0
  7  8  1  0  0  0
  6 19  1  0  0  0
 19 20  2  0  0  0
 20 21  1  0  0  0
 21 22  2  0  0  0
 22 23  1  0  0  0
 23 24  2  0  0  0
 22 25  1  0  0  0
 25 26  3  0  0  0
 14  9  1  0  0  0
  8  3  1  0  0  0
 24 19  1  0  0  0
M  END
> <minimizedAffinity>
-7.48701

> <CNNscore>
0.2442227453

> <CNNaffinity>
6.3145823479

> <CNN_VS>
1.5421646833

> <CNNaffinity_variance>
0.1224174500

$$$$
[H]c1c([H])c(C2([H])C([H])([H])C([H])([H])N(C(=O)c3c([H])c([H])c(C(F)(F)F)c([H])c3[H])C([H])([H])C2([H])[H])c([H])c([H])c1C#N


 26 28  0  0  0  0  0  0  0  0999 V2000
   13.2392   21.3845   -0.2955 C   0  0  0  0  0  0  0  0  0  0  0  0
   13.2627   20.3816   -1.1628 O   0  0  0  0  0  0  0  0  0  0  0  0
   13.8954   22.5515   -0.6760 N   0  0  0  0  0  0  0  0  0  0  0  0
   14.5474   22.4884   -2.0241 C   0  0  0  0  0  0  0  0  0  0  0  0
   13.7586   23.5013   -2.8388 C   0  0  0  0  0  0  0  0  0  0  0  0
   13.9915   24.9058   -2.2647 C   0  0  0  0  0  0  0  0  0  0  0  0
   14.7205   24.8367   -0.9732 C   0  0  0  0  0  0  0  0  0  0  0  0
   14.0497   23.8183   -0.0464 C   0  0  0  0  0  0  0  0  0  0  0  0
   11.0266   20.5159    3.2263 C   0  0  0  0  0  0  0  0  0  0  0  0
   10.6215   21.4837    2.3314 C   0  0  0  0  0  0  0  0  0  0  0  0
   11.3384   21.7554    1.2057 C   0  0  0  0  0  0  0  0  0  0  0  0
   12.5238   21.0663    0.8944 C   0  0  0  0  0  0  0  0  0  0  0  0
   12.9039   20.1191    1.7863 C   0  0  0  0  0  0  0  0  0  0  0  0
   12.1773   19.8245    2.9540 C   0  0  0  0  0  0  0  0  0  0  0  0
   10.5005   21.2030    5.3923 F   0  0  0  0  0  0  0  0  0  0  0  0
   10.2500   20.2364    4.4697 C   0  0  0  0  0  0  0  0  0  0  0  0
   10.6051   18.9913    4.9778 F   0  0  0  0  0  0  0  0  0  0  0  0
    8.9139   20.2032    4.1968 F   0  0  0  0  0  0  0  0  0  0  0  0
   14.6478   25.6695   -3.3137 C   0  0  0  0  0  0  0  0  0  0  0  0
   13.9577   25.7897   -4.5274 C   0  0  0  0  0  0  0  0  0  0  0  0
   14.4742   26.4902   -5.5917 C   0  0  0  0  0  0  0  0  0  0  0  0
   15.7150   27.1041   -5.4823 C   0  0  0  0  0  0  0  0  0  0  0  0
   16.4102   26.9994   -4.3024 C   0  0  0  0  0  0  0  0  0  0  0  0
   15.8744   26.2872   -3.2344 C   0  0  0  0  0  0  0  0  0  0  0  0
   16.2905   27.8521   -6.5771 C   0  0  0  0  0  0  0  0  0  0  0  0
   16.7310   28.4586   -7.4720 N   0  0  0  0  0  0  0  0  0  0  0  0
 15 16  1  0  0  0
 16 17  1  0  0  0
 16 18  1  0  0  0
 16  9  1  0  0  0
  9 10  2  0  0  0
 10 11  1  0  0  0
 11 12  2  0  0  0
 12 13  1  0  0  0
 13 14  2  0  0  0
 12  1  1  0  0  0
  1  2  2  0  0  0
  1  3  1  0  0  0
  3  4  1  0  0  0
  4  5  1  0  0  0
  5  6  1  0  0  0
  6  7  1  0  0  0
  7  8  1  0  0  0
  6 19  1  0  0  0
 19 20  2  0  0  0
 20 21  1  0  0  0
 21 22  2  0  0  0
 22 23  1  0  0  0
 23 24  2  0  0  0
 22 25  1  0  0  0
 25 26  3  0  0  0
 14  9  1  0  0  0
  8  3  1  0  0  0
 24 19  1  0  0  0
M  END
> <minimizedAffinity>
-4.26386

> <CNNscore>
0.2336272001

> <CNNaffinity>
6.3717737198

> <CNN_VS>
1.4886196852

> <CNNaffinity_variance>
0.3434151709

$$$$
[H]Oc1c([H])c([H])c(C([H])([H])[C@@]2([H])C(=O)N([H])[C@@]([H])([C@@]([H])(C([H])([H])[H])C([H])([H])C([H])([H])[H])C(=O)N([H])[C@@]([H])([C@@]([H])(C([H])([H])[H])C([H])([H])C([H])([H])[H])C(=O)N([H])[C@@]([H])([C@@]([H])(C([H])([H])[H])C([H])([H])C([H])([H])[H])C(=O)N2[H])c([H])c1[H]


 41 42  0  0  0  0  0  0  0  0999 V2000
   13.7842   21.4097   -0.0336 C   0  0  0  0  0  0  0  0  0  0  0  0
   14.9742   22.0110    0.5315 N   0  0  0  0  0  0  0  0  0  0  0  0
   15.1928   23.4277    0.5348 C   0  0  0  0  0  0  0  0  0  0  0  0
   15.6385   23.9712    1.5771 O   0  0  0  0  0  0  0  0  0  0  0  0
   14.9212   24.3031   -0.6312 C   0  0  0  0  0  0  0  0  0  0  0  0
   14.1488   25.4265   -0.1065 N   0  0  0  0  0  0  0  0  0  0  0  0
   12.7429   25.5207   -0.1860 C   0  0  0  0  0  0  0  0  0  0  0  0
   12.1192   25.8611    0.8769 O   0  0  0  0  0  0  0  0  0  0  0  0
   11.9717   25.2463   -1.4280 C   0  0  0  0  0  0  0  0  0  0  0  0
   10.6204   24.9235   -1.0594 N   0  0  0  0  0  0  0  0  0  0  0  0
   10.2574   23.7421   -0.3602 C   0  0  0  0  0  0  0  0  0  0  0  0
    9.4201   23.7763    0.6065 O   0  0  0  0  0  0  0  0  0  0  0  0
   10.8004   22.3899   -0.6760 C   0  0  0  0  0  0  0  0  0  0  0  0
   11.2858   21.7082    0.5070 N   0  0  0  0  0  0  0  0  0  0  0  0
   12.6430   21.6140    0.8960 C   0  0  0  0  0  0  0  0  0  0  0  0
   12.9150   21.7092    2.1185 O   0  0  0  0  0  0  0  0  0  0  0  0
   15.6898   21.3819    0.9480 H   0  0  0  0  0  0  0  0  0  0  0  0
   14.6933   26.1883    0.3497 H   0  0  0  0  0  0  0  0  0  0  0  0
    9.8554   25.5771   -1.3117 H   0  0  0  0  0  0  0  0  0  0  0  0
   10.5340   21.2553    1.1056 H   0  0  0  0  0  0  0  0  0  0  0  0
   14.0175   19.9354   -0.2727 C   0  0  0  0  0  0  0  0  0  0  0  0
   13.3538   19.4719   -1.5555 C   0  0  0  0  0  0  0  0  0  0  0  0
   16.1988   20.0006    0.9455 C   0  0  0  0  0  0  0  0  0  0  0  0
   15.4526   19.5330   -0.2893 C   0  0  0  0  0  0  0  0  0  0  0  0
    9.7009   21.5991   -1.3567 C   0  0  0  0  0  0  0  0  0  0  0  0
   10.0699   21.1809   -2.7413 C   0  0  0  0  0  0  0  0  0  0  0  0
    9.3892   20.3461   -0.5653 C   0  0  0  0  0  0  0  0  0  0  0  0
    8.0527   19.7900   -0.9617 C   0  0  0  0  0  0  0  0  0  0  0  0
   12.1405   26.2828   -2.4723 C   0  0  0  0  0  0  0  0  0  0  0  0
   12.8511   27.5120   -1.8988 C   0  0  0  0  0  0  0  0  0  0  0  0
   12.7255   25.8673   -3.7681 C   0  0  0  0  0  0  0  0  0  0  0  0
   13.0313   26.9615   -4.7441 C   0  0  0  0  0  0  0  0  0  0  0  0
   16.1999   24.8590   -1.1896 C   0  0  0  0  0  0  0  0  0  0  0  0
   16.0998   25.1841   -2.6342 C   0  0  0  0  0  0  0  0  0  0  0  0
   15.7585   24.2327   -3.5694 C   0  0  0  0  0  0  0  0  0  0  0  0
   15.6629   24.5495   -4.9296 C   0  0  0  0  0  0  0  0  0  0  0  0
   15.9081   25.8289   -5.3792 C   0  0  0  0  0  0  0  0  0  0  0  0
   15.8157   26.1558   -6.7321 O   0  0  0  0  0  0  0  0  0  0  0  0
   16.2499   26.7803   -4.4413 C   0  0  0  0  0  0  0  0  0  0  0  0
   16.3429   26.4640   -3.1033 C   0  0  0  0  0  0  0  0  0  0  0  0
   16.6558   26.0588   -7.2881 H   0  0  0  0  0  0  0  0  0  0  0  0
 23 24  1  0  0  0
 24 21  1  0  0  0
 21 22  1  0  0  0
 21  1  1  0  0  0
  1  2  1  0  0  0
  2  3  1  0  0  0
  3  4  2  0  0  0
  3  5  1  0  0  0
  5 33  1  0  0  0
 33 34  1  0  0  0
 34 35  2  0  0  0
 35 36  1  0  0  0
 36 37  2  0  0  0
 37 38  1  0  0  0
 37 39  1  0  0  0
 39 40  2  0  0  0
  5  6  1  0  0  0
  6  7  1  0  0  0
  7  8  2  0  0  0
  7  9  1  0  0  0
  9 10  1  0  0  0
 10 11  1  0  0  0
 11 12  2  0  0  0
 11 13  1  0  0  0
 13 14  1  0  0  0
 14 15  1  0  0  0
 15 16  2  0  0  0
 13 25  1  0  0  0
 25 26  1  0  0  0
 25 27  1  0  0  0
 27 28  1  0  0  0
  9 29  1  0  0  0
 29 30  1  0  0  0
 29 31  1  0  0  0
 31 32  1  0  0  0
 15  1  1  0  0  0
 40 34  1  0  0  0
  2 17  1  0  0  0
 38 41  1  0  0  0
  6 18  1  0  0  0
 10 19  1  0  0  0
 14 20  1  0  0  0
M  END
> <minimizedAffinity>
3.05759

> <CNNscore>
0.6385506988

> <CNNaffinity>
8.0537767410

> <CNN_VS>
5.1427445412

> <CNNaffinity_variance>
1.0295089483

$$$$
[H]Oc1c([H])c([H])c(C([H])([H])[C@@]2([H])C(=O)N([H])[C@@]([H])([C@@]([H])(C([H])([H])[H])C([H])([H])C([H])([H])[H])C(=O)N([H])[C@@]([H])([C@@]([H])(C([H])([H])[H])C([H])([H])C([H])([H])[H])C(=O)N([H])[C@@]([H])([C@@]([H])(C([H])([H])[H])C([H])([H])C([H])([H])[H])C(=O)N2[H])c([H])c1[H]


 41 42  0  0  0  0  0  0  0  0999 V2000
   14.8181   24.0633   -0.2760 C   0  0  0  0  0  0  0  0  0  0  0  0
   14.4779   25.3748   -0.7872 N   0  0  0  0  0  0  0  0  0  0  0  0
   13.1301   25.7554   -1.0927 C   0  0  0  0  0  0  0  0  0  0  0  0
   12.7244   26.8912   -0.7380 O   0  0  0  0  0  0  0  0  0  0  0  0
   12.1723   24.8797   -1.8106 C   0  0  0  0  0  0  0  0  0  0  0  0
   10.9446   24.9101   -1.0193 N   0  0  0  0  0  0  0  0  0  0  0  0
   10.5812   23.9108   -0.0914 C   0  0  0  0  0  0  0  0  0  0  0  0
   10.1718   24.3000    1.0557 O   0  0  0  0  0  0  0  0  0  0  0  0
   10.6529   22.4544   -0.3847 C   0  0  0  0  0  0  0  0  0  0  0  0
   10.7271   21.7447    0.8631 N   0  0  0  0  0  0  0  0  0  0  0  0
   11.8452   21.8053    1.7363 C   0  0  0  0  0  0  0  0  0  0  0  0
   11.6916   21.9306    3.0002 O   0  0  0  0  0  0  0  0  0  0  0  0
   13.2621   21.7308    1.2781 C   0  0  0  0  0  0  0  0  0  0  0  0
   14.0714   22.7956    1.8357 N   0  0  0  0  0  0  0  0  0  0  0  0
   14.4381   23.9826    1.1585 C   0  0  0  0  0  0  0  0  0  0  0  0
   14.4464   25.0561    1.8104 O   0  0  0  0  0  0  0  0  0  0  0  0
   15.2483   26.0577   -0.9338 H   0  0  0  0  0  0  0  0  0  0  0  0
   10.3197   25.7301   -1.1678 H   0  0  0  0  0  0  0  0  0  0  0  0
    9.9300   21.1493    1.1568 H   0  0  0  0  0  0  0  0  0  0  0  0
   14.3968   22.6375    2.8346 H   0  0  0  0  0  0  0  0  0  0  0  0
   16.2988   23.8128   -0.4484 C   0  0  0  0  0  0  0  0  0  0  0  0
   16.9948   25.0140   -1.0597 C   0  0  0  0  0  0  0  0  0  0  0  0
   18.2700   24.2272    1.0310 C   0  0  0  0  0  0  0  0  0  0  0  0
   17.0073   23.4188    0.8024 C   0  0  0  0  0  0  0  0  0  0  0  0
   13.8006   20.3677    1.6651 C   0  0  0  0  0  0  0  0  0  0  0  0
   12.7176   19.4060    2.0265 C   0  0  0  0  0  0  0  0  0  0  0  0
   14.5839   19.7679    0.5162 C   0  0  0  0  0  0  0  0  0  0  0  0
   14.2728   20.4839   -0.7657 C   0  0  0  0  0  0  0  0  0  0  0  0
    9.6258   21.9916   -1.3461 C   0  0  0  0  0  0  0  0  0  0  0  0
   10.2833   21.2892   -2.5374 C   0  0  0  0  0  0  0  0  0  0  0  0
    8.4839   21.2128   -0.8137 C   0  0  0  0  0  0  0  0  0  0  0  0
    7.9936   20.0809   -1.6632 C   0  0  0  0  0  0  0  0  0  0  0  0
   11.8478   25.4421   -3.1649 C   0  0  0  0  0  0  0  0  0  0  0  0
   13.0509   25.9252   -3.8871 C   0  0  0  0  0  0  0  0  0  0  0  0
   13.1364   27.2101   -4.3749 C   0  0  0  0  0  0  0  0  0  0  0  0
   14.2770   27.6582   -5.0517 C   0  0  0  0  0  0  0  0  0  0  0  0
   15.3559   26.8249   -5.2528 C   0  0  0  0  0  0  0  0  0  0  0  0
   16.4975   27.2608   -5.9256 O   0  0  0  0  0  0  0  0  0  0  0  0
   15.2686   25.5386   -4.7637 C   0  0  0  0  0  0  0  0  0  0  0  0
   14.1439   25.1016   -4.0981 C   0  0  0  0  0  0  0  0  0  0  0  0
   16.5184   27.1316   -6.9292 H   0  0  0  0  0  0  0  0  0  0  0  0
 23 24  1  0  0  0
 24 21  1  0  0  0
 21 22  1  0  0  0
 21  1  1  0  0  0
  1  2  1  0  0  0
  2  3  1  0  0  0
  3  4  2  0  0  0
  3  5  1  0  0  0
  5 33  1  0  0  0
 33 34  1  0  0  0
 34 35  2  0  0  0
 35 36  1  0  0  0
 36 37  2  0  0  0
 37 38  1  0  0  0
 37 39  1  0  0  0
 39 40  2  0  0  0
  5  6  1  0  0  0
  6  7  1  0  0  0
  7  8  2  0  0  0
  7  9  1  0  0  0
  9 10  1  0  0  0
 10 11  1  0  0  0
 11 12  2  0  0  0
 11 13  1  0  0  0
 13 14  1  0  0  0
 14 15  1  0  0  0
 15 16  2  0  0  0
 13 25  1  0  0  0
 25 26  1  0  0  0
 25 27  1  0  0  0
 27 28  1  0  0  0
  9 29  1  0  0  0
 29 30  1  0  0  0
 29 31  1  0  0  0
 31 32  1  0  0  0
 15  1  1  0  0  0
 40 34  1  0  0  0
  2 17  1  0  0  0
 38 41  1  0  0  0
  6 18  1  0  0  0
 10 19  1  0  0  0
 14 20  1  0  0  0
M  END
> <minimizedAffinity>
5.38792

> <CNNscore>
0.5990552306

> <CNNaffinity>
7.5248007774

> <CNN_VS>
4.5077714920

> <CNNaffinity_variance>
0.9589635134

$$$$
[H]Oc1c([H])c([H])c(C([H])([H])[C@@]2([H])C(=O)N([H])[C@@]([H])([C@@]([H])(C([H])([H])[H])C([H])([H])C([H])([H])[H])C(=O)N([H])[C@@]([H])([C@@]([H])(C([H])([H])[H])C([H])([H])C([H])([H])[H])C(=O)N([H])[C@@]([H])([C@@]([H])(C([H])([H])[H])C([H])([H])C([H])([H])[H])C(=O)N2[H])c([H])c1[H]


 41 42  0  0  0  0  0  0  0  0999 V2000
   13.8159   23.1447    0.6483 C   0  0  0  0  0  0  0  0  0  0  0  0
   13.7976   24.4140   -0.0485 N   0  0  0  0  0  0  0  0  0  0  0  0
   12.6435   24.8870   -0.7551 C   0  0  0  0  0  0  0  0  0  0  0  0
   12.3049   26.0910   -0.6285 O   0  0  0  0  0  0  0  0  0  0  0  0
   11.8134   24.0315   -1.6376 C   0  0  0  0  0  0  0  0  0  0  0  0
   10.4312   24.2756   -1.2326 N   0  0  0  0  0  0  0  0  0  0  0  0
    9.7049   23.4332   -0.3639 C   0  0  0  0  0  0  0  0  0  0  0  0
    9.0523   23.9930    0.5822 O   0  0  0  0  0  0  0  0  0  0  0  0
    9.6673   21.9524   -0.4992 C   0  0  0  0  0  0  0  0  0  0  0  0
    9.3086   21.3907    0.7743 N   0  0  0  0  0  0  0  0  0  0  0  0
   10.1454   21.4431    1.9202 C   0  0  0  0  0  0  0  0  0  0  0  0
    9.6713   21.7309    3.0731 O   0  0  0  0  0  0  0  0  0  0  0  0
   11.6120   21.1760    1.8908 C   0  0  0  0  0  0  0  0  0  0  0  0
   12.3681   22.2142    2.5618 N   0  0  0  0  0  0  0  0  0  0  0  0
   13.0533   23.2713    1.9175 C   0  0  0  0  0  0  0  0  0  0  0  0
   13.0208   24.4080    2.4508 O   0  0  0  0  0  0  0  0  0  0  0  0
   14.6593   24.9957   -0.0285 H   0  0  0  0  0  0  0  0  0  0  0  0
    9.9800   25.1299   -1.6218 H   0  0  0  0  0  0  0  0  0  0  0  0
    8.3925   20.9154    0.8796 H   0  0  0  0  0  0  0  0  0  0  0  0
   12.3869   22.1434    3.6217 H   0  0  0  0  0  0  0  0  0  0  0  0
   15.2433   22.7310    0.9250 C   0  0  0  0  0  0  0  0  0  0  0  0
   15.4440   21.2463    0.6878 C   0  0  0  0  0  0  0  0  0  0  0  0
   17.3323   24.0972    1.0498 C   0  0  0  0  0  0  0  0  0  0  0  0
   16.2666   23.4939    0.1552 C   0  0  0  0  0  0  0  0  0  0  0  0
   11.8467   19.8217    2.5296 C   0  0  0  0  0  0  0  0  0  0  0  0
   13.1479   19.2143    2.1221 C   0  0  0  0  0  0  0  0  0  0  0  0
   11.8503   19.9473    4.0388 C   0  0  0  0  0  0  0  0  0  0  0  0
   10.7525   19.1193    4.6403 C   0  0  0  0  0  0  0  0  0  0  0  0
    8.8900   21.4831   -1.6693 C   0  0  0  0  0  0  0  0  0  0  0  0
    9.8284   21.0732   -2.8078 C   0  0  0  0  0  0  0  0  0  0  0  0
    7.8371   20.4678   -1.4354 C   0  0  0  0  0  0  0  0  0  0  0  0
    7.4035   19.6692   -2.6260 C   0  0  0  0  0  0  0  0  0  0  0  0
   11.9437   24.4598   -3.0712 C   0  0  0  0  0  0  0  0  0  0  0  0
   13.2265   25.1533   -3.3469 C   0  0  0  0  0  0  0  0  0  0  0  0
   13.2646   26.4451   -3.8224 C   0  0  0  0  0  0  0  0  0  0  0  0
   14.4796   27.0927   -4.0759 C   0  0  0  0  0  0  0  0  0  0  0  0
   15.6821   26.4562   -3.8572 C   0  0  0  0  0  0  0  0  0  0  0  0
   16.8986   27.0917   -4.1062 O   0  0  0  0  0  0  0  0  0  0  0  0
   15.6420   25.1626   -3.3811 C   0  0  0  0  0  0  0  0  0  0  0  0
   14.4438   24.5290   -3.1329 C   0  0  0  0  0  0  0  0  0  0  0  0
   17.2899   26.9906   -5.0341 H   0  0  0  0  0  0  0  0  0  0  0  0
 23 24  1  0  0  0
 24 21  1  0  0  0
 21 22  1  0  0  0
 21  1  1  0  0  0
  1  2  1  0  0  0
  2  3  1  0  0  0
  3  4  2  0  0  0
  3  5  1  0  0  0
  5 33  1  0  0  0
 33 34  1  0  0  0
 34 35  2  0  0  0
 35 36  1  0  0  0
 36 37  2  0  0  0
 37 38  1  0  0  0
 37 39  1  0  0  0
 39 40  2  0  0  0
  5  6  1  0  0  0
  6  7  1  0  0  0
  7  8  2  0  0  0
  7  9  1  0  0  0
  9 10  1  0  0  0
 10 11  1  0  0  0
 11 12  2  0  0  0
 11 13  1  0  0  0
 13 14  1  0  0  0
 14 15  1  0  0  0
 15 16  2  0  0  0
 13 25  1  0  0  0
 25 26  1  0  0  0
 25 27  1  0  0  0
 27 28  1  0  0  0
  9 29  1  0  0  0
 29 30  1  0  0  0
 29 31  1  0  0  0
 31 32  1  0  0  0
 15  1  1  0  0  0
 40 34  1  0  0  0
  2 17  1  0  0  0
 38 41  1  0  0  0
  6 18  1  0  0  0
 10 19  1  0  0  0
 14 20  1  0  0  0
M  END
> <minimizedAffinity>
5.32797

> <CNNscore>
0.5643766522

> <CNNaffinity>
7.4275770187

> <CNN_VS>
4.1919512749

> <CNNaffinity_variance>
0.8705158234

$$$$
[H]Oc1c([H])c([H])c(C([H])([H])[C@@]2([H])C(=O)N([H])[C@@]([H])([C@@]([H])(C([H])([H])[H])C([H])([H])C([H])([H])[H])C(=O)N([H])[C@@]([H])([C@@]([H])(C([H])([H])[H])C([H])([H])C([H])([H])[H])C(=O)N([H])[C@@]([H])([C@@]([H])(C([H])([H])[H])C([H])([H])C([H])([H])[H])C(=O)N2[H])c([H])c1[H]


 41 42  0  0  0  0  0  0  0  0999 V2000
   14.1306   22.3296   -0.5972 C   0  0  0  0  0  0  0  0  0  0  0  0
   14.4556   23.6685   -1.0432 N   0  0  0  0  0  0  0  0  0  0  0  0
   13.5786   24.7829   -0.8345 C   0  0  0  0  0  0  0  0  0  0  0  0
   14.0655   25.8746   -0.4453 O   0  0  0  0  0  0  0  0  0  0  0  0
   12.1126   24.7260   -1.0520 C   0  0  0  0  0  0  0  0  0  0  0  0
   11.5156   25.3099    0.1468 N   0  0  0  0  0  0  0  0  0  0  0  0
   11.0056   24.5510    1.2218 C   0  0  0  0  0  0  0  0  0  0  0  0
   11.3434   24.9093    2.4017 O   0  0  0  0  0  0  0  0  0  0  0  0
   10.1107   23.3762    1.0444 C   0  0  0  0  0  0  0  0  0  0  0  0
   10.2038   22.5549    2.2203 N   0  0  0  0  0  0  0  0  0  0  0  0
   11.3718   21.8348    2.5856 C   0  0  0  0  0  0  0  0  0  0  0  0
   11.7864   21.8166    3.7958 O   0  0  0  0  0  0  0  0  0  0  0  0
   12.2017   21.0548    1.6234 C   0  0  0  0  0  0  0  0  0  0  0  0
   13.6106   21.3747    1.7354 N   0  0  0  0  0  0  0  0  0  0  0  0
   14.3217   22.2432    0.8740 C   0  0  0  0  0  0  0  0  0  0  0  0
   15.1828   23.0038    1.3815 O   0  0  0  0  0  0  0  0  0  0  0  0
   15.3618   23.8150   -1.5317 H   0  0  0  0  0  0  0  0  0  0  0  0
   11.4784   26.3501    0.1844 H   0  0  0  0  0  0  0  0  0  0  0  0
    9.3814   22.4705    2.8471 H   0  0  0  0  0  0  0  0  0  0  0  0
   14.1169   20.9009    2.5403 H   0  0  0  0  0  0  0  0  0  0  0  0
   15.0082   21.3243   -1.3071 C   0  0  0  0  0  0  0  0  0  0  0  0
   15.1562   20.0505   -0.4967 C   0  0  0  0  0  0  0  0  0  0  0  0
   15.2058   21.8574   -3.7408 C   0  0  0  0  0  0  0  0  0  0  0  0
   14.5599   20.9795   -2.6862 C   0  0  0  0  0  0  0  0  0  0  0  0
   11.9474   19.5832    1.8829 C   0  0  0  0  0  0  0  0  0  0  0  0
   11.7017   19.2906    3.3259 C   0  0  0  0  0  0  0  0  0  0  0  0
   10.7346   19.1157    1.1057 C   0  0  0  0  0  0  0  0  0  0  0  0
   10.6207   19.8594   -0.1929 C   0  0  0  0  0  0  0  0  0  0  0  0
    8.7451   23.7331    0.5960 C   0  0  0  0  0  0  0  0  0  0  0  0
    7.9244   22.4707    0.3175 C   0  0  0  0  0  0  0  0  0  0  0  0
    7.9859   24.7112    1.4090 C   0  0  0  0  0  0  0  0  0  0  0  0
    7.5728   24.2642    2.7775 C   0  0  0  0  0  0  0  0  0  0  0  0
   11.7128   25.5855   -2.2170 C   0  0  0  0  0  0  0  0  0  0  0  0
   12.8510   25.8931   -3.1183 C   0  0  0  0  0  0  0  0  0  0  0  0
   13.0353   27.1497   -3.6503 C   0  0  0  0  0  0  0  0  0  0  0  0
   14.1142   27.4316   -4.4967 C   0  0  0  0  0  0  0  0  0  0  0  0
   15.0308   26.4570   -4.8265 C   0  0  0  0  0  0  0  0  0  0  0  0
   16.1096   26.7266   -5.6687 O   0  0  0  0  0  0  0  0  0  0  0  0
   14.8447   25.1991   -4.2929 C   0  0  0  0  0  0  0  0  0  0  0  0
   13.7812   24.9260   -3.4602 C   0  0  0  0  0  0  0  0  0  0  0  0
   15.9660   26.5867   -6.6607 H   0  0  0  0  0  0  0  0  0  0  0  0
 23 24  1  0  0  0
 24 21  1  0  0  0
 21 22  1  0  0  0
 21  1  1  0  0  0
  1  2  1  0  0  0
  2  3  1  0  0  0
  3  4  2  0  0  0
  3  5  1  0  0  0
  5 33  1  0  0  0
 33 34  1  0  0  0
 34 35  2  0  0  0
 35 36  1  0  0  0
 36 37  2  0  0  0
 37 38  1  0  0  0
 37 39  1  0  0  0
 39 40  2  0  0  0
  5  6  1  0  0  0
  6  7  1  0  0  0
  7  8  2  0  0  0
  7  9  1  0  0  0
  9 10  1  0  0  0
 10 11  1  0  0  0
 11 12  2  0  0  0
 11 13  1  0  0  0
 13 14  1  0  0  0
 14 15  1  0  0  0
 15 16  2  0  0  0
 13 25  1  0  0  0
 25 26  1  0  0  0
 25 27  1  0  0  0
 27 28  1  0  0  0
  9 29  1  0  0  0
 29 30  1  0  0  0
 29 31  1  0  0  0
 31 32  1  0  0  0
 15  1  1  0  0  0
 40 34  1  0  0  0
  2 17  1  0  0  0
 38 41  1  0  0  0
  6 18  1  0  0  0
 10 19  1  0  0  0
 14 20  1  0  0  0
M  END
> <minimizedAffinity>
0.08566

> <CNNscore>
0.5438525677

> <CNNaffinity>
7.6798009872

> <CNN_VS>
4.1766796112

> <CNNaffinity_variance>
0.5395565629

$$$$
[H]Oc1c([H])c([H])c(C([H])([H])[C@@]2([H])C(=O)N([H])[C@@]([H])([C@@]([H])(C([H])([H])[H])C([H])([H])C([H])([H])[H])C(=O)N([H])[C@@]([H])([C@@]([H])(C([H])([H])[H])C([H])([H])C([H])([H])[H])C(=O)N([H])[C@@]([H])([C@@]([H])(C([H])([H])[H])C([H])([H])C([H])([H])[H])C(=O)N2[H])c([H])c1[H]


 41 42  0  0  0  0  0  0  0  0999 V2000
   12.0681   23.4947   -1.6978 C   0  0  0  0  0  0  0  0  0  0  0  0
   12.8043   23.2137   -2.9128 N   0  0  0  0  0  0  0  0  0  0  0  0
   14.0173   22.4498   -2.9178 C   0  0  0  0  0  0  0  0  0  0  0  0
   14.1813   21.5762   -3.8067 O   0  0  0  0  0  0  0  0  0  0  0  0
   15.1047   22.6292   -1.9253 C   0  0  0  0  0  0  0  0  0  0  0  0
   15.4345   21.2850   -1.4581 N   0  0  0  0  0  0  0  0  0  0  0  0
   14.9441   20.7260   -0.2586 C   0  0  0  0  0  0  0  0  0  0  0  0
   14.4821   19.5352   -0.3151 O   0  0  0  0  0  0  0  0  0  0  0  0
   14.9416   21.4484    1.0417 C   0  0  0  0  0  0  0  0  0  0  0  0
   13.9483   20.8490    1.8903 N   0  0  0  0  0  0  0  0  0  0  0  0
   12.5524   20.9259    1.6417 C   0  0  0  0  0  0  0  0  0  0  0  0
   11.7990   19.9006    1.7759 O   0  0  0  0  0  0  0  0  0  0  0  0
   11.8521   22.1707    1.2137 C   0  0  0  0  0  0  0  0  0  0  0  0
   11.0018   21.9484    0.0616 N   0  0  0  0  0  0  0  0  0  0  0  0
   11.3360   22.2727   -1.2745 C   0  0  0  0  0  0  0  0  0  0  0  0
   10.9922   21.4731   -2.1801 O   0  0  0  0  0  0  0  0  0  0  0  0
   12.4294   23.5846   -3.8089 H   0  0  0  0  0  0  0  0  0  0  0  0
   16.0700   20.7275   -2.0666 H   0  0  0  0  0  0  0  0  0  0  0  0
   14.2496   20.3296    2.7362 H   0  0  0  0  0  0  0  0  0  0  0  0
   10.0605   21.5049    0.2760 H   0  0  0  0  0  0  0  0  0  0  0  0
   11.1055   24.6363   -1.9327 C   0  0  0  0  0  0  0  0  0  0  0  0
    9.9040   24.5445   -1.0113 C   0  0  0  0  0  0  0  0  0  0  0  0
   12.6631   26.3033   -2.9532 C   0  0  0  0  0  0  0  0  0  0  0  0
   11.7146   25.9913   -1.8116 C   0  0  0  0  0  0  0  0  0  0  0  0
   11.0552   22.6814    2.3976 C   0  0  0  0  0  0  0  0  0  0  0  0
   10.4730   24.0343    2.1549 C   0  0  0  0  0  0  0  0  0  0  0  0
    9.9120   21.7374    2.7067 C   0  0  0  0  0  0  0  0  0  0  0  0
    9.7176   21.6113    4.1897 C   0  0  0  0  0  0  0  0  0  0  0  0
   16.2911   21.6213    1.6268 C   0  0  0  0  0  0  0  0  0  0  0  0
   17.1869   20.4314    1.2712 C   0  0  0  0  0  0  0  0  0  0  0  0
   16.9807   22.9125    1.4004 C   0  0  0  0  0  0  0  0  0  0  0  0
   16.1410   24.0340    0.8708 C   0  0  0  0  0  0  0  0  0  0  0  0
   16.3346   23.1922   -2.5781 C   0  0  0  0  0  0  0  0  0  0  0  0
   16.0734   24.4716   -3.2833 C   0  0  0  0  0  0  0  0  0  0  0  0
   16.3513   25.6891   -2.7030 C   0  0  0  0  0  0  0  0  0  0  0  0
   16.1051   26.8909   -3.3774 C   0  0  0  0  0  0  0  0  0  0  0  0
   15.5746   26.8951   -4.6492 C   0  0  0  0  0  0  0  0  0  0  0  0
   15.3253   28.0864   -5.3306 O   0  0  0  0  0  0  0  0  0  0  0  0
   15.2969   25.6750   -5.2288 C   0  0  0  0  0  0  0  0  0  0  0  0
   15.5408   24.4944   -4.5613 C   0  0  0  0  0  0  0  0  0  0  0  0
   14.4115   28.5043   -5.2091 H   0  0  0  0  0  0  0  0  0  0  0  0
 23 24  1  0  0  0
 24 21  1  0  0  0
 21 22  1  0  0  0
 21  1  1  0  0  0
  1  2  1  0  0  0
  2  3  1  0  0  0
  3  4  2  0  0  0
  3  5  1  0  0  0
  5 33  1  0  0  0
 33 34  1  0  0  0
 34 35  2  0  0  0
 35 36  1  0  0  0
 36 37  2  0  0  0
 37 38  1  0  0  0
 37 39  1  0  0  0
 39 40  2  0  0  0
  5  6  1  0  0  0
  6  7  1  0  0  0
  7  8  2  0  0  0
  7  9  1  0  0  0
  9 10  1  0  0  0
 10 11  1  0  0  0
 11 12  2  0  0  0
 11 13  1  0  0  0
 13 14  1  0  0  0
 14 15  1  0  0  0
 15 16  2  0  0  0
 13 25  1  0  0  0
 25 26  1  0  0  0
 25 27  1  0  0  0
 27 28  1  0  0  0
  9 29  1  0  0  0
 29 30  1  0  0  0
 29 31  1  0  0  0
 31 32  1  0  0  0
 15  1  1  0  0  0
 40 34  1  0  0  0
  2 17  1  0  0  0
 38 41  1  0  0  0
  6 18  1  0  0  0
 10 19  1  0  0  0
 14 20  1  0  0  0
M  END
> <minimizedAffinity>
3.70884

> <CNNscore>
0.5399144888

> <CNNaffinity>
7.5981636047

> <CNN_VS>
4.1023588181

> <CNNaffinity_variance>
0.5548651814

$$$$
[H]Oc1c([H])c([H])c(C([H])([H])[C@@]2([H])C(=O)N([H])[C@@]([H])([C@@]([H])(C([H])([H])[H])C([H])([H])C([H])([H])[H])C(=O)N([H])[C@@]([H])([C@@]([H])(C([H])([H])[H])C([H])([H])C([H])([H])[H])C(=O)N([H])[C@@]([H])([C@@]([H])(C([H])([H])[H])C([H])([H])C([H])([H])[H])C(=O)N2[H])c([H])c1[H]


 41 42  0  0  0  0  0  0  0  0999 V2000
   13.5699   24.6415   -2.8440 C   0  0  0  0  0  0  0  0  0  0  0  0
   14.7124   24.6959   -3.7322 N   0  0  0  0  0  0  0  0  0  0  0  0
   16.0586   24.5438   -3.2640 C   0  0  0  0  0  0  0  0  0  0  0  0
   16.8509   23.8190   -3.9177 O   0  0  0  0  0  0  0  0  0  0  0  0
   16.5808   25.1974   -2.0393 C   0  0  0  0  0  0  0  0  0  0  0  0
   17.2593   24.1421   -1.2909 N   0  0  0  0  0  0  0  0  0  0  0  0
   16.6762   23.4414   -0.2135 C   0  0  0  0  0  0  0  0  0  0  0  0
   16.7919   22.1681   -0.2139 O   0  0  0  0  0  0  0  0  0  0  0  0
   15.9474   24.1072    0.8992 C   0  0  0  0  0  0  0  0  0  0  0  0
   15.0695   23.1440    1.5054 N   0  0  0  0  0  0  0  0  0  0  0  0
   13.9341   22.5952    0.8527 C   0  0  0  0  0  0  0  0  0  0  0  0
   13.6713   21.3450    0.9216 O   0  0  0  0  0  0  0  0  0  0  0  0
   12.9688   23.3987    0.0492 C   0  0  0  0  0  0  0  0  0  0  0  0
   12.7185   22.8087   -1.2504 N   0  0  0  0  0  0  0  0  0  0  0  0
   13.3105   23.2281   -2.4652 C   0  0  0  0  0  0  0  0  0  0  0  0
   13.6464   22.3461   -3.2939 O   0  0  0  0  0  0  0  0  0  0  0  0
   14.5374   24.8513   -4.7454 H   0  0  0  0  0  0  0  0  0  0  0  0
   18.2295   23.9126   -1.5926 H   0  0  0  0  0  0  0  0  0  0  0  0
   15.2597   22.8221    2.4731 H   0  0  0  0  0  0  0  0  0  0  0  0
   12.0303   21.9993   -1.2520 H   0  0  0  0  0  0  0  0  0  0  0  0
   12.3604   25.2396   -3.5254 C   0  0  0  0  0  0  0  0  0  0  0  0
   11.2959   25.6309   -2.5180 C   0  0  0  0  0  0  0  0  0  0  0  0
   11.9357   27.6642   -3.9580 C   0  0  0  0  0  0  0  0  0  0  0  0
   12.6607   26.4079   -4.4009 C   0  0  0  0  0  0  0  0  0  0  0  0
   11.6906   23.5233    0.8544 C   0  0  0  0  0  0  0  0  0  0  0  0
   11.7781   22.8369    2.1770 C   0  0  0  0  0  0  0  0  0  0  0  0
   11.3738   24.9815    1.1129 C   0  0  0  0  0  0  0  0  0  0  0  0
   12.4735   25.8609    0.5933 C   0  0  0  0  0  0  0  0  0  0  0  0
   16.8295   24.8645    1.8167 C   0  0  0  0  0  0  0  0  0  0  0  0
   18.2912   24.4552    1.6159 C   0  0  0  0  0  0  0  0  0  0  0  0
   16.6749   26.3369    1.8631 C   0  0  0  0  0  0  0  0  0  0  0  0
   15.3140   26.8547    2.2142 C   0  0  0  0  0  0  0  0  0  0  0  0
   17.6098   26.2348   -2.3862 C   0  0  0  0  0  0  0  0  0  0  0  0
   17.1321   27.1937   -3.4133 C   0  0  0  0  0  0  0  0  0  0  0  0
   16.9712   28.5328   -3.1357 C   0  0  0  0  0  0  0  0  0  0  0  0
   16.5236   29.4307   -4.1120 C   0  0  0  0  0  0  0  0  0  0  0  0
   16.2281   29.0022   -5.3880 C   0  0  0  0  0  0  0  0  0  0  0  0
   15.7815   29.8880   -6.3687 O   0  0  0  0  0  0  0  0  0  0  0  0
   16.3897   27.6609   -5.6642 C   0  0  0  0  0  0  0  0  0  0  0  0
   16.8306   26.7805   -4.7000 C   0  0  0  0  0  0  0  0  0  0  0  0
   14.7818   30.0265   -6.4439 H   0  0  0  0  0  0  0  0  0  0  0  0
 23 24  1  0  0  0
 24 21  1  0  0  0
 21 22  1  0  0  0
 21  1  1  0  0  0
  1  2  1  0  0  0
  2  3  1  0  0  0
  3  4  2  0  0  0
  3  5  1  0  0  0
  5 33  1  0  0  0
 33 34  1  0  0  0
 34 35  2  0  0  0
 35 36  1  0  0  0
 36 37  2  0  0  0
 37 38  1  0  0  0
 37 39  1  0  0  0
 39 40  2  0  0  0
  5  6  1  0  0  0
  6  7  1  0  0  0
  7  8  2  0  0  0
  7  9  1  0  0  0
  9 10  1  0  0  0
 10 11  1  0  0  0
 11 12  2  0  0  0
 11 13  1  0  0  0
 13 14  1  0  0  0
 14 15  1  0  0  0
 15 16  2  0  0  0
 13 25  1  0  0  0
 25 26  1  0  0  0
 25 27  1  0  0  0
 27 28  1  0  0  0
  9 29  1  0  0  0
 29 30  1  0  0  0
 29 31  1  0  0  0
 31 32  1  0  0  0
 15  1  1  0  0  0
 40 34  1  0  0  0
  2 17  1  0  0  0
 38 41  1  0  0  0
  6 18  1  0  0  0
 10 19  1  0  0  0
 14 20  1  0  0  0
M  END
> <minimizedAffinity>
19.92728

> <CNNscore>
0.5153584480

> <CNNaffinity>
7.0201807022

> <CNN_VS>
3.6179094315

> <CNNaffinity_variance>
1.0229742527

$$$$
[H]Oc1c([H])c([H])c(C([H])([H])[C@@]2([H])C(=O)N([H])[C@@]([H])([C@@]([H])(C([H])([H])[H])C([H])([H])C([H])([H])[H])C(=O)N([H])[C@@]([H])([C@@]([H])(C([H])([H])[H])C([H])([H])C([H])([H])[H])C(=O)N([H])[C@@]([H])([C@@]([H])(C([H])([H])[H])C([H])([H])C([H])([H])[H])C(=O)N2[H])c([H])c1[H]


 41 42  0  0  0  0  0  0  0  0999 V2000
   14.5779   22.1625   -3.2743 C   0  0  0  0  0  0  0  0  0  0  0  0
   15.7024   23.0586   -3.4462 N   0  0  0  0  0  0  0  0  0  0  0  0
   15.9398   24.1711   -2.5739 C   0  0  0  0  0  0  0  0  0  0  0  0
   17.1115   24.3911   -2.1752 O   0  0  0  0  0  0  0  0  0  0  0  0
   14.8737   25.0900   -2.1064 C   0  0  0  0  0  0  0  0  0  0  0  0
   15.0556   25.1981   -0.6609 N   0  0  0  0  0  0  0  0  0  0  0  0
   14.3109   24.4599    0.2837 C   0  0  0  0  0  0  0  0  0  0  0  0
   14.9620   23.8947    1.2278 O   0  0  0  0  0  0  0  0  0  0  0  0
   12.8317   24.3141    0.2287 C   0  0  0  0  0  0  0  0  0  0  0  0
   12.4653   23.1370    0.9679 N   0  0  0  0  0  0  0  0  0  0  0  0
   12.7893   21.8175    0.5555 C   0  0  0  0  0  0  0  0  0  0  0  0
   13.2251   20.9516    1.3905 O   0  0  0  0  0  0  0  0  0  0  0  0
   12.6568   21.3293   -0.8470 C   0  0  0  0  0  0  0  0  0  0  0  0
   13.8592   20.6652   -1.3083 N   0  0  0  0  0  0  0  0  0  0  0  0
   14.8490   21.2491   -2.1338 C   0  0  0  0  0  0  0  0  0  0  0  0
   16.0523   20.9815   -1.8928 O   0  0  0  0  0  0  0  0  0  0  0  0
   16.3555   22.8785   -4.2351 H   0  0  0  0  0  0  0  0  0  0  0  0
   15.7858   25.8661   -0.3360 H   0  0  0  0  0  0  0  0  0  0  0  0
   11.9331   23.2383    1.8526 H   0  0  0  0  0  0  0  0  0  0  0  0
   13.9726   19.6610   -0.9804 H   0  0  0  0  0  0  0  0  0  0  0  0
   14.3503   21.3743   -4.5439 C   0  0  0  0  0  0  0  0  0  0  0  0
   15.6626   21.0219   -5.2183 C   0  0  0  0  0  0  0  0  0  0  0  0
   13.5145   19.2758   -5.6133 C   0  0  0  0  0  0  0  0  0  0  0  0
   13.5425   20.1347   -4.3637 C   0  0  0  0  0  0  0  0  0  0  0  0
   11.4588   20.4022   -0.9010 C   0  0  0  0  0  0  0  0  0  0  0  0
   11.5278   19.3176    0.1222 C   0  0  0  0  0  0  0  0  0  0  0  0
   10.1821   21.1807   -0.6608 C   0  0  0  0  0  0  0  0  0  0  0  0
   10.0955   22.3536   -1.5933 C   0  0  0  0  0  0  0  0  0  0  0  0
   12.1002   25.5574    0.5640 C   0  0  0  0  0  0  0  0  0  0  0  0
   11.1703   25.3276    1.7587 C   0  0  0  0  0  0  0  0  0  0  0  0
   12.8889   26.8019    0.7157 C   0  0  0  0  0  0  0  0  0  0  0  0
   13.3591   27.1299    2.0994 C   0  0  0  0  0  0  0  0  0  0  0  0
   15.0609   26.4626   -2.6866 C   0  0  0  0  0  0  0  0  0  0  0  0
   15.3191   26.4359   -4.1478 C   0  0  0  0  0  0  0  0  0  0  0  0
   15.9966   27.4526   -4.7829 C   0  0  0  0  0  0  0  0  0  0  0  0
   16.2389   27.4169   -6.1613 C   0  0  0  0  0  0  0  0  0  0  0  0
   15.8056   26.3590   -6.9307 C   0  0  0  0  0  0  0  0  0  0  0  0
   16.0415   26.3130   -8.3048 O   0  0  0  0  0  0  0  0  0  0  0  0
   15.1273   25.3418   -6.2931 C   0  0  0  0  0  0  0  0  0  0  0  0
   14.8909   25.3810   -4.9360 C   0  0  0  0  0  0  0  0  0  0  0  0
   15.3398   26.7245   -8.9069 H   0  0  0  0  0  0  0  0  0  0  0  0
 23 24  1  0  0  0
 24 21  1  0  0  0
 21 22  1  0  0  0
 21  1  1  0  0  0
  1  2  1  0  0  0
  2  3  1  0  0  0
  3  4  2  0  0  0
  3  5  1  0  0  0
  5 33  1  0  0  0
 33 34  1  0  0  0
 34 35  2  0  0  0
 35 36  1  0  0  0
 36 37  2  0  0  0
 37 38  1  0  0  0
 37 39  1  0  0  0
 39 40  2  0  0  0
  5  6  1  0  0  0
  6  7  1  0  0  0
  7  8  2  0  0  0
  7  9  1  0  0  0
  9 10  1  0  0  0
 10 11  1  0  0  0
 11 12  2  0  0  0
 11 13  1  0  0  0
 13 14  1  0  0  0
 14 15  1  0  0  0
 15 16  2  0  0  0
 13 25  1  0  0  0
 25 26  1  0  0  0
 25 27  1  0  0  0
 27 28  1  0  0  0
  9 29  1  0  0  0
 29 30  1  0  0  0
 29 31  1  0  0  0
 31 32  1  0  0  0
 15  1  1  0  0  0
 40 34  1  0  0  0
  2 17  1  0  0  0
 38 41  1  0  0  0
  6 18  1  0  0  0
 10 19  1  0  0  0
 14 20  1  0  0  0
M  END
> <minimizedAffinity>
8.58376

> <CNNscore>
0.5052657723

> <CNNaffinity>
7.7673072815

> <CNN_VS>
3.9245545864

> <CNNaffinity_variance>
1.0043331385

$$$$
[H]Oc1c([H])c([H])c(C([H])([H])[C@@]2([H])C(=O)N([H])[C@@]([H])([C@@]([H])(C([H])([H])[H])C([H])([H])C([H])([H])[H])C(=O)N([H])[C@@]([H])([C@@]([H])(C([H])([H])[H])C([H])([H])C([H])([H])[H])C(=O)N([H])[C@@]([H])([C@@]([H])(C([H])([H])[H])C([H])([H])C([H])([H])[H])C(=O)N2[H])c([H])c1[H]


 41 42  0  0  0  0  0  0  0  0999 V2000
   14.1318   24.6857    0.5310 C   0  0  0  0  0  0  0  0  0  0  0  0
   13.3051   23.5464    0.8711 N   0  0  0  0  0  0  0  0  0  0  0  0
   13.1141   22.4409   -0.0212 C   0  0  0  0  0  0  0  0  0  0  0  0
   13.1645   21.2724    0.4397 O   0  0  0  0  0  0  0  0  0  0  0  0
   12.8577   22.5932   -1.4741 C   0  0  0  0  0  0  0  0  0  0  0  0
   13.7848   21.6770   -2.1338 N   0  0  0  0  0  0  0  0  0  0  0  0
   15.0184   22.0730   -2.6934 C   0  0  0  0  0  0  0  0  0  0  0  0
   16.0415   21.3575   -2.4174 O   0  0  0  0  0  0  0  0  0  0  0  0
   15.1760   23.2627   -3.5720 C   0  0  0  0  0  0  0  0  0  0  0  0
   16.5528   23.6740   -3.5341 N   0  0  0  0  0  0  0  0  0  0  0  0
   17.1785   24.2198   -2.3822 C   0  0  0  0  0  0  0  0  0  0  0  0
   18.3515   23.8509   -2.0290 O   0  0  0  0  0  0  0  0  0  0  0  0
   16.5479   25.2437   -1.5007 C   0  0  0  0  0  0  0  0  0  0  0  0
   16.6194   24.8757   -0.1010 N   0  0  0  0  0  0  0  0  0  0  0  0
   15.5635   24.3047    0.6481 C   0  0  0  0  0  0  0  0  0  0  0  0
   15.8470   23.4061    1.4785 O   0  0  0  0  0  0  0  0  0  0  0  0
   12.8378   23.5409    1.8000 H   0  0  0  0  0  0  0  0  0  0  0  0
   13.4936   20.6779   -2.1783 H   0  0  0  0  0  0  0  0  0  0  0  0
   17.1357   23.5757   -4.3865 H   0  0  0  0  0  0  0  0  0  0  0  0
   17.5546   25.0641    0.3665 H   0  0  0  0  0  0  0  0  0  0  0  0
   13.8132   25.8439    1.4486 C   0  0  0  0  0  0  0  0  0  0  0  0
   14.9759   26.8141    1.5377 C   0  0  0  0  0  0  0  0  0  0  0  0
   12.5297   27.9710    1.7205 C   0  0  0  0  0  0  0  0  0  0  0  0
   12.5754   26.5926    1.0896 C   0  0  0  0  0  0  0  0  0  0  0  0
   17.2425   26.5658   -1.7601 C   0  0  0  0  0  0  0  0  0  0  0  0
   18.0793   26.5400   -2.9959 C   0  0  0  0  0  0  0  0  0  0  0  0
   16.2209   27.6724   -1.9193 C   0  0  0  0  0  0  0  0  0  0  0  0
   16.7261   28.7258   -2.8616 C   0  0  0  0  0  0  0  0  0  0  0  0
   14.5758   23.0920   -4.9151 C   0  0  0  0  0  0  0  0  0  0  0  0
   14.9811   24.2471   -5.8350 C   0  0  0  0  0  0  0  0  0  0  0  0
   14.7383   21.7790   -5.5812 C   0  0  0  0  0  0  0  0  0  0  0  0
   15.9914   21.0213   -5.2667 C   0  0  0  0  0  0  0  0  0  0  0  0
   11.4652   22.1487   -1.8191 C   0  0  0  0  0  0  0  0  0  0  0  0
   10.4930   22.4154   -0.7299 C   0  0  0  0  0  0  0  0  0  0  0  0
   10.1411   23.6971   -0.3701 C   0  0  0  0  0  0  0  0  0  0  0  0
    9.2202   23.9390    0.6561 C   0  0  0  0  0  0  0  0  0  0  0  0
    8.6333   22.8982    1.3427 C   0  0  0  0  0  0  0  0  0  0  0  0
    7.7145   23.1275    2.3669 O   0  0  0  0  0  0  0  0  0  0  0  0
    8.9870   21.6154    0.9812 C   0  0  0  0  0  0  0  0  0  0  0  0
    9.8940   21.3819   -0.0297 C   0  0  0  0  0  0  0  0  0  0  0  0
    8.0833   23.2194    3.3049 H   0  0  0  0  0  0  0  0  0  0  0  0
 23 24  1  0  0  0
 24 21  1  0  0  0
 21 22  1  0  0  0
 21  1  1  0  0  0
  1  2  1  0  0  0
  2  3  1  0  0  0
  3  4  2  0  0  0
  3  5  1  0  0  0
  5 33  1  0  0  0
 33 34  1  0  0  0
 34 35  2  0  0  0
 35 36  1  0  0  0
 36 37  2  0  0  0
 37 38  1  0  0  0
 37 39  1  0  0  0
 39 40  2  0  0  0
  5  6  1  0  0  0
  6  7  1  0  0  0
  7  8  2  0  0  0
  7  9  1  0  0  0
  9 10  1  0  0  0
 10 11  1  0  0  0
 11 12  2  0  0  0
 11 13  1  0  0  0
 13 14  1  0  0  0
 14 15  1  0  0  0
 15 16  2  0  0  0
 13 25  1  0  0  0
 25 26  1  0  0  0
 25 27  1  0  0  0
 27 28  1  0  0  0
  9 29  1  0  0  0
 29 30  1  0  0  0
 29 31  1  0  0  0
 31 32  1  0  0  0
 15  1  1  0  0  0
 40 34  1  0  0  0
  2 17  1  0  0  0
 38 41  1  0  0  0
  6 18  1  0  0  0
 10 19  1  0  0  0
 14 20  1  0  0  0
M  END
> <minimizedAffinity>
18.57013

> <CNNscore>
0.4993433654

> <CNNaffinity>
7.4193162918

> <CNN_VS>
3.7047863007

> <CNNaffinity_variance>
1.3445577621

$$$$
[H]Oc1c([H])c([H])c(C([H])([H])[C@@]2([H])C(=O)N([H])[C@@]([H])([C@@]([H])(C([H])([H])[H])C([H])([H])C([H])([H])[H])C(=O)N([H])[C@@]([H])([C@@]([H])(C([H])([H])[H])C([H])([H])C([H])([H])[H])C(=O)N([H])[C@@]([H])([C@@]([H])(C([H])([H])[H])C([H])([H])C([H])([H])[H])C(=O)N2[H])c([H])c1[H]


 41 42  0  0  0  0  0  0  0  0999 V2000
   12.3464   20.7824    1.5521 C   0  0  0  0  0  0  0  0  0  0  0  0
   13.7847   20.6334    1.4733 N   0  0  0  0  0  0  0  0  0  0  0  0
   14.6274   21.6168    0.8587 C   0  0  0  0  0  0  0  0  0  0  0  0
   15.6980   21.9426    1.4312 O   0  0  0  0  0  0  0  0  0  0  0  0
   14.3089   22.2824   -0.4279 C   0  0  0  0  0  0  0  0  0  0  0  0
   14.5067   23.7101   -0.1899 N   0  0  0  0  0  0  0  0  0  0  0  0
   13.4611   24.6118    0.1024 C   0  0  0  0  0  0  0  0  0  0  0  0
   13.6423   25.4204    1.0761 O   0  0  0  0  0  0  0  0  0  0  0  0
   12.1837   24.6603   -0.6580 C   0  0  0  0  0  0  0  0  0  0  0  0
   11.1846   25.2726    0.1746 N   0  0  0  0  0  0  0  0  0  0  0  0
   10.6674   24.6717    1.3526 C   0  0  0  0  0  0  0  0  0  0  0  0
   10.4980   25.3521    2.4227 O   0  0  0  0  0  0  0  0  0  0  0  0
   10.2837   23.2344    1.4524 C   0  0  0  0  0  0  0  0  0  0  0  0
   10.8629   22.5959    2.6171 N   0  0  0  0  0  0  0  0  0  0  0  0
   12.0135   21.7723    2.6094 C   0  0  0  0  0  0  0  0  0  0  0  0
   12.8221   21.8782    3.5646 O   0  0  0  0  0  0  0  0  0  0  0  0
   14.2110   19.7772    1.8813 H   0  0  0  0  0  0  0  0  0  0  0  0
   15.4879   24.0557   -0.2439 H   0  0  0  0  0  0  0  0  0  0  0  0
   10.8080   26.2036   -0.0854 H   0  0  0  0  0  0  0  0  0  0  0  0
   10.3563   22.7839    3.5318 H   0  0  0  0  0  0  0  0  0  0  0  0
   11.7073   19.4464    1.8548 C   0  0  0  0  0  0  0  0  0  0  0  0
   11.3711   19.3159    3.3282 C   0  0  0  0  0  0  0  0  0  0  0  0
   10.5104   19.8389   -0.3039 C   0  0  0  0  0  0  0  0  0  0  0  0
   10.4919   19.1469    1.0456 C   0  0  0  0  0  0  0  0  0  0  0  0
    8.7699   23.1622    1.4787 C   0  0  0  0  0  0  0  0  0  0  0  0
    8.1562   23.5376    0.1708 C   0  0  0  0  0  0  0  0  0  0  0  0
    8.3178   21.7559    1.8123 C   0  0  0  0  0  0  0  0  0  0  0  0
    7.3363   21.2605    0.7905 C   0  0  0  0  0  0  0  0  0  0  0  0
   12.3281   25.2088   -2.0261 C   0  0  0  0  0  0  0  0  0  0  0  0
   10.9715   25.2470   -2.7351 C   0  0  0  0  0  0  0  0  0  0  0  0
   13.0641   26.4846   -2.1835 C   0  0  0  0  0  0  0  0  0  0  0  0
   13.1653   27.0298   -3.5748 C   0  0  0  0  0  0  0  0  0  0  0  0
   15.2781   21.8668   -1.4972 C   0  0  0  0  0  0  0  0  0  0  0  0
   15.4215   22.8855   -2.5669 C   0  0  0  0  0  0  0  0  0  0  0  0
   15.9467   24.1331   -2.3142 C   0  0  0  0  0  0  0  0  0  0  0  0
   16.0817   25.0863   -3.3304 C   0  0  0  0  0  0  0  0  0  0  0  0
   15.6918   24.8065   -4.6222 C   0  0  0  0  0  0  0  0  0  0  0  0
   15.8217   25.7486   -5.6426 O   0  0  0  0  0  0  0  0  0  0  0  0
   15.1660   23.5567   -4.8735 C   0  0  0  0  0  0  0  0  0  0  0  0
   15.0349   22.6213   -3.8701 C   0  0  0  0  0  0  0  0  0  0  0  0
   15.0386   26.3707   -5.7981 H   0  0  0  0  0  0  0  0  0  0  0  0
 23 24  1  0  0  0
 24 21  1  0  0  0
 21 22  1  0  0  0
 21  1  1  0  0  0
  1  2  1  0  0  0
  2  3  1  0  0  0
  3  4  2  0  0  0
  3  5  1  0  0  0
  5 33  1  0  0  0
 33 34  1  0  0  0
 34 35  2  0  0  0
 35 36  1  0  0  0
 36 37  2  0  0  0
 37 38  1  0  0  0
 37 39  1  0  0  0
 39 40  2  0  0  0
  5  6  1  0  0  0
  6  7  1  0  0  0
  7  8  2  0  0  0
  7  9  1  0  0  0
  9 10  1  0  0  0
 10 11  1  0  0  0
 11 12  2  0  0  0
 11 13  1  0  0  0
 13 14  1  0  0  0
 14 15  1  0  0  0
 15 16  2  0  0  0
 13 25  1  0  0  0
 25 26  1  0  0  0
 25 27  1  0  0  0
 27 28  1  0  0  0
  9 29  1  0  0  0
 29 30  1  0  0  0
 29 31  1  0  0  0
 31 32  1  0  0  0
 15  1  1  0  0  0
 40 34  1  0  0  0
  2 17  1  0  0  0
 38 41  1  0  0  0
  6 18  1  0  0  0
 10 19  1  0  0  0
 14 20  1  0  0  0
M  END
> <minimizedAffinity>
-0.09953

> <CNNscore>
0.4942794442

> <CNNaffinity>
7.5115828514

> <CNN_VS>
3.7128210068

> <CNNaffinity_variance>
0.3795726001

$$$$
[H]Oc1c([H])c([H])c(C(=O)N([H])[C@@]([H])(C(=O)N([H])[C@]([H])(C(=O)N([H])[C@]([H])(C(=O)N([H])[C@@]([H])(C([H])([H])C([H])(C([H])([H])[H])C([H])([H])[H])C([H])(C([H])([H])[H])C([H])([H])[H])C([H])([H])C([H])(C([H])([H])[H])C([H])([H])[H])C([H])([H])c2c([H])c([H])c(O[H])c([H])c2[H])C([H])([H])c2c([H])c([H])c([H])c([H])c2[H])c([H])c1[H]


 55 57  0  0  0  0  0  0  0  0999 V2000
   12.3090   24.5044    0.2863 C   0  0  0  0  0  0  0  0  0  0  0  0
   10.3365   23.7204    1.6965 N   0  0  0  0  0  0  0  0  0  0  0  0
   11.6650   23.5599    1.2278 C   0  0  0  0  0  0  0  0  0  0  0  0
   12.2857   22.5634    1.6530 O   0  0  0  0  0  0  0  0  0  0  0  0
    9.7878   24.5346    1.3703 H   0  0  0  0  0  0  0  0  0  0  0  0
    9.7083   22.7945    2.6141 C   0  0  0  0  0  0  0  0  0  0  0  0
    7.5408   21.9840    1.5580 N   0  0  0  0  0  0  0  0  0  0  0  0
    8.9450   21.8051    1.8153 C   0  0  0  0  0  0  0  0  0  0  0  0
    9.5353   20.8024    1.3616 O   0  0  0  0  0  0  0  0  0  0  0  0
    7.0745   22.8371    1.9581 H   0  0  0  0  0  0  0  0  0  0  0  0
    6.7488   21.0646    0.7893 C   0  0  0  0  0  0  0  0  0  0  0  0
    5.6277   20.4905    1.5765 C   0  0  0  0  0  0  0  0  0  0  0  0
    5.6240   20.9032    3.0421 C   0  0  0  0  0  0  0  0  0  0  0  0
    5.8270   18.9682    1.6070 C   0  0  0  0  0  0  0  0  0  0  0  0
    7.5570   20.1323   -0.0382 C   0  0  0  0  0  0  0  0  0  0  0  0
    7.0145   18.2915   -1.5157 C   0  0  0  0  0  0  0  0  0  0  0  0
    7.0844   19.8252   -1.4059 C   0  0  0  0  0  0  0  0  0  0  0  0
    7.9777   20.2633   -2.5374 C   0  0  0  0  0  0  0  0  0  0  0  0
    8.7537   23.5625    3.5099 C   0  0  0  0  0  0  0  0  0  0  0  0
    8.8850   25.0490    3.3540 C   0  0  0  0  0  0  0  0  0  0  0  0
    7.7380   25.6017    2.5162 C   0  0  0  0  0  0  0  0  0  0  0  0
    8.7874   25.7664    4.6877 C   0  0  0  0  0  0  0  0  0  0  0  0
   13.6735   24.1604    0.0772 N   0  0  0  0  0  0  0  0  0  0  0  0
   14.7961   24.7152    0.7233 C   0  0  0  0  0  0  0  0  0  0  0  0
   14.5338   25.6225    1.5848 O   0  0  0  0  0  0  0  0  0  0  0  0
   13.8891   23.4197   -0.6269 H   0  0  0  0  0  0  0  0  0  0  0  0
   16.1846   24.3657    0.5139 C   0  0  0  0  0  0  0  0  0  0  0  0
   16.7987   25.4032   -0.3316 N   0  0  0  0  0  0  0  0  0  0  0  0
   16.6663   25.4988   -1.7077 C   0  0  0  0  0  0  0  0  0  0  0  0
   15.9779   24.6588   -2.3258 O   0  0  0  0  0  0  0  0  0  0  0  0
   17.3720   26.1054    0.1917 H   0  0  0  0  0  0  0  0  0  0  0  0
   17.3100   26.5577   -2.4569 C   0  0  0  0  0  0  0  0  0  0  0  0
   18.7079   26.6352   -2.5493 C   0  0  0  0  0  0  0  0  0  0  0  0
   19.3236   27.6372   -3.2553 C   0  0  0  0  0  0  0  0  0  0  0  0
   18.6258   28.6190   -3.9106 C   0  0  0  0  0  0  0  0  0  0  0  0
   19.2443   29.6388   -4.6292 O   0  0  0  0  0  0  0  0  0  0  0  0
   17.2320   28.5623   -3.8322 C   0  0  0  0  0  0  0  0  0  0  0  0
   16.6187   27.5500   -3.1194 C   0  0  0  0  0  0  0  0  0  0  0  0
   19.5204   30.5225   -4.2593 H   0  0  0  0  0  0  0  0  0  0  0  0
   16.5542   23.0045    0.0941 C   0  0  0  0  0  0  0  0  0  0  0  0
   15.5181   22.0168   -0.1179 C   0  0  0  0  0  0  0  0  0  0  0  0
   14.8413   21.9353   -1.3094 C   0  0  0  0  0  0  0  0  0  0  0  0
   13.8521   21.0005   -1.5444 C   0  0  0  0  0  0  0  0  0  0  0  0
   13.5195   20.1147   -0.5668 C   0  0  0  0  0  0  0  0  0  0  0  0
   14.1711   20.1600    0.6415 C   0  0  0  0  0  0  0  0  0  0  0  0
   15.1521   21.1023    0.8461 C   0  0  0  0  0  0  0  0  0  0  0  0
   11.4829   24.7162   -0.9476 C   0  0  0  0  0  0  0  0  0  0  0  0
   12.2460   25.2590   -2.0914 C   0  0  0  0  0  0  0  0  0  0  0  0
   12.0983   26.5485   -2.5820 C   0  0  0  0  0  0  0  0  0  0  0  0
   12.8083   27.0401   -3.6512 C   0  0  0  0  0  0  0  0  0  0  0  0
   13.7175   26.2408   -4.2880 C   0  0  0  0  0  0  0  0  0  0  0  0
   14.4524   26.7188   -5.3788 O   0  0  0  0  0  0  0  0  0  0  0  0
   13.8856   24.9565   -3.8231 C   0  0  0  0  0  0  0  0  0  0  0  0
   13.1832   24.4561   -2.7581 C   0  0  0  0  0  0  0  0  0  0  0  0
   15.1185   26.1205   -5.8387 H   0  0  0  0  0  0  0  0  0  0  0  0
 16 17  1  0  0  0
 17 18  1  0  0  0
 17 15  1  0  0  0
 15 11  1  0  0  0
 11  7  1  0  0  0
  7  8  1  0  0  0
  8  9  2  0  0  0
  8  6  1  0  0  0
  6 19  1  0  0  0
 19 20  1  0  0  0
 20 21  1  0  0  0
 20 22  1  0  0  0
  6  2  1  0  0  0
  2  3  1  0  0  0
  3  4  2  0  0  0
  3  1  1  0  0  0
  1 47  1  0  0  0
 47 48  1  0  0  0
 48 49  2  0  0  0
 49 50  1  0  0  0
 50 51  2  0  0  0
 51 52  1  0  0  0
 51 53  1  0  0  0
 53 54  2  0  0  0
  1 23  1  0  0  0
 23 24  1  0  0  0
 24 25  2  0  0  0
 24 27  1  0  0  0
 27 40  1  0  0  0
 40 41  1  0  0  0
 41 42  2  0  0  0
 42 43  1  0  0  0
 43 44  2  0  0  0
 44 45  1  0  0  0
 45 46  2  0  0  0
 27 28  1  0  0  0
 28 29  1  0  0  0
 29 30  2  0  0  0
 29 32  1  0  0  0
 32 33  2  0  0  0
 33 34  1  0  0  0
 34 35  2  0  0  0
 35 36  1  0  0  0
 35 37  1  0  0  0
 37 38  2  0  0  0
 11 12  1  0  0  0
 12 13  1  0  0  0
 12 14  1  0  0  0
 54 48  1  0  0  0
 46 41  1  0  0  0
 38 32  1  0  0  0
  7 10  1  0  0  0
  2  5  1  0  0  0
 52 55  1  0  0  0
 23 26  1  0  0  0
 28 31  1  0  0  0
 36 39  1  0  0  0
M  END
> <minimizedAffinity>
-0.75893

> <CNNscore>
0.5505635738

> <CNNaffinity>
8.3175935745

> <CNN_VS>
4.5793638229

> <CNNaffinity_variance>
0.1901220381

$$$$
[H]Oc1c([H])c([H])c(C(=O)N([H])[C@@]([H])(C(=O)N([H])[C@]([H])(C(=O)N([H])[C@]([H])(C(=O)N([H])[C@@]([H])(C([H])([H])C([H])(C([H])([H])[H])C([H])([H])[H])C([H])(C([H])([H])[H])C([H])([H])[H])C([H])([H])C([H])(C([H])([H])[H])C([H])([H])[H])C([H])([H])c2c([H])c([H])c(O[H])c([H])c2[H])C([H])([H])c2c([H])c([H])c([H])c([H])c2[H])c([H])c1[H]


 55 57  0  0  0  0  0  0  0  0999 V2000
   12.0476   20.9468   -0.0155 C   0  0  0  0  0  0  0  0  0  0  0  0
   13.6179   21.8252   -1.8201 N   0  0  0  0  0  0  0  0  0  0  0  0
   13.1810   20.7898   -0.9556 C   0  0  0  0  0  0  0  0  0  0  0  0
   13.8078   19.7119   -1.0216 O   0  0  0  0  0  0  0  0  0  0  0  0
   13.1240   22.7340   -1.7987 H   0  0  0  0  0  0  0  0  0  0  0  0
   14.7277   21.6704   -2.7357 C   0  0  0  0  0  0  0  0  0  0  0  0
   15.6269   23.6419   -1.4036 N   0  0  0  0  0  0  0  0  0  0  0  0
   15.5892   22.8719   -2.6183 C   0  0  0  0  0  0  0  0  0  0  0  0
   16.2905   23.2165   -3.5925 O   0  0  0  0  0  0  0  0  0  0  0  0
   15.0212   23.3260   -0.6045 H   0  0  0  0  0  0  0  0  0  0  0  0
   16.4426   24.8112   -1.2272 C   0  0  0  0  0  0  0  0  0  0  0  0
   16.5323   25.2273    0.1958 C   0  0  0  0  0  0  0  0  0  0  0  0
   17.4611   24.3626    1.0372 C   0  0  0  0  0  0  0  0  0  0  0  0
   15.1444   25.0182    0.8185 C   0  0  0  0  0  0  0  0  0  0  0  0
   16.1905   25.8693   -2.2391 C   0  0  0  0  0  0  0  0  0  0  0  0
   16.7051   27.8610   -3.5174 C   0  0  0  0  0  0  0  0  0  0  0  0
   17.1448   26.9965   -2.3222 C   0  0  0  0  0  0  0  0  0  0  0  0
   18.5818   26.6386   -2.5992 C   0  0  0  0  0  0  0  0  0  0  0  0
   14.1873   21.5746   -4.1507 C   0  0  0  0  0  0  0  0  0  0  0  0
   14.7402   20.3993   -4.9019 C   0  0  0  0  0  0  0  0  0  0  0  0
   13.7746   19.9631   -5.9974 C   0  0  0  0  0  0  0  0  0  0  0  0
   16.0304   20.7466   -5.6215 C   0  0  0  0  0  0  0  0  0  0  0  0
   11.4783   22.2463   -0.1204 N   0  0  0  0  0  0  0  0  0  0  0  0
   11.6460   23.3200    0.7765 C   0  0  0  0  0  0  0  0  0  0  0  0
   12.3940   23.0749    1.7837 O   0  0  0  0  0  0  0  0  0  0  0  0
   10.8664   22.4476   -0.9425 H   0  0  0  0  0  0  0  0  0  0  0  0
   11.0697   24.6432    0.6710 C   0  0  0  0  0  0  0  0  0  0  0  0
   11.7509   25.3570   -0.4221 N   0  0  0  0  0  0  0  0  0  0  0  0
   11.8708   24.9016   -1.7254 C   0  0  0  0  0  0  0  0  0  0  0  0
   11.3749   23.8006   -2.0473 O   0  0  0  0  0  0  0  0  0  0  0  0
   12.1620   26.2795   -0.1473 H   0  0  0  0  0  0  0  0  0  0  0  0
   12.5614   25.6756   -2.7357 C   0  0  0  0  0  0  0  0  0  0  0  0
   13.5330   25.0896   -3.5609 C   0  0  0  0  0  0  0  0  0  0  0  0
   14.1926   25.8181   -4.5179 C   0  0  0  0  0  0  0  0  0  0  0  0
   13.9518   27.1510   -4.7316 C   0  0  0  0  0  0  0  0  0  0  0  0
   14.6173   27.8963   -5.7013 O   0  0  0  0  0  0  0  0  0  0  0  0
   12.9881   27.7562   -3.9211 C   0  0  0  0  0  0  0  0  0  0  0  0
   12.3276   27.0161   -2.9593 C   0  0  0  0  0  0  0  0  0  0  0  0
   15.4685   28.3968   -5.5637 H   0  0  0  0  0  0  0  0  0  0  0  0
   10.9001   25.4787    1.8706 C   0  0  0  0  0  0  0  0  0  0  0  0
    9.6821   25.3770    2.6451 C   0  0  0  0  0  0  0  0  0  0  0  0
    9.3077   26.3650    3.5215 C   0  0  0  0  0  0  0  0  0  0  0  0
    8.1489   26.3000    4.2701 C   0  0  0  0  0  0  0  0  0  0  0  0
    7.3309   25.2197    4.1487 C   0  0  0  0  0  0  0  0  0  0  0  0
    7.6664   24.2072    3.2834 C   0  0  0  0  0  0  0  0  0  0  0  0
    8.8270   24.3002    2.5509 C   0  0  0  0  0  0  0  0  0  0  0  0
   11.0894   19.7956   -0.0960 C   0  0  0  0  0  0  0  0  0  0  0  0
    9.6679   20.2013   -0.1073 C   0  0  0  0  0  0  0  0  0  0  0  0
    8.7989   19.9577   -1.1613 C   0  0  0  0  0  0  0  0  0  0  0  0
    7.4805   20.3462   -1.1638 C   0  0  0  0  0  0  0  0  0  0  0  0
    6.9663   21.0104   -0.0843 C   0  0  0  0  0  0  0  0  0  0  0  0
    5.6271   21.4161   -0.0634 O   0  0  0  0  0  0  0  0  0  0  0  0
    7.8050   21.2659    0.9764 C   0  0  0  0  0  0  0  0  0  0  0  0
    9.1208   20.8832    0.9896 C   0  0  0  0  0  0  0  0  0  0  0  0
    5.2608   21.9042    0.7370 H   0  0  0  0  0  0  0  0  0  0  0  0
 16 17  1  0  0  0
 17 18  1  0  0  0
 17 15  1  0  0  0
 15 11  1  0  0  0
 11  7  1  0  0  0
  7  8  1  0  0  0
  8  9  2  0  0  0
  8  6  1  0  0  0
  6 19  1  0  0  0
 19 20  1  0  0  0
 20 21  1  0  0  0
 20 22  1  0  0  0
  6  2  1  0  0  0
  2  3  1  0  0  0
  3  4  2  0  0  0
  3  1  1  0  0  0
  1 47  1  0  0  0
 47 48  1  0  0  0
 48 49  2  0  0  0
 49 50  1  0  0  0
 50 51  2  0  0  0
 51 52  1  0  0  0
 51 53  1  0  0  0
 53 54  2  0  0  0
  1 23  1  0  0  0
 23 24  1  0  0  0
 24 25  2  0  0  0
 24 27  1  0  0  0
 27 40  1  0  0  0
 40 41  1  0  0  0
 41 42  2  0  0  0
 42 43  1  0  0  0
 43 44  2  0  0  0
 44 45  1  0  0  0
 45 46  2  0  0  0
 27 28  1  0  0  0
 28 29  1  0  0  0
 29 30  2  0  0  0
 29 32  1  0  0  0
 32 33  2  0  0  0
 33 34  1  0  0  0
 34 35  2  0  0  0
 35 36  1  0  0  0
 35 37  1  0  0  0
 37 38  2  0  0  0
 11 12  1  0  0  0
 12 13  1  0  0  0
 12 14  1  0  0  0
 54 48  1  0  0  0
 46 41  1  0  0  0
 38 32  1  0  0  0
  7 10  1  0  0  0
  2  5  1  0  0  0
 52 55  1  0  0  0
 23 26  1  0  0  0
 28 31  1  0  0  0
 36 39  1  0  0  0
M  END
> <minimizedAffinity>
4.35057

> <CNNscore>
0.5132570267

> <CNNaffinity>
8.1038618088

> <CNN_VS>
4.1593642235

> <CNNaffinity_variance>
0.2528932989

$$$$
[H]Oc1c([H])c([H])c(C(=O)N([H])[C@@]([H])(C(=O)N([H])[C@]([H])(C(=O)N([H])[C@]([H])(C(=O)N([H])[C@@]([H])(C([H])([H])C([H])(C([H])([H])[H])C([H])([H])[H])C([H])(C([H])([H])[H])C([H])([H])[H])C([H])([H])C([H])(C([H])([H])[H])C([H])([H])[H])C([H])([H])c2c([H])c([H])c(O[H])c([H])c2[H])C([H])([H])c2c([H])c([H])c([H])c([H])c2[H])c([H])c1[H]


 55 57  0  0  0  0  0  0  0  0999 V2000
   10.8745   20.6119    1.4809 C   0  0  0  0  0  0  0  0  0  0  0  0
   13.1976   21.3045    0.6950 N   0  0  0  0  0  0  0  0  0  0  0  0
   12.3487   20.4722    1.4677 C   0  0  0  0  0  0  0  0  0  0  0  0
   12.9104   19.5935    2.1543 O   0  0  0  0  0  0  0  0  0  0  0  0
   12.7722   22.0441    0.1098 H   0  0  0  0  0  0  0  0  0  0  0  0
   14.6381   21.1680    0.6861 C   0  0  0  0  0  0  0  0  0  0  0  0
   14.6762   23.6787    0.2792 N   0  0  0  0  0  0  0  0  0  0  0  0
   15.2266   22.5103    0.9132 C   0  0  0  0  0  0  0  0  0  0  0  0
   16.2158   22.6224    1.6673 O   0  0  0  0  0  0  0  0  0  0  0  0
   13.8460   23.5479   -0.3523 H   0  0  0  0  0  0  0  0  0  0  0  0
   15.1983   25.0043    0.4623 C   0  0  0  0  0  0  0  0  0  0  0  0
   14.4513   25.7675    1.4947 C   0  0  0  0  0  0  0  0  0  0  0  0
   13.2965   26.5915    0.9419 C   0  0  0  0  0  0  0  0  0  0  0  0
   15.4186   26.8067    2.0798 C   0  0  0  0  0  0  0  0  0  0  0  0
   15.5155   25.6990   -0.8120 C   0  0  0  0  0  0  0  0  0  0  0  0
   17.1228   26.6331   -2.3643 C   0  0  0  0  0  0  0  0  0  0  0  0
   16.8283   25.4371   -1.4413 C   0  0  0  0  0  0  0  0  0  0  0  0
   16.9158   24.2216   -2.3273 C   0  0  0  0  0  0  0  0  0  0  0  0
   15.0740   20.6505   -0.6725 C   0  0  0  0  0  0  0  0  0  0  0  0
   14.2267   21.1807   -1.7915 C   0  0  0  0  0  0  0  0  0  0  0  0
   15.0260   21.2332   -3.0882 C   0  0  0  0  0  0  0  0  0  0  0  0
   13.0477   20.2716   -2.0855 C   0  0  0  0  0  0  0  0  0  0  0  0
   10.4858   21.9217    1.0844 N   0  0  0  0  0  0  0  0  0  0  0  0
   10.7830   23.1304    1.7447 C   0  0  0  0  0  0  0  0  0  0  0  0
   11.4771   23.0104    2.8115 O   0  0  0  0  0  0  0  0  0  0  0  0
    9.9181   22.0210    0.2133 H   0  0  0  0  0  0  0  0  0  0  0  0
   10.3906   24.4639    1.3424 C   0  0  0  0  0  0  0  0  0  0  0  0
   11.2913   24.9038    0.2636 N   0  0  0  0  0  0  0  0  0  0  0  0
   11.2479   24.4601   -1.0485 C   0  0  0  0  0  0  0  0  0  0  0  0
   10.3904   23.6186   -1.3922 O   0  0  0  0  0  0  0  0  0  0  0  0
   12.0057   25.6104    0.5566 H   0  0  0  0  0  0  0  0  0  0  0  0
   12.1786   24.9512   -2.0433 C   0  0  0  0  0  0  0  0  0  0  0  0
   12.1073   26.2705   -2.5153 C   0  0  0  0  0  0  0  0  0  0  0  0
   12.9843   26.7409   -3.4594 C   0  0  0  0  0  0  0  0  0  0  0  0
   13.9777   25.9654   -3.9998 C   0  0  0  0  0  0  0  0  0  0  0  0
   14.8714   26.4364   -4.9581 O   0  0  0  0  0  0  0  0  0  0  0  0
   14.0678   24.6475   -3.5449 C   0  0  0  0  0  0  0  0  0  0  0  0
   13.1810   24.1807   -2.5937 C   0  0  0  0  0  0  0  0  0  0  0  0
   14.7371   26.3945   -5.9451 H   0  0  0  0  0  0  0  0  0  0  0  0
   10.1675   25.5105    2.3526 C   0  0  0  0  0  0  0  0  0  0  0  0
    9.0283   25.4151    3.2397 C   0  0  0  0  0  0  0  0  0  0  0  0
    9.1411   24.8617    4.4910 C   0  0  0  0  0  0  0  0  0  0  0  0
    8.0746   24.7617    5.3627 C   0  0  0  0  0  0  0  0  0  0  0  0
    6.8525   25.2248    4.9843 C   0  0  0  0  0  0  0  0  0  0  0  0
    6.6938   25.7863    3.7410 C   0  0  0  0  0  0  0  0  0  0  0  0
    7.7748   25.8723    2.8946 C   0  0  0  0  0  0  0  0  0  0  0  0
   10.1978   19.4769    0.7712 C   0  0  0  0  0  0  0  0  0  0  0  0
    9.0017   19.8815    0.0023 C   0  0  0  0  0  0  0  0  0  0  0  0
    7.8451   20.3903    0.5756 C   0  0  0  0  0  0  0  0  0  0  0  0
    6.7361   20.7564   -0.1489 C   0  0  0  0  0  0  0  0  0  0  0  0
    6.7405   20.6247   -1.5103 C   0  0  0  0  0  0  0  0  0  0  0  0
    5.6233   20.9906   -2.2697 O   0  0  0  0  0  0  0  0  0  0  0  0
    7.8744   20.1227   -2.1070 C   0  0  0  0  0  0  0  0  0  0  0  0
    8.9857   19.7547   -1.3945 C   0  0  0  0  0  0  0  0  0  0  0  0
    5.6393   20.8889   -3.2710 H   0  0  0  0  0  0  0  0  0  0  0  0
 16 17  1  0  0  0
 17 18  1  0  0  0
 17 15  1  0  0  0
 15 11  1  0  0  0
 11  7  1  0  0  0
  7  8  1  0  0  0
  8  9  2  0  0  0
  8  6  1  0  0  0
  6 19  1  0  0  0
 19 20  1  0  0  0
 20 21  1  0  0  0
 20 22  1  0  0  0
  6  2  1  0  0  0
  2  3  1  0  0  0
  3  4  2  0  0  0
  3  1  1  0  0  0
  1 47  1  0  0  0
 47 48  1  0  0  0
 48 49  2  0  0  0
 49 50  1  0  0  0
 50 51  2  0  0  0
 51 52  1  0  0  0
 51 53  1  0  0  0
 53 54  2  0  0  0
  1 23  1  0  0  0
 23 24  1  0  0  0
 24 25  2  0  0  0
 24 27  1  0  0  0
 27 40  1  0  0  0
 40 41  1  0  0  0
 41 42  2  0  0  0
 42 43  1  0  0  0
 43 44  2  0  0  0
 44 45  1  0  0  0
 45 46  2  0  0  0
 27 28  1  0  0  0
 28 29  1  0  0  0
 29 30  2  0  0  0
 29 32  1  0  0  0
 32 33  2  0  0  0
 33 34  1  0  0  0
 34 35  2  0  0  0
 35 36  1  0  0  0
 35 37  1  0  0  0
 37 38  2  0  0  0
 11 12  1  0  0  0
 12 13  1  0  0  0
 12 14  1  0  0  0
 54 48  1  0  0  0
 46 41  1  0  0  0
 38 32  1  0  0  0
  7 10  1  0  0  0
  2  5  1  0  0  0
 52 55  1  0  0  0
 23 26  1  0  0  0
 28 31  1  0  0  0
 36 39  1  0  0  0
M  END
> <minimizedAffinity>
0.01996

> <CNNscore>
0.4627684355

> <CNNaffinity>
7.9580292702

> <CNN_VS>
3.6827247143

> <CNNaffinity_variance>
0.4083161354

$$$$
[H]Oc1c([H])c([H])c(C(=O)N([H])[C@@]([H])(C(=O)N([H])[C@]([H])(C(=O)N([H])[C@]([H])(C(=O)N([H])[C@@]([H])(C([H])([H])C([H])(C([H])([H])[H])C([H])([H])[H])C([H])(C([H])([H])[H])C([H])([H])[H])C([H])([H])C([H])(C([H])([H])[H])C([H])([H])[H])C([H])([H])c2c([H])c([H])c(O[H])c([H])c2[H])C([H])([H])c2c([H])c([H])c([H])c([H])c2[H])c([H])c1[H]


 55 57  0  0  0  0  0  0  0  0999 V2000
   14.8777   23.6388   -4.2055 C   0  0  0  0  0  0  0  0  0  0  0  0
   14.0594   22.0611   -2.3792 N   0  0  0  0  0  0  0  0  0  0  0  0
   15.0842   22.8369   -2.9778 C   0  0  0  0  0  0  0  0  0  0  0  0
   16.1970   22.8155   -2.4119 O   0  0  0  0  0  0  0  0  0  0  0  0
   13.1212   22.0530   -2.8152 H   0  0  0  0  0  0  0  0  0  0  0  0
   14.2645   21.2759   -1.1812 C   0  0  0  0  0  0  0  0  0  0  0  0
   12.2136   21.2344    0.3230 N   0  0  0  0  0  0  0  0  0  0  0  0
   12.9582   20.6965   -0.7843 C   0  0  0  0  0  0  0  0  0  0  0  0
   12.5022   19.7260   -1.4246 O   0  0  0  0  0  0  0  0  0  0  0  0
   12.6284   22.0489    0.8425 H   0  0  0  0  0  0  0  0  0  0  0  0
   10.9430   20.7203    0.7528 C   0  0  0  0  0  0  0  0  0  0  0  0
   10.9990   20.1510    2.1236 C   0  0  0  0  0  0  0  0  0  0  0  0
   10.1196   20.8766    3.1327 C   0  0  0  0  0  0  0  0  0  0  0  0
   12.4293   20.3572    2.6429 C   0  0  0  0  0  0  0  0  0  0  0  0
   10.2368   19.9335   -0.2909 C   0  0  0  0  0  0  0  0  0  0  0  0
    7.9528   19.5565   -1.0029 C   0  0  0  0  0  0  0  0  0  0  0  0
    9.1086   20.5730   -1.0025 C   0  0  0  0  0  0  0  0  0  0  0  0
    9.3377   20.9134   -2.4522 C   0  0  0  0  0  0  0  0  0  0  0  0
   14.7674   22.1873   -0.0767 C   0  0  0  0  0  0  0  0  0  0  0  0
   16.0573   21.7104    0.5232 C   0  0  0  0  0  0  0  0  0  0  0  0
   16.5332   22.6749    1.6031 C   0  0  0  0  0  0  0  0  0  0  0  0
   15.8929   20.3748    1.2247 C   0  0  0  0  0  0  0  0  0  0  0  0
   13.8623   24.6155   -4.0082 N   0  0  0  0  0  0  0  0  0  0  0  0
   13.7969   25.5738   -2.9773 C   0  0  0  0  0  0  0  0  0  0  0  0
   14.7651   25.5415   -2.1432 O   0  0  0  0  0  0  0  0  0  0  0  0
   13.0704   24.6424   -4.6886 H   0  0  0  0  0  0  0  0  0  0  0  0
   12.7664   26.5695   -2.7756 C   0  0  0  0  0  0  0  0  0  0  0  0
   11.9217   26.1371   -1.6496 N   0  0  0  0  0  0  0  0  0  0  0  0
   11.5639   24.8274   -1.3718 C   0  0  0  0  0  0  0  0  0  0  0  0
   11.9685   23.9029   -2.1088 O   0  0  0  0  0  0  0  0  0  0  0  0
   11.5879   26.9153   -1.0344 H   0  0  0  0  0  0  0  0  0  0  0  0
   10.7259   24.4974   -0.2379 C   0  0  0  0  0  0  0  0  0  0  0  0
    9.4527   23.9353   -0.4155 C   0  0  0  0  0  0  0  0  0  0  0  0
    8.6531   23.6229    0.6544 C   0  0  0  0  0  0  0  0  0  0  0  0
    9.0370   23.8353    1.9535 C   0  0  0  0  0  0  0  0  0  0  0  0
    8.2306   23.5204    3.0441 O   0  0  0  0  0  0  0  0  0  0  0  0
   10.3013   24.3947    2.1548 C   0  0  0  0  0  0  0  0  0  0  0  0
   11.1013   24.7067    1.0723 C   0  0  0  0  0  0  0  0  0  0  0  0
    7.5705   24.1329    3.4721 H   0  0  0  0  0  0  0  0  0  0  0  0
   11.9774   27.0651   -3.9147 C   0  0  0  0  0  0  0  0  0  0  0  0
   11.6047   28.4622   -3.9710 C   0  0  0  0  0  0  0  0  0  0  0  0
   10.4275   28.8651   -4.5510 C   0  0  0  0  0  0  0  0  0  0  0  0
   10.0410   30.1895   -4.6151 C   0  0  0  0  0  0  0  0  0  0  0  0
   10.8470   31.1503   -4.0876 C   0  0  0  0  0  0  0  0  0  0  0  0
   12.0344   30.7924   -3.4975 C   0  0  0  0  0  0  0  0  0  0  0  0
   12.3924   29.4651   -3.4485 C   0  0  0  0  0  0  0  0  0  0  0  0
   16.1734   24.1362   -4.7744 C   0  0  0  0  0  0  0  0  0  0  0  0
   16.1496   25.5645   -5.1548 C   0  0  0  0  0  0  0  0  0  0  0  0
   16.6115   26.5920   -4.3447 C   0  0  0  0  0  0  0  0  0  0  0  0
   16.5776   27.9176   -4.7062 C   0  0  0  0  0  0  0  0  0  0  0  0
   16.0674   28.2768   -5.9233 C   0  0  0  0  0  0  0  0  0  0  0  0
   16.0222   29.6199   -6.3138 O   0  0  0  0  0  0  0  0  0  0  0  0
   15.6018   27.2787   -6.7485 C   0  0  0  0  0  0  0  0  0  0  0  0
   15.6308   25.9541   -6.3984 C   0  0  0  0  0  0  0  0  0  0  0  0
   15.6444   29.8711   -7.2122 H   0  0  0  0  0  0  0  0  0  0  0  0
 16 17  1  0  0  0
 17 18  1  0  0  0
 17 15  1  0  0  0
 15 11  1  0  0  0
 11  7  1  0  0  0
  7  8  1  0  0  0
  8  9  2  0  0  0
  8  6  1  0  0  0
  6 19  1  0  0  0
 19 20  1  0  0  0
 20 21  1  0  0  0
 20 22  1  0  0  0
  6  2  1  0  0  0
  2  3  1  0  0  0
  3  4  2  0  0  0
  3  1  1  0  0  0
  1 47  1  0  0  0
 47 48  1  0  0  0
 48 49  2  0  0  0
 49 50  1  0  0  0
 50 51  2  0  0  0
 51 52  1  0  0  0
 51 53  1  0  0  0
 53 54  2  0  0  0
  1 23  1  0  0  0
 23 24  1  0  0  0
 24 25  2  0  0  0
 24 27  1  0  0  0
 27 40  1  0  0  0
 40 41  1  0  0  0
 41 42  2  0  0  0
 42 43  1  0  0  0
 43 44  2  0  0  0
 44 45  1  0  0  0
 45 46  2  0  0  0
 27 28  1  0  0  0
 28 29  1  0  0  0
 29 30  2  0  0  0
 29 32  1  0  0  0
 32 33  2  0  0  0
 33 34  1  0  0  0
 34 35  2  0  0  0
 35 36  1  0  0  0
 35 37  1  0  0  0
 37 38  2  0  0  0
 11 12  1  0  0  0
 12 13  1  0  0  0
 12 14  1  0  0  0
 54 48  1  0  0  0
 46 41  1  0  0  0
 38 32  1  0  0  0
  7 10  1  0  0  0
  2  5  1  0  0  0
 52 55  1  0  0  0
 23 26  1  0  0  0
 28 31  1  0  0  0
 36 39  1  0  0  0
M  END
> <minimizedAffinity>
6.69988

> <CNNscore>
0.3996647298

> <CNNaffinity>
7.8865714073

> <CNN_VS>
3.1519844532

> <CNNaffinity_variance>
0.6699647307

$$$$
[H]Oc1c([H])c([H])c(C(=O)N([H])[C@@]([H])(C(=O)N([H])[C@]([H])(C(=O)N([H])[C@]([H])(C(=O)N([H])[C@@]([H])(C([H])([H])C([H])(C([H])([H])[H])C([H])([H])[H])C([H])(C([H])([H])[H])C([H])([H])[H])C([H])([H])C([H])(C([H])([H])[H])C([H])([H])[H])C([H])([H])c2c([H])c([H])c(O[H])c([H])c2[H])C([H])([H])c2c([H])c([H])c([H])c([H])c2[H])c([H])c1[H]


 55 57  0  0  0  0  0  0  0  0999 V2000
   13.5808   21.6589    0.5251 C   0  0  0  0  0  0  0  0  0  0  0  0
   11.3371   21.3743    1.6993 N   0  0  0  0  0  0  0  0  0  0  0  0
   12.6792   20.9736    1.4794 C   0  0  0  0  0  0  0  0  0  0  0  0
   13.0801   19.9936    2.1412 O   0  0  0  0  0  0  0  0  0  0  0  0
   10.9659   22.1838    1.1727 H   0  0  0  0  0  0  0  0  0  0  0  0
   10.4571   20.7012    2.6301 C   0  0  0  0  0  0  0  0  0  0  0  0
    7.9936   20.5375    2.0178 N   0  0  0  0  0  0  0  0  0  0  0  0
    9.3510   20.0897    1.8540 C   0  0  0  0  0  0  0  0  0  0  0  0
    9.6075   19.1715    1.0472 O   0  0  0  0  0  0  0  0  0  0  0  0
    7.8126   21.3095    2.7081 H   0  0  0  0  0  0  0  0  0  0  0  0
    6.8812   19.9886    1.2934 C   0  0  0  0  0  0  0  0  0  0  0  0
    6.7804   20.5344   -0.0844 C   0  0  0  0  0  0  0  0  0  0  0  0
    8.1232   20.7192   -0.7778 C   0  0  0  0  0  0  0  0  0  0  0  0
    6.2090   21.9550    0.0306 C   0  0  0  0  0  0  0  0  0  0  0  0
    5.6327   19.9071    2.0945 C   0  0  0  0  0  0  0  0  0  0  0  0
    6.4664   21.6398    3.5670 C   0  0  0  0  0  0  0  0  0  0  0  0
    5.6883   20.3128    3.5159 C   0  0  0  0  0  0  0  0  0  0  0  0
    6.4236   19.3859    4.4488 C   0  0  0  0  0  0  0  0  0  0  0  0
    9.8886   21.7244    3.5961 C   0  0  0  0  0  0  0  0  0  0  0  0
   10.1800   21.3899    5.0294 C   0  0  0  0  0  0  0  0  0  0  0  0
    9.4942   20.0873    5.4242 C   0  0  0  0  0  0  0  0  0  0  0  0
   11.6601   21.1487    5.2623 C   0  0  0  0  0  0  0  0  0  0  0  0
   12.8786   22.6535   -0.2107 N   0  0  0  0  0  0  0  0  0  0  0  0
   13.0972   23.0285   -1.5512 C   0  0  0  0  0  0  0  0  0  0  0  0
   14.0318   22.3923   -2.1479 O   0  0  0  0  0  0  0  0  0  0  0  0
   12.1153   23.1745    0.2759 H   0  0  0  0  0  0  0  0  0  0  0  0
   12.3831   24.0383   -2.3025 C   0  0  0  0  0  0  0  0  0  0  0  0
   13.2853   24.5648   -3.3404 N   0  0  0  0  0  0  0  0  0  0  0  0
   13.5190   25.9069   -3.5946 C   0  0  0  0  0  0  0  0  0  0  0  0
   12.9401   26.7789   -2.9119 O   0  0  0  0  0  0  0  0  0  0  0  0
   13.7692   23.8300   -3.9073 H   0  0  0  0  0  0  0  0  0  0  0  0
   14.4264   26.3309   -4.6404 C   0  0  0  0  0  0  0  0  0  0  0  0
   14.5370   25.6128   -5.8406 C   0  0  0  0  0  0  0  0  0  0  0  0
   15.3966   26.0078   -6.8340 C   0  0  0  0  0  0  0  0  0  0  0  0
   16.1963   27.1163   -6.7246 C   0  0  0  0  0  0  0  0  0  0  0  0
   17.0708   27.5232   -7.7289 O   0  0  0  0  0  0  0  0  0  0  0  0
   16.1034   27.8472   -5.5375 C   0  0  0  0  0  0  0  0  0  0  0  0
   15.2352   27.4434   -4.5413 C   0  0  0  0  0  0  0  0  0  0  0  0
   18.0214   27.2366   -7.8200 H   0  0  0  0  0  0  0  0  0  0  0  0
   11.6454   25.1028   -1.6036 C   0  0  0  0  0  0  0  0  0  0  0  0
   10.8621   24.7773   -0.4313 C   0  0  0  0  0  0  0  0  0  0  0  0
    9.6895   24.0702   -0.5288 C   0  0  0  0  0  0  0  0  0  0  0  0
    8.9230   23.7391    0.5713 C   0  0  0  0  0  0  0  0  0  0  0  0
    9.3295   24.1208    1.8123 C   0  0  0  0  0  0  0  0  0  0  0  0
   10.4968   24.8299    1.9568 C   0  0  0  0  0  0  0  0  0  0  0  0
   11.2392   25.1449    0.8424 C   0  0  0  0  0  0  0  0  0  0  0  0
   14.8588   22.0964    1.1772 C   0  0  0  0  0  0  0  0  0  0  0  0
   15.5315   23.2146    0.4826 C   0  0  0  0  0  0  0  0  0  0  0  0
   16.8015   23.1341   -0.0703 C   0  0  0  0  0  0  0  0  0  0  0  0
   17.4201   24.1830   -0.7077 C   0  0  0  0  0  0  0  0  0  0  0  0
   16.7760   25.3844   -0.8200 C   0  0  0  0  0  0  0  0  0  0  0  0
   17.3852   26.4671   -1.4645 O   0  0  0  0  0  0  0  0  0  0  0  0
   15.5145   25.4939   -0.2810 C   0  0  0  0  0  0  0  0  0  0  0  0
   14.8884   24.4548    0.3565 C   0  0  0  0  0  0  0  0  0  0  0  0
   16.9005   27.3459   -1.5405 H   0  0  0  0  0  0  0  0  0  0  0  0
 16 17  1  0  0  0
 17 18  1  0  0  0
 17 15  1  0  0  0
 15 11  1  0  0  0
 11  7  1  0  0  0
  7  8  1  0  0  0
  8  9  2  0  0  0
  8  6  1  0  0  0
  6 19  1  0  0  0
 19 20  1  0  0  0
 20 21  1  0  0  0
 20 22  1  0  0  0
  6  2  1  0  0  0
  2  3  1  0  0  0
  3  4  2  0  0  0
  3  1  1  0  0  0
  1 47  1  0  0  0
 47 48  1  0  0  0
 48 49  2  0  0  0
 49 50  1  0  0  0
 50 51  2  0  0  0
 51 52  1  0  0  0
 51 53  1  0  0  0
 53 54  2  0  0  0
  1 23  1  0  0  0
 23 24  1  0  0  0
 24 25  2  0  0  0
 24 27  1  0  0  0
 27 40  1  0  0  0
 40 41  1  0  0  0
 41 42  2  0  0  0
 42 43  1  0  0  0
 43 44  2  0  0  0
 44 45  1  0  0  0
 45 46  2  0  0  0
 27 28  1  0  0  0
 28 29  1  0  0  0
 29 30  2  0  0  0
 29 32  1  0  0  0
 32 33  2  0  0  0
 33 34  1  0  0  0
 34 35  2  0  0  0
 35 36  1  0  0  0
 35 37  1  0  0  0
 37 38  2  0  0  0
 11 12  1  0  0  0
 12 13  1  0  0  0
 12 14  1  0  0  0
 54 48  1  0  0  0
 46 41  1  0  0  0
 38 32  1  0  0  0
  7 10  1  0  0  0
  2  5  1  0  0  0
 52 55  1  0  0  0
 23 26  1  0  0  0
 28 31  1  0  0  0
 36 39  1  0  0  0
M  END
> <minimizedAffinity>
1.27950

> <CNNscore>
0.3909020424

> <CNNaffinity>
7.8896002769

> <CNN_VS>
3.0840609074

> <CNNaffinity_variance>
0.4529602528

$$$$
[H]Oc1c([H])c([H])c(C(=O)N([H])[C@@]([H])(C(=O)N([H])[C@]([H])(C(=O)N([H])[C@]([H])(C(=O)N([H])[C@@]([H])(C([H])([H])C([H])(C([H])([H])[H])C([H])([H])[H])C([H])(C([H])([H])[H])C([H])([H])[H])C([H])([H])C([H])(C([H])([H])[H])C([H])([H])[H])C([H])([H])c2c([H])c([H])c(O[H])c([H])c2[H])C([H])([H])c2c([H])c([H])c([H])c([H])c2[H])c([H])c1[H]


 55 57  0  0  0  0  0  0  0  0999 V2000
   10.0717   23.9590   -1.6089 C   0  0  0  0  0  0  0  0  0  0  0  0
    8.9640   22.0190   -0.3827 N   0  0  0  0  0  0  0  0  0  0  0  0
    9.8283   22.5145   -1.3916 C   0  0  0  0  0  0  0  0  0  0  0  0
   10.3906   21.6600   -2.1077 O   0  0  0  0  0  0  0  0  0  0  0  0
    8.4799   22.6937    0.2345 H   0  0  0  0  0  0  0  0  0  0  0  0
    8.7254   20.6071   -0.1742 C   0  0  0  0  0  0  0  0  0  0  0  0
   10.7622   20.6875    1.3475 N   0  0  0  0  0  0  0  0  0  0  0  0
    9.9727   20.0054    0.3567 C   0  0  0  0  0  0  0  0  0  0  0  0
   10.3392   18.8891   -0.0667 O   0  0  0  0  0  0  0  0  0  0  0  0
   10.4268   21.6270    1.6790 H   0  0  0  0  0  0  0  0  0  0  0  0
   11.9757   20.1558    1.9026 C   0  0  0  0  0  0  0  0  0  0  0  0
   11.9514   20.1258    3.3874 C   0  0  0  0  0  0  0  0  0  0  0  0
   11.6969   18.7446    3.9755 C   0  0  0  0  0  0  0  0  0  0  0  0
   10.7461   20.9632    3.8389 C   0  0  0  0  0  0  0  0  0  0  0  0
   13.2047   20.6694    1.2446 C   0  0  0  0  0  0  0  0  0  0  0  0
   15.2314   20.0097    0.0943 C   0  0  0  0  0  0  0  0  0  0  0  0
   13.6938   19.9693    0.0367 C   0  0  0  0  0  0  0  0  0  0  0  0
   13.3303   20.5869   -1.2886 C   0  0  0  0  0  0  0  0  0  0  0  0
    8.3840   19.9648   -1.5062 C   0  0  0  0  0  0  0  0  0  0  0  0
    7.0052   19.3733   -1.5257 C   0  0  0  0  0  0  0  0  0  0  0  0
    6.2892   19.7297   -2.8231 C   0  0  0  0  0  0  0  0  0  0  0  0
    7.0420   17.8566   -1.4933 C   0  0  0  0  0  0  0  0  0  0  0  0
   10.6734   24.5497   -0.4631 N   0  0  0  0  0  0  0  0  0  0  0  0
   10.0950   24.7068    0.8121 C   0  0  0  0  0  0  0  0  0  0  0  0
    8.9015   24.2632    0.9257 O   0  0  0  0  0  0  0  0  0  0  0  0
   11.6482   24.9131   -0.5549 H   0  0  0  0  0  0  0  0  0  0  0  0
   10.7055   25.3054    1.9795 C   0  0  0  0  0  0  0  0  0  0  0  0
   12.1679   25.2405    1.8194 N   0  0  0  0  0  0  0  0  0  0  0  0
   12.8601   24.2285    1.1736 C   0  0  0  0  0  0  0  0  0  0  0  0
   12.2346   23.2717    0.6687 O   0  0  0  0  0  0  0  0  0  0  0  0
   12.6862   26.0457    2.2420 H   0  0  0  0  0  0  0  0  0  0  0  0
   14.3040   24.2503    1.0659 C   0  0  0  0  0  0  0  0  0  0  0  0
   15.0086   25.4616    0.9981 C   0  0  0  0  0  0  0  0  0  0  0  0
   16.3760   25.4888    0.8933 C   0  0  0  0  0  0  0  0  0  0  0  0
   17.1387   24.3502    0.8481 C   0  0  0  0  0  0  0  0  0  0  0  0
   18.5270   24.3705    0.7421 O   0  0  0  0  0  0  0  0  0  0  0  0
   16.4584   23.1316    0.9138 C   0  0  0  0  0  0  0  0  0  0  0  0
   15.0809   23.1119    1.0194 C   0  0  0  0  0  0  0  0  0  0  0  0
   19.0425   24.3697   -0.1113 H   0  0  0  0  0  0  0  0  0  0  0  0
   10.2682   24.9168    3.3298 C   0  0  0  0  0  0  0  0  0  0  0  0
    9.0047   25.4047    3.8391 C   0  0  0  0  0  0  0  0  0  0  0  0
    8.7109   26.7456    3.8563 C   0  0  0  0  0  0  0  0  0  0  0  0
    7.5123   27.2418    4.3302 C   0  0  0  0  0  0  0  0  0  0  0  0
    6.5704   26.3822    4.8046 C   0  0  0  0  0  0  0  0  0  0  0  0
    6.8220   25.0320    4.8064 C   0  0  0  0  0  0  0  0  0  0  0  0
    8.0251   24.5675    4.3278 C   0  0  0  0  0  0  0  0  0  0  0  0
   10.7478   24.2219   -2.9218 C   0  0  0  0  0  0  0  0  0  0  0  0
   12.1605   24.6379   -2.7934 C   0  0  0  0  0  0  0  0  0  0  0  0
   12.6067   25.9392   -2.9741 C   0  0  0  0  0  0  0  0  0  0  0  0
   13.9243   26.3130   -2.8593 C   0  0  0  0  0  0  0  0  0  0  0  0
   14.8717   25.3759   -2.5510 C   0  0  0  0  0  0  0  0  0  0  0  0
   16.2195   25.7322   -2.4286 O   0  0  0  0  0  0  0  0  0  0  0  0
   14.4584   24.0764   -2.3658 C   0  0  0  0  0  0  0  0  0  0  0  0
   13.1476   23.6926   -2.4777 C   0  0  0  0  0  0  0  0  0  0  0  0
   16.9070   25.0331   -2.2013 H   0  0  0  0  0  0  0  0  0  0  0  0
 16 17  1  0  0  0
 17 18  1  0  0  0
 17 15  1  0  0  0
 15 11  1  0  0  0
 11  7  1  0  0  0
  7  8  1  0  0  0
  8  9  2  0  0  0
  8  6  1  0  0  0
  6 19  1  0  0  0
 19 20  1  0  0  0
 20 21  1  0  0  0
 20 22  1  0  0  0
  6  2  1  0  0  0
  2  3  1  0  0  0
  3  4  2  0  0  0
  3  1  1  0  0  0
  1 47  1  0  0  0
 47 48  1  0  0  0
 48 49  2  0  0  0
 49 50  1  0  0  0
 50 51  2  0  0  0
 51 52  1  0  0  0
 51 53  1  0  0  0
 53 54  2  0  0  0
  1 23  1  0  0  0
 23 24  1  0  0  0
 24 25  2  0  0  0
 24 27  1  0  0  0
 27 40  1  0  0  0
 40 41  1  0  0  0
 41 42  2  0  0  0
 42 43  1  0  0  0
 43 44  2  0  0  0
 44 45  1  0  0  0
 45 46  2  0  0  0
 27 28  1  0  0  0
 28 29  1  0  0  0
 29 30  2  0  0  0
 29 32  1  0  0  0
 32 33  2  0  0  0
 33 34  1  0  0  0
 34 35  2  0  0  0
 35 36  1  0  0  0
 35 37  1  0  0  0
 37 38  2  0  0  0
 11 12  1  0  0  0
 12 13  1  0  0  0
 12 14  1  0  0  0
 54 48  1  0  0  0
 46 41  1  0  0  0
 38 32  1  0  0  0
  7 10  1  0  0  0
  2  5  1  0  0  0
 52 55  1  0  0  0
 23 26  1  0  0  0
 28 31  1  0  0  0
 36 39  1  0  0  0
M  END
> <minimizedAffinity>
2.88282

> <CNNscore>
0.3893590868

> <CNNaffinity>
7.6865630150

> <CNN_VS>
2.9928331375

> <CNNaffinity_variance>
0.2428949326

$$$$
[H]Oc1c([H])c([H])c(C(=O)N([H])[C@@]([H])(C(=O)N([H])[C@]([H])(C(=O)N([H])[C@]([H])(C(=O)N([H])[C@@]([H])(C([H])([H])C([H])(C([H])([H])[H])C([H])([H])[H])C([H])(C([H])([H])[H])C([H])([H])[H])C([H])([H])C([H])(C([H])([H])[H])C([H])([H])[H])C([H])([H])c2c([H])c([H])c(O[H])c([H])c2[H])C([H])([H])c2c([H])c([H])c([H])c([H])c2[H])c([H])c1[H]


 55 57  0  0  0  0  0  0  0  0999 V2000
   12.1364   24.2616    1.0084 C   0  0  0  0  0  0  0  0  0  0  0  0
   11.0953   22.4322    2.4449 N   0  0  0  0  0  0  0  0  0  0  0  0
   11.7671   22.8513    1.2687 C   0  0  0  0  0  0  0  0  0  0  0  0
   12.0419   21.9585    0.4401 O   0  0  0  0  0  0  0  0  0  0  0  0
   10.8511   23.1403    3.1586 H   0  0  0  0  0  0  0  0  0  0  0  0
   10.7327   21.0540    2.6956 C   0  0  0  0  0  0  0  0  0  0  0  0
    9.2297   20.7573    0.6651 N   0  0  0  0  0  0  0  0  0  0  0  0
   10.4237   20.4174    1.3923 C   0  0  0  0  0  0  0  0  0  0  0  0
   11.2156   19.5732    0.9233 O   0  0  0  0  0  0  0  0  0  0  0  0
    8.5831   21.4688    1.0905 H   0  0  0  0  0  0  0  0  0  0  0  0
    8.8774   20.1792   -0.6019 C   0  0  0  0  0  0  0  0  0  0  0  0
    9.1445   21.1002   -1.7362 C   0  0  0  0  0  0  0  0  0  0  0  0
   10.5153   20.9178   -2.3732 C   0  0  0  0  0  0  0  0  0  0  0  0
    9.1726   22.5259   -1.1667 C   0  0  0  0  0  0  0  0  0  0  0  0
    7.5747   19.4651   -0.5872 C   0  0  0  0  0  0  0  0  0  0  0  0
    6.0274   21.3220   -0.4349 C   0  0  0  0  0  0  0  0  0  0  0  0
    6.4848   20.0192    0.2453 C   0  0  0  0  0  0  0  0  0  0  0  0
    6.8511   20.4141    1.6524 C   0  0  0  0  0  0  0  0  0  0  0  0
    9.4970   21.0237    3.5763 C   0  0  0  0  0  0  0  0  0  0  0  0
    9.7446   20.3540    4.8961 C   0  0  0  0  0  0  0  0  0  0  0  0
    8.4732   19.6822    5.4011 C   0  0  0  0  0  0  0  0  0  0  0  0
   10.7666   19.2384    4.7791 C   0  0  0  0  0  0  0  0  0  0  0  0
   12.1832   24.5236   -0.3891 N   0  0  0  0  0  0  0  0  0  0  0  0
   12.4346   25.7627   -1.0112 C   0  0  0  0  0  0  0  0  0  0  0  0
   12.6394   26.7398   -0.2128 O   0  0  0  0  0  0  0  0  0  0  0  0
   12.0153   23.7262   -1.0424 H   0  0  0  0  0  0  0  0  0  0  0  0
   12.4846   26.0314   -2.4322 C   0  0  0  0  0  0  0  0  0  0  0  0
   13.1049   24.8741   -3.0987 N   0  0  0  0  0  0  0  0  0  0  0  0
   14.3601   24.3613   -2.8125 C   0  0  0  0  0  0  0  0  0  0  0  0
   15.0597   24.8906   -1.9225 O   0  0  0  0  0  0  0  0  0  0  0  0
   12.5135   24.4334   -3.8414 H   0  0  0  0  0  0  0  0  0  0  0  0
   14.8884   23.2158   -3.5236 C   0  0  0  0  0  0  0  0  0  0  0  0
   14.6926   21.9113   -3.0458 C   0  0  0  0  0  0  0  0  0  0  0  0
   15.1928   20.8224   -3.7134 C   0  0  0  0  0  0  0  0  0  0  0  0
   15.9088   20.9314   -4.8777 C   0  0  0  0  0  0  0  0  0  0  0  0
   16.4191   19.8305   -5.5607 O   0  0  0  0  0  0  0  0  0  0  0  0
   16.1167   22.2214   -5.3725 C   0  0  0  0  0  0  0  0  0  0  0  0
   15.6098   23.3135   -4.6947 C   0  0  0  0  0  0  0  0  0  0  0  0
   17.3190   19.4261   -5.4167 H   0  0  0  0  0  0  0  0  0  0  0  0
   13.0064   27.3147   -2.9289 C   0  0  0  0  0  0  0  0  0  0  0  0
   13.9872   27.3229   -3.9927 C   0  0  0  0  0  0  0  0  0  0  0  0
   15.2431   27.8436   -3.8030 C   0  0  0  0  0  0  0  0  0  0  0  0
   16.2028   27.8606   -4.7961 C   0  0  0  0  0  0  0  0  0  0  0  0
   15.9107   27.3451   -6.0209 C   0  0  0  0  0  0  0  0  0  0  0  0
   14.6661   26.8137   -6.2552 C   0  0  0  0  0  0  0  0  0  0  0  0
   13.7310   26.8106   -5.2463 C   0  0  0  0  0  0  0  0  0  0  0  0
   11.3246   25.2149    1.8341 C   0  0  0  0  0  0  0  0  0  0  0  0
   10.0252   24.6655    2.2760 C   0  0  0  0  0  0  0  0  0  0  0  0
    9.6222   24.5947    3.6018 C   0  0  0  0  0  0  0  0  0  0  0  0
    8.4142   24.0749    4.0015 C   0  0  0  0  0  0  0  0  0  0  0  0
    7.5395   23.5933    3.0668 C   0  0  0  0  0  0  0  0  0  0  0  0
    6.3037   23.0593    3.4492 O   0  0  0  0  0  0  0  0  0  0  0  0
    7.9123   23.6507    1.7433 C   0  0  0  0  0  0  0  0  0  0  0  0
    9.1138   24.1668    1.3336 C   0  0  0  0  0  0  0  0  0  0  0  0
    5.6688   22.7082    2.7515 H   0  0  0  0  0  0  0  0  0  0  0  0
 16 17  1  0  0  0
 17 18  1  0  0  0
 17 15  1  0  0  0
 15 11  1  0  0  0
 11  7  1  0  0  0
  7  8  1  0  0  0
  8  9  2  0  0  0
  8  6  1  0  0  0
  6 19  1  0  0  0
 19 20  1  0  0  0
 20 21  1  0  0  0
 20 22  1  0  0  0
  6  2  1  0  0  0
  2  3  1  0  0  0
  3  4  2  0  0  0
  3  1  1  0  0  0
  1 47  1  0  0  0
 47 48  1  0  0  0
 48 49  2  0  0  0
 49 50  1  0  0  0
 50 51  2  0  0  0
 51 52  1  0  0  0
 51 53  1  0  0  0
 53 54  2  0  0  0
  1 23  1  0  0  0
 23 24  1  0  0  0
 24 25  2  0  0  0
 24 27  1  0  0  0
 27 40  1  0  0  0
 40 41  1  0  0  0
 41 42  2  0  0  0
 42 43  1  0  0  0
 43 44  2  0  0  0
 44 45  1  0  0  0
 45 46  2  0  0  0
 27 28  1  0  0  0
 28 29  1  0  0  0
 29 30  2  0  0  0
 29 32  1  0  0  0
 32 33  2  0  0  0
 33 34  1  0  0  0
 34 35  2  0  0  0
 35 36  1  0  0  0
 35 37  1  0  0  0
 37 38  2  0  0  0
 11 12  1  0  0  0
 12 13  1  0  0  0
 12 14  1  0  0  0
 54 48  1  0  0  0
 46 41  1  0  0  0
 38 32  1  0  0  0
  7 10  1  0  0  0
  2  5  1  0  0  0
 52 55  1  0  0  0
 23 26  1  0  0  0
 28 31  1  0  0  0
 36 39  1  0  0  0
M  END
> <minimizedAffinity>
4.18949

> <CNNscore>
0.3845638037

> <CNNaffinity>
7.5167326927

> <CNN_VS>
2.8906633854

> <CNNaffinity_variance>
0.3442610800

$$$$
[H]Oc1c([H])c([H])c(C(=O)N([H])[C@@]([H])(C(=O)N([H])[C@]([H])(C(=O)N([H])[C@]([H])(C(=O)N([H])[C@@]([H])(C([H])([H])C([H])(C([H])([H])[H])C([H])([H])[H])C([H])(C([H])([H])[H])C([H])([H])[H])C([H])([H])C([H])(C([H])([H])[H])C([H])([H])[H])C([H])([H])c2c([H])c([H])c(O[H])c([H])c2[H])C([H])([H])c2c([H])c([H])c([H])c([H])c2[H])c([H])c1[H]


 55 57  0  0  0  0  0  0  0  0999 V2000
   11.3638   22.3600    0.8937 C   0  0  0  0  0  0  0  0  0  0  0  0
    8.9692   21.5083    0.7076 N   0  0  0  0  0  0  0  0  0  0  0  0
    9.9203   22.5568    0.6277 C   0  0  0  0  0  0  0  0  0  0  0  0
    9.4789   23.6823    0.3155 O   0  0  0  0  0  0  0  0  0  0  0  0
    9.2937   20.5591    0.9610 H   0  0  0  0  0  0  0  0  0  0  0  0
    7.5587   21.7037    0.4502 C   0  0  0  0  0  0  0  0  0  0  0  0
    7.5288   21.2804    2.9583 N   0  0  0  0  0  0  0  0  0  0  0  0
    6.8456   21.6585    1.7499 C   0  0  0  0  0  0  0  0  0  0  0  0
    5.6328   21.9539    1.7902 O   0  0  0  0  0  0  0  0  0  0  0  0
    8.5484   21.0342    2.8878 H   0  0  0  0  0  0  0  0  0  0  0  0
    6.8951   21.2216    4.2461 C   0  0  0  0  0  0  0  0  0  0  0  0
    6.2464   19.9090    4.4965 C   0  0  0  0  0  0  0  0  0  0  0  0
    7.0366   18.9936    5.4216 C   0  0  0  0  0  0  0  0  0  0  0  0
    6.2065   19.1593    3.1570 C   0  0  0  0  0  0  0  0  0  0  0  0
    6.1248   22.4458    4.5854 C   0  0  0  0  0  0  0  0  0  0  0  0
    6.5611   24.8218    4.4113 C   0  0  0  0  0  0  0  0  0  0  0  0
    6.8402   23.5592    5.2463 C   0  0  0  0  0  0  0  0  0  0  0  0
    8.3415   23.4482    5.3075 C   0  0  0  0  0  0  0  0  0  0  0  0
    7.0607   20.5773   -0.4367 C   0  0  0  0  0  0  0  0  0  0  0  0
    8.1790   19.8095   -1.0780 C   0  0  0  0  0  0  0  0  0  0  0  0
    7.7394   18.3834   -1.3875 C   0  0  0  0  0  0  0  0  0  0  0  0
    8.5763   20.4045   -2.4164 C   0  0  0  0  0  0  0  0  0  0  0  0
   12.1545   23.1167   -0.0153 N   0  0  0  0  0  0  0  0  0  0  0  0
   12.6058   22.7111   -1.2869 C   0  0  0  0  0  0  0  0  0  0  0  0
   12.2539   21.5334   -1.6382 O   0  0  0  0  0  0  0  0  0  0  0  0
   12.4432   24.0787    0.2709 H   0  0  0  0  0  0  0  0  0  0  0  0
   13.4084   23.4795   -2.2141 C   0  0  0  0  0  0  0  0  0  0  0  0
   14.7774   23.5640   -1.6784 N   0  0  0  0  0  0  0  0  0  0  0  0
   15.1427   24.2111   -0.5087 C   0  0  0  0  0  0  0  0  0  0  0  0
   14.2731   24.7833    0.1827 O   0  0  0  0  0  0  0  0  0  0  0  0
   15.5010   23.0809   -2.2603 H   0  0  0  0  0  0  0  0  0  0  0  0
   16.5193   24.2416   -0.0604 C   0  0  0  0  0  0  0  0  0  0  0  0
   16.8447   24.0865    1.2955 C   0  0  0  0  0  0  0  0  0  0  0  0
   18.1465   24.1172    1.7268 C   0  0  0  0  0  0  0  0  0  0  0  0
   19.2054   24.2990    0.8748 C   0  0  0  0  0  0  0  0  0  0  0  0
   20.5292   24.3308    1.3056 O   0  0  0  0  0  0  0  0  0  0  0  0
   18.9054   24.4560   -0.4807 C   0  0  0  0  0  0  0  0  0  0  0  0
   17.5917   24.4239   -0.9078 C   0  0  0  0  0  0  0  0  0  0  0  0
   21.0261   25.1472    1.5895 H   0  0  0  0  0  0  0  0  0  0  0  0
   12.9223   24.7707   -2.7260 C   0  0  0  0  0  0  0  0  0  0  0  0
   13.7278   25.5126   -3.6719 C   0  0  0  0  0  0  0  0  0  0  0  0
   13.6641   26.8819   -3.7457 C   0  0  0  0  0  0  0  0  0  0  0  0
   14.4240   27.6185   -4.6331 C   0  0  0  0  0  0  0  0  0  0  0  0
   15.2772   26.9790   -5.4782 C   0  0  0  0  0  0  0  0  0  0  0  0
   15.3732   25.6095   -5.4389 C   0  0  0  0  0  0  0  0  0  0  0  0
   14.6036   24.9029   -4.5441 C   0  0  0  0  0  0  0  0  0  0  0  0
   11.6923   22.5193    2.3485 C   0  0  0  0  0  0  0  0  0  0  0  0
   11.4215   21.3121    3.1577 C   0  0  0  0  0  0  0  0  0  0  0  0
   10.6284   21.3018    4.2962 C   0  0  0  0  0  0  0  0  0  0  0  0
   10.3895   20.1743    5.0450 C   0  0  0  0  0  0  0  0  0  0  0  0
   10.9487   18.9822    4.6748 C   0  0  0  0  0  0  0  0  0  0  0  0
   10.7201   17.8206    5.4212 O   0  0  0  0  0  0  0  0  0  0  0  0
   11.7402   18.9619    3.5492 C   0  0  0  0  0  0  0  0  0  0  0  0
   11.9850   20.0798    2.7953 C   0  0  0  0  0  0  0  0  0  0  0  0
   11.1374   16.9495    5.1381 H   0  0  0  0  0  0  0  0  0  0  0  0
 16 17  1  0  0  0
 17 18  1  0  0  0
 17 15  1  0  0  0
 15 11  1  0  0  0
 11  7  1  0  0  0
  7  8  1  0  0  0
  8  9  2  0  0  0
  8  6  1  0  0  0
  6 19  1  0  0  0
 19 20  1  0  0  0
 20 21  1  0  0  0
 20 22  1  0  0  0
  6  2  1  0  0  0
  2  3  1  0  0  0
  3  4  2  0  0  0
  3  1  1  0  0  0
  1 47  1  0  0  0
 47 48  1  0  0  0
 48 49  2  0  0  0
 49 50  1  0  0  0
 50 51  2  0  0  0
 51 52  1  0  0  0
 51 53  1  0  0  0
 53 54  2  0  0  0
  1 23  1  0  0  0
 23 24  1  0  0  0
 24 25  2  0  0  0
 24 27  1  0  0  0
 27 40  1  0  0  0
 40 41  1  0  0  0
 41 42  2  0  0  0
 42 43  1  0  0  0
 43 44  2  0  0  0
 44 45  1  0  0  0
 45 46  2  0  0  0
 27 28  1  0  0  0
 28 29  1  0  0  0
 29 30  2  0  0  0
 29 32  1  0  0  0
 32 33  2  0  0  0
 33 34  1  0  0  0
 34 35  2  0  0  0
 35 36  1  0  0  0
 35 37  1  0  0  0
 37 38  2  0  0  0
 11 12  1  0  0  0
 12 13  1  0  0  0
 12 14  1  0  0  0
 54 48  1  0  0  0
 46 41  1  0  0  0
 38 32  1  0  0  0
  7 10  1  0  0  0
  2  5  1  0  0  0
 52 55  1  0  0  0
 23 26  1  0  0  0
 28 31  1  0  0  0
 36 39  1  0  0  0
M  END
> <minimizedAffinity>
-0.13781

> <CNNscore>
0.3845192790

> <CNNaffinity>
7.5508584976

> <CNN_VS>
2.9034507275

> <CNNaffinity_variance>
0.1452651918

$$$$
[H]Oc1c([H])c([H])c(C(=O)N([H])[C@@]([H])(C(=O)N([H])[C@]([H])(C(=O)N([H])[C@]([H])(C(=O)N([H])[C@@]([H])(C([H])([H])C([H])(C([H])([H])[H])C([H])([H])[H])C([H])(C([H])([H])[H])C([H])([H])[H])C([H])([H])C([H])(C([H])([H])[H])C([H])([H])[H])C([H])([H])c2c([H])c([H])c(O[H])c([H])c2[H])C([H])([H])c2c([H])c([H])c([H])c([H])c2[H])c([H])c1[H]


 55 57  0  0  0  0  0  0  0  0999 V2000
   10.0663   21.9517   -1.9393 C   0  0  0  0  0  0  0  0  0  0  0  0
    9.6446   20.6655    0.2199 N   0  0  0  0  0  0  0  0  0  0  0  0
    9.7458   21.8858   -0.4950 C   0  0  0  0  0  0  0  0  0  0  0  0
    9.5481   22.9298    0.1608 O   0  0  0  0  0  0  0  0  0  0  0  0
    9.7988   19.7768   -0.2867 H   0  0  0  0  0  0  0  0  0  0  0  0
    9.3343   20.6039    1.6320 C   0  0  0  0  0  0  0  0  0  0  0  0
    8.3653   22.5926    2.8876 N   0  0  0  0  0  0  0  0  0  0  0  0
    8.2287   21.5555    1.8998 C   0  0  0  0  0  0  0  0  0  0  0  0
    7.1642   21.4501    1.2551 O   0  0  0  0  0  0  0  0  0  0  0  0
    9.2731   22.6503    3.4146 H   0  0  0  0  0  0  0  0  0  0  0  0
    7.3337   23.5456    3.1893 C   0  0  0  0  0  0  0  0  0  0  0  0
    7.8584   24.9312    3.2936 C   0  0  0  0  0  0  0  0  0  0  0  0
    9.3551   25.0089    3.5620 C   0  0  0  0  0  0  0  0  0  0  0  0
    7.2128   25.5692    4.5322 C   0  0  0  0  0  0  0  0  0  0  0  0
    6.3897   23.0861    4.2405 C   0  0  0  0  0  0  0  0  0  0  0  0
    8.4498   22.1984    5.1536 C   0  0  0  0  0  0  0  0  0  0  0  0
    6.9235   22.2576    5.3436 C   0  0  0  0  0  0  0  0  0  0  0  0
    6.4726   20.8205    5.3806 C   0  0  0  0  0  0  0  0  0  0  0  0
   10.5605   21.0213    2.4229 C   0  0  0  0  0  0  0  0  0  0  0  0
   11.6076   19.9478    2.4743 C   0  0  0  0  0  0  0  0  0  0  0  0
   12.9871   20.5333    2.1968 C   0  0  0  0  0  0  0  0  0  0  0  0
   11.7084   19.3244    3.8542 C   0  0  0  0  0  0  0  0  0  0  0  0
   11.4108   22.3703   -2.1416 N   0  0  0  0  0  0  0  0  0  0  0  0
   12.5769   21.6088   -1.9279 C   0  0  0  0  0  0  0  0  0  0  0  0
   12.3787   20.4180   -1.5072 O   0  0  0  0  0  0  0  0  0  0  0  0
   11.5740   23.3431   -2.4846 H   0  0  0  0  0  0  0  0  0  0  0  0
   13.9453   22.0315   -2.1348 C   0  0  0  0  0  0  0  0  0  0  0  0
   14.1815   23.2401   -1.3274 N   0  0  0  0  0  0  0  0  0  0  0  0
   14.7578   23.2631   -0.0673 C   0  0  0  0  0  0  0  0  0  0  0  0
   15.1243   22.1952    0.4682 O   0  0  0  0  0  0  0  0  0  0  0  0
   13.8750   24.1316   -1.7820 H   0  0  0  0  0  0  0  0  0  0  0  0
   14.9500   24.5045    0.6530 C   0  0  0  0  0  0  0  0  0  0  0  0
   13.8571   25.2870    1.0551 C   0  0  0  0  0  0  0  0  0  0  0  0
   14.0326   26.4652    1.7354 C   0  0  0  0  0  0  0  0  0  0  0  0
   15.2709   26.9533    2.0651 C   0  0  0  0  0  0  0  0  0  0  0  0
   15.4564   28.1481    2.7556 O   0  0  0  0  0  0  0  0  0  0  0  0
   16.3745   26.1907    1.6745 C   0  0  0  0  0  0  0  0  0  0  0  0
   16.1901   25.0049    0.9896 C   0  0  0  0  0  0  0  0  0  0  0  0
   15.5624   29.0474    2.3385 H   0  0  0  0  0  0  0  0  0  0  0  0
   14.4903   22.1477   -3.4968 C   0  0  0  0  0  0  0  0  0  0  0  0
   15.0893   23.3944   -3.9221 C   0  0  0  0  0  0  0  0  0  0  0  0
   14.7880   23.9535   -5.1391 C   0  0  0  0  0  0  0  0  0  0  0  0
   15.3382   25.1445   -5.5709 C   0  0  0  0  0  0  0  0  0  0  0  0
   16.2180   25.8064   -4.7717 C   0  0  0  0  0  0  0  0  0  0  0  0
   16.5482   25.2834   -3.5454 C   0  0  0  0  0  0  0  0  0  0  0  0
   15.9838   24.0954   -3.1425 C   0  0  0  0  0  0  0  0  0  0  0  0
    9.6435   20.7084   -2.6642 C   0  0  0  0  0  0  0  0  0  0  0  0
    8.5867   19.9424   -1.9702 C   0  0  0  0  0  0  0  0  0  0  0  0
    7.2472   20.3039   -1.9563 C   0  0  0  0  0  0  0  0  0  0  0  0
    6.2741   19.5876   -1.3013 C   0  0  0  0  0  0  0  0  0  0  0  0
    6.6113   18.4524   -0.6169 C   0  0  0  0  0  0  0  0  0  0  0  0
    5.6384   17.7062    0.0578 O   0  0  0  0  0  0  0  0  0  0  0  0
    7.9330   18.0690   -0.6132 C   0  0  0  0  0  0  0  0  0  0  0  0
    8.9112   18.7755   -1.2629 C   0  0  0  0  0  0  0  0  0  0  0  0
    5.8995   16.8725    0.5577 H   0  0  0  0  0  0  0  0  0  0  0  0
 16 17  1  0  0  0
 17 18  1  0  0  0
 17 15  1  0  0  0
 15 11  1  0  0  0
 11  7  1  0  0  0
  7  8  1  0  0  0
  8  9  2  0  0  0
  8  6  1  0  0  0
  6 19  1  0  0  0
 19 20  1  0  0  0
 20 21  1  0  0  0
 20 22  1  0  0  0
  6  2  1  0  0  0
  2  3  1  0  0  0
  3  4  2  0  0  0
  3  1  1  0  0  0
  1 47  1  0  0  0
 47 48  1  0  0  0
 48 49  2  0  0  0
 49 50  1  0  0  0
 50 51  2  0  0  0
 51 52  1  0  0  0
 51 53  1  0  0  0
 53 54  2  0  0  0
  1 23  1  0  0  0
 23 24  1  0  0  0
 24 25  2  0  0  0
 24 27  1  0  0  0
 27 40  1  0  0  0
 40 41  1  0  0  0
 41 42  2  0  0  0
 42 43  1  0  0  0
 43 44  2  0  0  0
 44 45  1  0  0  0
 45 46  2  0  0  0
 27 28  1  0  0  0
 28 29  1  0  0  0
 29 30  2  0  0  0
 29 32  1  0  0  0
 32 33  2  0  0  0
 33 34  1  0  0  0
 34 35  2  0  0  0
 35 36  1  0  0  0
 35 37  1  0  0  0
 37 38  2  0  0  0
 11 12  1  0  0  0
 12 13  1  0  0  0
 12 14  1  0  0  0
 54 48  1  0  0  0
 46 41  1  0  0  0
 38 32  1  0  0  0
  7 10  1  0  0  0
  2  5  1  0  0  0
 52 55  1  0  0  0
 23 26  1  0  0  0
 28 31  1  0  0  0
 36 39  1  0  0  0
M  END
> <minimizedAffinity>
4.20082

> <CNNscore>
0.3774434030

> <CNNaffinity>
7.4624633789

> <CNN_VS>
2.8166575432

> <CNNaffinity_variance>
0.2957266867

$$$$
[H]N=C(N([H])[H])N([H])C([H])([H])C([H])([H])C([H])([H])[C@@]([H])(C([H])=O)N([H])C(=O)[C@@]([H])(N([H])C(=O)[C@]([H])(N([H])C(=O)[C@@]([H])(N([H])[H])C([H])([H])[H])C([H])([H])C([H])(C([H])([H])[H])C([H])([H])[H])C([H])([H])c1c([H])n([H])c2c([H])c([H])c([H])c([H])c12


 48 49  0  0  0  0  0  0  0  0999 V2000
   11.0090   24.0065   -0.2350 C   0  0  0  0  0  0  0  0  0  0  0  0
   12.0239   24.8345   -0.8477 C   0  0  0  0  0  0  0  0  0  0  0  0
   12.4900   25.8682   -0.2722 O   0  0  0  0  0  0  0  0  0  0  0  0
   12.5953   24.5633   -2.1443 N   0  0  0  0  0  0  0  0  0  0  0  0
   12.2487   23.7259   -2.6390 H   0  0  0  0  0  0  0  0  0  0  0  0
   13.5971   25.4143   -2.7198 C   0  0  0  0  0  0  0  0  0  0  0  0
   13.0859   26.6008   -3.4173 C   0  0  0  0  0  0  0  0  0  0  0  0
   13.2586   26.8418   -4.6023 O   0  0  0  0  0  0  0  0  0  0  0  0
   14.5635   24.6180   -3.5771 C   0  0  0  0  0  0  0  0  0  0  0  0
   15.9993   24.7672   -3.2051 C   0  0  0  0  0  0  0  0  0  0  0  0
   16.1054   26.0698   -2.4068 C   0  0  0  0  0  0  0  0  0  0  0  0
   17.3040   26.7760   -2.7729 N   0  0  0  0  0  0  0  0  0  0  0  0
   18.2361   26.5771   -2.3086 H   0  0  0  0  0  0  0  0  0  0  0  0
   17.2733   27.7680   -3.7656 C   0  0  0  0  0  0  0  0  0  0  0  0
   16.1593   27.8630   -4.6264 N   0  0  0  0  0  0  0  0  0  0  0  0
   18.2481   28.5869   -3.8924 N   0  0  0  0  0  0  0  0  0  0  0  0
   15.2267   28.2619   -4.3126 H   0  0  0  0  0  0  0  0  0  0  0  0
   16.2647   27.5311   -5.5898 H   0  0  0  0  0  0  0  0  0  0  0  0
   19.0742   28.5466   -3.2808 H   0  0  0  0  0  0  0  0  0  0  0  0
   12.3326   22.2581    0.9763 C   0  0  0  0  0  0  0  0  0  0  0  0
   12.8802   23.1655    1.6662 O   0  0  0  0  0  0  0  0  0  0  0  0
   11.3950   22.6301    0.0030 N   0  0  0  0  0  0  0  0  0  0  0  0
   10.9589   21.8684   -0.5812 H   0  0  0  0  0  0  0  0  0  0  0  0
   12.7411   20.8327    1.2628 C   0  0  0  0  0  0  0  0  0  0  0  0
   10.9964   20.4837    2.9745 C   0  0  0  0  0  0  0  0  0  0  0  0
   10.0654   20.5723    2.1124 O   0  0  0  0  0  0  0  0  0  0  0  0
   12.3584   20.5997    2.6280 N   0  0  0  0  0  0  0  0  0  0  0  0
   13.0773   20.5124    3.3778 H   0  0  0  0  0  0  0  0  0  0  0  0
   11.2206   21.2730    5.2888 C   0  0  0  0  0  0  0  0  0  0  0  0
   10.5918   20.2528    4.3796 C   0  0  0  0  0  0  0  0  0  0  0  0
   10.9524   18.9292    4.8284 N   0  0  0  0  0  0  0  0  0  0  0  0
   11.9544   18.7346    4.7636 H   0  0  0  0  0  0  0  0  0  0  0  0
   10.4685   18.6282    5.6771 H   0  0  0  0  0  0  0  0  0  0  0  0
   14.1649   20.6829    0.9172 C   0  0  0  0  0  0  0  0  0  0  0  0
   14.5379   20.7431   -0.5232 C   0  0  0  0  0  0  0  0  0  0  0  0
   13.4951   20.2981   -1.4917 C   0  0  0  0  0  0  0  0  0  0  0  0
   15.0223   22.1413   -0.9125 C   0  0  0  0  0  0  0  0  0  0  0  0
   10.3691   24.6110    0.9776 C   0  0  0  0  0  0  0  0  0  0  0  0
    9.2396   23.9057    1.5645 C   0  0  0  0  0  0  0  0  0  0  0  0
    8.3254   23.1154    0.8137 C   0  0  0  0  0  0  0  0  0  0  0  0
    7.4593   22.5748    1.6592 N   0  0  0  0  0  0  0  0  0  0  0  0
    7.7688   22.9781    2.9184 C   0  0  0  0  0  0  0  0  0  0  0  0
    7.1648   22.6887    4.1180 C   0  0  0  0  0  0  0  0  0  0  0  0
    7.6596   23.2260    5.2772 C   0  0  0  0  0  0  0  0  0  0  0  0
    8.7587   24.0621    5.2901 C   0  0  0  0  0  0  0  0  0  0  0  0
    9.3463   24.3368    4.0706 C   0  0  0  0  0  0  0  0  0  0  0  0
    8.8851   23.8174    2.8841 C   0  0  0  0  0  0  0  0  0  0  0  0
    6.6532   21.9332    1.4343 H   0  0  0  0  0  0  0  0  0  0  0  0
 29 30  1  0  0  0
 30 31  1  0  0  0
 30 25  1  0  0  0
 25 26  2  0  0  0
 25 27  1  0  0  0
 27 24  1  0  0  0
 24 34  1  0  0  0
 34 35  1  0  0  0
 35 36  1  0  0  0
 35 37  1  0  0  0
 24 20  1  0  0  0
 20 21  2  0  0  0
 20 22  1  0  0  0
 22  1  1  0  0  0
  1 38  1  0  0  0
 38 39  1  0  0  0
 39 40  2  0  0  0
 40 41  1  0  0  0
 41 42  1  0  0  0
 42 43  2  0  0  0
 43 44  1  0  0  0
 44 45  2  0  0  0
 45 46  1  0  0  0
 46 47  2  0  0  0
  1  2  1  0  0  0
  2  3  2  0  0  0
  2  4  1  0  0  0
  4  6  1  0  0  0
  6  9  1  0  0  0
  9 10  1  0  0  0
 10 11  1  0  0  0
 11 12  1  0  0  0
 12 14  1  0  0  0
 14 15  1  0  0  0
 14 16  2  0  0  0
  6  7  1  0  0  0
  7  8  2  0  0  0
 47 39  1  0  0  0
 47 42  1  0  0  0
 31 32  1  0  0  0
 31 33  1  0  0  0
 27 28  1  0  0  0
 22 23  1  0  0  0
 41 48  1  0  0  0
  4  5  1  0  0  0
 12 13  1  0  0  0
 15 17  1  0  0  0
 15 18  1  0  0  0
 16 19  1  0  0  0
M  END
> <minimizedAffinity>
-7.64815

> <CNNscore>
0.5699838996

> <CNNaffinity>
7.7296781540

> <CNN_VS>
4.4057922363

> <CNNaffinity_variance>
0.0559555776

$$$$
[H]N=C(N([H])[H])N([H])C([H])([H])C([H])([H])C([H])([H])[C@@]([H])(C([H])=O)N([H])C(=O)[C@@]([H])(N([H])C(=O)[C@]([H])(N([H])C(=O)[C@@]([H])(N([H])[H])C([H])([H])[H])C([H])([H])C([H])(C([H])([H])[H])C([H])([H])[H])C([H])([H])c1c([H])n([H])c2c([H])c([H])c([H])c([H])c12


 48 49  0  0  0  0  0  0  0  0999 V2000
   11.6744   23.9839   -1.3366 C   0  0  0  0  0  0  0  0  0  0  0  0
   12.7318   23.1700   -0.7796 C   0  0  0  0  0  0  0  0  0  0  0  0
   12.8788   21.9466   -1.0937 O   0  0  0  0  0  0  0  0  0  0  0  0
   13.7046   23.6662    0.1630 N   0  0  0  0  0  0  0  0  0  0  0  0
   13.6237   24.6589    0.4352 H   0  0  0  0  0  0  0  0  0  0  0  0
   14.7357   22.8230    0.6970 C   0  0  0  0  0  0  0  0  0  0  0  0
   16.0866   23.3976    0.6792 C   0  0  0  0  0  0  0  0  0  0  0  0
   16.3804   24.4741    0.1823 O   0  0  0  0  0  0  0  0  0  0  0  0
   14.6921   21.4423    0.0688 C   0  0  0  0  0  0  0  0  0  0  0  0
   14.5025   20.3216    1.0334 C   0  0  0  0  0  0  0  0  0  0  0  0
   13.0089   20.2897    1.3701 C   0  0  0  0  0  0  0  0  0  0  0  0
   12.8205   20.4313    2.7892 N   0  0  0  0  0  0  0  0  0  0  0  0
   13.5889   20.7929    3.4236 H   0  0  0  0  0  0  0  0  0  0  0  0
   11.5981   20.0836    3.3854 C   0  0  0  0  0  0  0  0  0  0  0  0
   11.5709   19.1223    4.4179 N   0  0  0  0  0  0  0  0  0  0  0  0
   10.5100   20.6348    2.9992 N   0  0  0  0  0  0  0  0  0  0  0  0
   11.8997   19.3341    5.4049 H   0  0  0  0  0  0  0  0  0  0  0  0
   11.2185   18.1863    4.1961 H   0  0  0  0  0  0  0  0  0  0  0  0
   10.4945   21.3402    2.2507 H   0  0  0  0  0  0  0  0  0  0  0  0
   10.2236   23.5575    0.6609 C   0  0  0  0  0  0  0  0  0  0  0  0
   11.2606   23.4197    1.3715 O   0  0  0  0  0  0  0  0  0  0  0  0
   10.3790   23.8312   -0.7052 N   0  0  0  0  0  0  0  0  0  0  0  0
    9.5091   23.9240   -1.2936 H   0  0  0  0  0  0  0  0  0  0  0  0
    8.8892   23.4129    1.3529 C   0  0  0  0  0  0  0  0  0  0  0  0
    7.4882   21.5116    0.6334 C   0  0  0  0  0  0  0  0  0  0  0  0
    7.7258   20.8690    1.7051 O   0  0  0  0  0  0  0  0  0  0  0  0
    8.0298   22.7896    0.3848 N   0  0  0  0  0  0  0  0  0  0  0  0
    7.7944   23.2701   -0.5098 H   0  0  0  0  0  0  0  0  0  0  0  0
    6.0017   19.6043    0.2072 C   0  0  0  0  0  0  0  0  0  0  0  0
    6.6092   20.8572   -0.3619 C   0  0  0  0  0  0  0  0  0  0  0  0
    7.3239   20.5316   -1.5730 N   0  0  0  0  0  0  0  0  0  0  0  0
    8.1252   19.9145   -1.4213 H   0  0  0  0  0  0  0  0  0  0  0  0
    6.7212   20.3319   -2.3743 H   0  0  0  0  0  0  0  0  0  0  0  0
    8.4922   24.7339    1.8690 C   0  0  0  0  0  0  0  0  0  0  0  0
    9.1807   25.2359    3.0902 C   0  0  0  0  0  0  0  0  0  0  0  0
    8.6830   26.5291    3.6411 C   0  0  0  0  0  0  0  0  0  0  0  0
    9.1794   24.1825    4.2000 C   0  0  0  0  0  0  0  0  0  0  0  0
   12.0321   25.4292   -1.5050 C   0  0  0  0  0  0  0  0  0  0  0  0
   12.7680   25.8052   -2.7028 C   0  0  0  0  0  0  0  0  0  0  0  0
   12.4808   26.9653   -3.4745 C   0  0  0  0  0  0  0  0  0  0  0  0
   13.3692   27.0361   -4.4557 N   0  0  0  0  0  0  0  0  0  0  0  0
   14.2149   25.9782   -4.3560 C   0  0  0  0  0  0  0  0  0  0  0  0
   15.2857   25.6195   -5.1384 C   0  0  0  0  0  0  0  0  0  0  0  0
   15.9973   24.4869   -4.8418 C   0  0  0  0  0  0  0  0  0  0  0  0
   15.6766   23.6757   -3.7711 C   0  0  0  0  0  0  0  0  0  0  0  0
   14.5955   24.0591   -3.0015 C   0  0  0  0  0  0  0  0  0  0  0  0
   13.8557   25.1886   -3.2609 C   0  0  0  0  0  0  0  0  0  0  0  0
   13.4437   27.7729   -5.2064 H   0  0  0  0  0  0  0  0  0  0  0  0
 29 30  1  0  0  0
 30 31  1  0  0  0
 30 25  1  0  0  0
 25 26  2  0  0  0
 25 27  1  0  0  0
 27 24  1  0  0  0
 24 34  1  0  0  0
 34 35  1  0  0  0
 35 36  1  0  0  0
 35 37  1  0  0  0
 24 20  1  0  0  0
 20 21  2  0  0  0
 20 22  1  0  0  0
 22  1  1  0  0  0
  1 38  1  0  0  0
 38 39  1  0  0  0
 39 40  2  0  0  0
 40 41  1  0  0  0
 41 42  1  0  0  0
 42 43  2  0  0  0
 43 44  1  0  0  0
 44 45  2  0  0  0
 45 46  1  0  0  0
 46 47  2  0  0  0
  1  2  1  0  0  0
  2  3  2  0  0  0
  2  4  1  0  0  0
  4  6  1  0  0  0
  6  9  1  0  0  0
  9 10  1  0  0  0
 10 11  1  0  0  0
 11 12  1  0  0  0
 12 14  1  0  0  0
 14 15  1  0  0  0
 14 16  2  0  0  0
  6  7  1  0  0  0
  7  8  2  0  0  0
 47 39  1  0  0  0
 47 42  1  0  0  0
 31 32  1  0  0  0
 31 33  1  0  0  0
 27 28  1  0  0  0
 22 23  1  0  0  0
 41 48  1  0  0  0
  4  5  1  0  0  0
 12 13  1  0  0  0
 15 17  1  0  0  0
 15 18  1  0  0  0
 16 19  1  0  0  0
M  END
> <minimizedAffinity>
-7.42664

> <CNNscore>
0.4212442636

> <CNNaffinity>
7.5947914124

> <CNN_VS>
3.1992623806

> <CNNaffinity_variance>
0.0251667537

$$$$
[H]N=C(N([H])[H])N([H])C([H])([H])C([H])([H])C([H])([H])[C@@]([H])(C([H])=O)N([H])C(=O)[C@@]([H])(N([H])C(=O)[C@]([H])(N([H])C(=O)[C@@]([H])(N([H])[H])C([H])([H])[H])C([H])([H])C([H])(C([H])([H])[H])C([H])([H])[H])C([H])([H])c1c([H])n([H])c2c([H])c([H])c([H])c([H])c12


 48 49  0  0  0  0  0  0  0  0999 V2000
   12.1800   23.9665   -1.4775 C   0  0  0  0  0  0  0  0  0  0  0  0
   13.4828   23.4744   -1.0886 C   0  0  0  0  0  0  0  0  0  0  0  0
   13.8710   22.2964   -1.3692 O   0  0  0  0  0  0  0  0  0  0  0  0
   14.4477   24.2651   -0.3640 N   0  0  0  0  0  0  0  0  0  0  0  0
   14.1723   25.2313   -0.1264 H   0  0  0  0  0  0  0  0  0  0  0  0
   15.7287   23.7364    0.0085 C   0  0  0  0  0  0  0  0  0  0  0  0
   15.7603   23.0122    1.2852 C   0  0  0  0  0  0  0  0  0  0  0  0
   15.9197   21.8066    1.3996 O   0  0  0  0  0  0  0  0  0  0  0  0
   16.8043   24.8039   -0.0713 C   0  0  0  0  0  0  0  0  0  0  0  0
   17.3829   25.0091   -1.4299 C   0  0  0  0  0  0  0  0  0  0  0  0
   16.8850   26.3756   -1.9093 C   0  0  0  0  0  0  0  0  0  0  0  0
   17.3980   26.6534   -3.2243 N   0  0  0  0  0  0  0  0  0  0  0  0
   17.7123   25.8806   -3.8784 H   0  0  0  0  0  0  0  0  0  0  0  0
   17.5051   27.9752   -3.6844 C   0  0  0  0  0  0  0  0  0  0  0  0
   16.3470   28.6713   -4.0909 N   0  0  0  0  0  0  0  0  0  0  0  0
   18.6459   28.5523   -3.7351 N   0  0  0  0  0  0  0  0  0  0  0  0
   15.6383   29.0547   -3.3996 H   0  0  0  0  0  0  0  0  0  0  0  0
   16.1930   28.8064   -5.0947 H   0  0  0  0  0  0  0  0  0  0  0  0
   19.5094   28.0745   -3.4449 H   0  0  0  0  0  0  0  0  0  0  0  0
   10.8851   24.0861    0.6638 C   0  0  0  0  0  0  0  0  0  0  0  0
   11.7081   24.9407    1.1015 O   0  0  0  0  0  0  0  0  0  0  0  0
   11.0845   23.5602   -0.6202 N   0  0  0  0  0  0  0  0  0  0  0  0
   10.4050   22.8332   -0.9686 H   0  0  0  0  0  0  0  0  0  0  0  0
    9.7432   23.6994    1.5733 C   0  0  0  0  0  0  0  0  0  0  0  0
    8.3460   21.7379    1.0295 C   0  0  0  0  0  0  0  0  0  0  0  0
    8.7520   21.1043    2.0550 O   0  0  0  0  0  0  0  0  0  0  0  0
    8.7920   23.0398    0.7221 N   0  0  0  0  0  0  0  0  0  0  0  0
    8.4189   23.5112   -0.1295 H   0  0  0  0  0  0  0  0  0  0  0  0
    8.0773   20.3543   -0.9812 C   0  0  0  0  0  0  0  0  0  0  0  0
    7.3732   21.0465    0.1537 C   0  0  0  0  0  0  0  0  0  0  0  0
    6.3929   21.9608   -0.3817 N   0  0  0  0  0  0  0  0  0  0  0  0
    6.8011   22.7262   -0.9236 H   0  0  0  0  0  0  0  0  0  0  0  0
    5.5602   21.5064   -0.7625 H   0  0  0  0  0  0  0  0  0  0  0  0
    9.2968   24.9056    2.2909 C   0  0  0  0  0  0  0  0  0  0  0  0
    8.7945   24.7374    3.6826 C   0  0  0  0  0  0  0  0  0  0  0  0
    7.3128   24.7144    3.8486 C   0  0  0  0  0  0  0  0  0  0  0  0
    9.3940   23.4936    4.3419 C   0  0  0  0  0  0  0  0  0  0  0  0
   12.1352   25.4374   -1.7596 C   0  0  0  0  0  0  0  0  0  0  0  0
   12.7638   25.9070   -2.9851 C   0  0  0  0  0  0  0  0  0  0  0  0
   12.4132   27.1220   -3.6371 C   0  0  0  0  0  0  0  0  0  0  0  0
   13.2119   27.2712   -4.6845 N   0  0  0  0  0  0  0  0  0  0  0  0
   14.0598   26.2119   -4.7413 C   0  0  0  0  0  0  0  0  0  0  0  0
   15.0563   25.9184   -5.6403 C   0  0  0  0  0  0  0  0  0  0  0  0
   15.7878   24.7690   -5.4955 C   0  0  0  0  0  0  0  0  0  0  0  0
   15.5603   23.8768   -4.4662 C   0  0  0  0  0  0  0  0  0  0  0  0
   14.5525   24.1960   -3.5771 C   0  0  0  0  0  0  0  0  0  0  0  0
   13.7961   25.3392   -3.6826 C   0  0  0  0  0  0  0  0  0  0  0  0
   13.2221   28.0638   -5.3800 H   0  0  0  0  0  0  0  0  0  0  0  0
 29 30  1  0  0  0
 30 31  1  0  0  0
 30 25  1  0  0  0
 25 26  2  0  0  0
 25 27  1  0  0  0
 27 24  1  0  0  0
 24 34  1  0  0  0
 34 35  1  0  0  0
 35 36  1  0  0  0
 35 37  1  0  0  0
 24 20  1  0  0  0
 20 21  2  0  0  0
 20 22  1  0  0  0
 22  1  1  0  0  0
  1 38  1  0  0  0
 38 39  1  0  0  0
 39 40  2  0  0  0
 40 41  1  0  0  0
 41 42  1  0  0  0
 42 43  2  0  0  0
 43 44  1  0  0  0
 44 45  2  0  0  0
 45 46  1  0  0  0
 46 47  2  0  0  0
  1  2  1  0  0  0
  2  3  2  0  0  0
  2  4  1  0  0  0
  4  6  1  0  0  0
  6  9  1  0  0  0
  9 10  1  0  0  0
 10 11  1  0  0  0
 11 12  1  0  0  0
 12 14  1  0  0  0
 14 15  1  0  0  0
 14 16  2  0  0  0
  6  7  1  0  0  0
  7  8  2  0  0  0
 47 39  1  0  0  0
 47 42  1  0  0  0
 31 32  1  0  0  0
 31 33  1  0  0  0
 27 28  1  0  0  0
 22 23  1  0  0  0
 41 48  1  0  0  0
  4  5  1  0  0  0
 12 13  1  0  0  0
 15 17  1  0  0  0
 15 18  1  0  0  0
 16 19  1  0  0  0
M  END
> <minimizedAffinity>
-6.06480

> <CNNscore>
0.3921458721

> <CNNaffinity>
7.8133316040

> <CNN_VS>
3.0639657974

> <CNNaffinity_variance>
0.1850797832

$$$$
[H]N=C(N([H])[H])N([H])C([H])([H])C([H])([H])C([H])([H])[C@@]([H])(C([H])=O)N([H])C(=O)[C@@]([H])(N([H])C(=O)[C@]([H])(N([H])C(=O)[C@@]([H])(N([H])[H])C([H])([H])[H])C([H])([H])C([H])(C([H])([H])[H])C([H])([H])[H])C([H])([H])c1c([H])n([H])c2c([H])c([H])c([H])c([H])c12


 48 49  0  0  0  0  0  0  0  0999 V2000
   10.6196   23.5749   -0.0794 C   0  0  0  0  0  0  0  0  0  0  0  0
   11.5347   24.6136   -0.4970 C   0  0  0  0  0  0  0  0  0  0  0  0
   12.0127   25.4613    0.3215 O   0  0  0  0  0  0  0  0  0  0  0  0
   11.9864   24.7757   -1.8574 N   0  0  0  0  0  0  0  0  0  0  0  0
   11.6272   24.0994   -2.5500 H   0  0  0  0  0  0  0  0  0  0  0  0
   12.8914   25.8246   -2.2317 C   0  0  0  0  0  0  0  0  0  0  0  0
   12.5040   26.5909   -3.4226 C   0  0  0  0  0  0  0  0  0  0  0  0
   13.2804   27.1967   -4.1453 O   0  0  0  0  0  0  0  0  0  0  0  0
   14.3166   25.3109   -2.3196 C   0  0  0  0  0  0  0  0  0  0  0  0
   14.6055   24.4684   -3.5151 C   0  0  0  0  0  0  0  0  0  0  0  0
   15.9947   24.8821   -4.0093 C   0  0  0  0  0  0  0  0  0  0  0  0
   16.1236   26.3145   -3.9749 N   0  0  0  0  0  0  0  0  0  0  0  0
   16.3790   26.8334   -3.0865 H   0  0  0  0  0  0  0  0  0  0  0  0
   15.9054   27.0790   -5.1318 C   0  0  0  0  0  0  0  0  0  0  0  0
   16.1257   28.4725   -5.1022 N   0  0  0  0  0  0  0  0  0  0  0  0
   15.5104   26.5193   -6.2123 N   0  0  0  0  0  0  0  0  0  0  0  0
   17.0985   28.8976   -5.1022 H   0  0  0  0  0  0  0  0  0  0  0  0
   15.3081   29.0894   -5.0796 H   0  0  0  0  0  0  0  0  0  0  0  0
   15.3420   25.5061   -6.2688 H   0  0  0  0  0  0  0  0  0  0  0  0
   11.5160   21.3285    0.5737 C   0  0  0  0  0  0  0  0  0  0  0  0
   11.3655   20.9335   -0.6182 O   0  0  0  0  0  0  0  0  0  0  0  0
   11.1470   22.6419    0.8960 N   0  0  0  0  0  0  0  0  0  0  0  0
   11.2570   22.9557    1.8965 H   0  0  0  0  0  0  0  0  0  0  0  0
   12.0872   20.3389    1.5612 C   0  0  0  0  0  0  0  0  0  0  0  0
   11.3844   19.7250    3.8469 C   0  0  0  0  0  0  0  0  0  0  0  0
   11.7869   18.5273    3.7005 O   0  0  0  0  0  0  0  0  0  0  0  0
   11.5024   20.6902    2.8257 N   0  0  0  0  0  0  0  0  0  0  0  0
   11.1596   21.6579    3.0063 H   0  0  0  0  0  0  0  0  0  0  0  0
    9.5703   19.2158    5.4214 C   0  0  0  0  0  0  0  0  0  0  0  0
   10.7749   20.0748    5.1498 C   0  0  0  0  0  0  0  0  0  0  0  0
   10.3896   21.4649    5.2029 N   0  0  0  0  0  0  0  0  0  0  0  0
    9.7248   21.7328    4.4734 H   0  0  0  0  0  0  0  0  0  0  0  0
   10.2187   21.8165    6.1475 H   0  0  0  0  0  0  0  0  0  0  0  0
   13.5556   20.3758    1.4536 C   0  0  0  0  0  0  0  0  0  0  0  0
   14.1524   21.2738    0.4266 C   0  0  0  0  0  0  0  0  0  0  0  0
   15.2468   22.1721    0.8945 C   0  0  0  0  0  0  0  0  0  0  0  0
   14.6374   20.4809   -0.7888 C   0  0  0  0  0  0  0  0  0  0  0  0
    9.2630   24.0713    0.3186 C   0  0  0  0  0  0  0  0  0  0  0  0
    8.8033   23.7663    1.6652 C   0  0  0  0  0  0  0  0  0  0  0  0
    8.3009   22.4949    2.0592 C   0  0  0  0  0  0  0  0  0  0  0  0
    8.0268   22.5453    3.3551 N   0  0  0  0  0  0  0  0  0  0  0  0
    8.3265   23.7868    3.8167 C   0  0  0  0  0  0  0  0  0  0  0  0
    8.2114   24.3176    5.0787 C   0  0  0  0  0  0  0  0  0  0  0  0
    8.5763   25.6183    5.3067 C   0  0  0  0  0  0  0  0  0  0  0  0
    9.0624   26.4329    4.3030 C   0  0  0  0  0  0  0  0  0  0  0  0
    9.1675   25.8743    3.0440 C   0  0  0  0  0  0  0  0  0  0  0  0
    8.8159   24.5735    2.7711 C   0  0  0  0  0  0  0  0  0  0  0  0
    7.6422   21.7745    3.9634 H   0  0  0  0  0  0  0  0  0  0  0  0
 29 30  1  0  0  0
 30 31  1  0  0  0
 30 25  1  0  0  0
 25 26  2  0  0  0
 25 27  1  0  0  0
 27 24  1  0  0  0
 24 34  1  0  0  0
 34 35  1  0  0  0
 35 36  1  0  0  0
 35 37  1  0  0  0
 24 20  1  0  0  0
 20 21  2  0  0  0
 20 22  1  0  0  0
 22  1  1  0  0  0
  1 38  1  0  0  0
 38 39  1  0  0  0
 39 40  2  0  0  0
 40 41  1  0  0  0
 41 42  1  0  0  0
 42 43  2  0  0  0
 43 44  1  0  0  0
 44 45  2  0  0  0
 45 46  1  0  0  0
 46 47  2  0  0  0
  1  2  1  0  0  0
  2  3  2  0  0  0
  2  4  1  0  0  0
  4  6  1  0  0  0
  6  9  1  0  0  0
  9 10  1  0  0  0
 10 11  1  0  0  0
 11 12  1  0  0  0
 12 14  1  0  0  0
 14 15  1  0  0  0
 14 16  2  0  0  0
  6  7  1  0  0  0
  7  8  2  0  0  0
 47 39  1  0  0  0
 47 42  1  0  0  0
 31 32  1  0  0  0
 31 33  1  0  0  0
 27 28  1  0  0  0
 22 23  1  0  0  0
 41 48  1  0  0  0
  4  5  1  0  0  0
 12 13  1  0  0  0
 15 17  1  0  0  0
 15 18  1  0  0  0
 16 19  1  0  0  0
M  END
> <minimizedAffinity>
-6.81045

> <CNNscore>
0.3307951093

> <CNNaffinity>
7.3657264709

> <CNN_VS>
2.4365463257

> <CNNaffinity_variance>
0.0997411460

$$$$
[H]N=C(N([H])[H])N([H])C([H])([H])C([H])([H])C([H])([H])[C@@]([H])(C([H])=O)N([H])C(=O)[C@@]([H])(N([H])C(=O)[C@]([H])(N([H])C(=O)[C@@]([H])(N([H])[H])C([H])([H])[H])C([H])([H])C([H])(C([H])([H])[H])C([H])([H])[H])C([H])([H])c1c([H])n([H])c2c([H])c([H])c([H])c([H])c12


 48 49  0  0  0  0  0  0  0  0999 V2000
    9.3238   23.4591    1.7044 C   0  0  0  0  0  0  0  0  0  0  0  0
    8.9041   22.2062    2.2916 C   0  0  0  0  0  0  0  0  0  0  0  0
    8.6129   21.1920    1.5820 O   0  0  0  0  0  0  0  0  0  0  0  0
    8.7860   21.9946    3.7137 N   0  0  0  0  0  0  0  0  0  0  0  0
    9.0236   22.7931    4.3237 H   0  0  0  0  0  0  0  0  0  0  0  0
    8.3598   20.7363    4.2562 C   0  0  0  0  0  0  0  0  0  0  0  0
    6.9294   20.6431    4.5734 C   0  0  0  0  0  0  0  0  0  0  0  0
    6.1446   19.8754    4.0377 O   0  0  0  0  0  0  0  0  0  0  0  0
    9.2340   20.3212    5.4251 C   0  0  0  0  0  0  0  0  0  0  0  0
   10.7000   20.4503    5.1871 C   0  0  0  0  0  0  0  0  0  0  0  0
   11.1514   19.1336    4.5486 C   0  0  0  0  0  0  0  0  0  0  0  0
   12.1554   19.3888    3.5504 N   0  0  0  0  0  0  0  0  0  0  0  0
   13.1102   18.9293    3.5850 H   0  0  0  0  0  0  0  0  0  0  0  0
   11.8992   20.2712    2.4893 C   0  0  0  0  0  0  0  0  0  0  0  0
   12.3551   21.6046    2.5617 N   0  0  0  0  0  0  0  0  0  0  0  0
   11.2569   19.8727    1.4570 N   0  0  0  0  0  0  0  0  0  0  0  0
   13.3748   21.8682    2.4282 H   0  0  0  0  0  0  0  0  0  0  0  0
   11.6671   22.3398    2.7512 H   0  0  0  0  0  0  0  0  0  0  0  0
   10.9122   18.9073    1.3712 H   0  0  0  0  0  0  0  0  0  0  0  0
   11.1409   24.1059    0.1056 C   0  0  0  0  0  0  0  0  0  0  0  0
   11.5746   24.9394    0.9521 O   0  0  0  0  0  0  0  0  0  0  0  0
   10.0085   23.3469    0.4322 N   0  0  0  0  0  0  0  0  0  0  0  0
    9.6421   22.6694   -0.2878 H   0  0  0  0  0  0  0  0  0  0  0  0
   11.8889   23.9982   -1.2019 C   0  0  0  0  0  0  0  0  0  0  0  0
   13.8602   22.7816   -0.3480 C   0  0  0  0  0  0  0  0  0  0  0  0
   14.2963   23.8139    0.2539 O   0  0  0  0  0  0  0  0  0  0  0  0
   12.6632   22.7928   -1.0933 N   0  0  0  0  0  0  0  0  0  0  0  0
   12.3532   21.9138   -1.5600 H   0  0  0  0  0  0  0  0  0  0  0  0
   13.9437   20.3788   -0.8467 C   0  0  0  0  0  0  0  0  0  0  0  0
   14.6697   21.5471   -0.2378 C   0  0  0  0  0  0  0  0  0  0  0  0
   14.9942   21.2423    1.1353 N   0  0  0  0  0  0  0  0  0  0  0  0
   14.1726   21.1227    1.7325 H   0  0  0  0  0  0  0  0  0  0  0  0
   15.7583   20.5723    1.2464 H   0  0  0  0  0  0  0  0  0  0  0  0
   12.6160   25.2600   -1.4221 C   0  0  0  0  0  0  0  0  0  0  0  0
   13.2218   25.4851   -2.7636 C   0  0  0  0  0  0  0  0  0  0  0  0
   12.8764   26.7717   -3.4336 C   0  0  0  0  0  0  0  0  0  0  0  0
   14.7438   25.3349   -2.7169 C   0  0  0  0  0  0  0  0  0  0  0  0
    8.2541   24.5073    1.6574 C   0  0  0  0  0  0  0  0  0  0  0  0
    8.2567   25.5189    2.7036 C   0  0  0  0  0  0  0  0  0  0  0  0
    9.1032   25.4711    3.8461 C   0  0  0  0  0  0  0  0  0  0  0  0
    8.8901   26.5668    4.5610 N   0  0  0  0  0  0  0  0  0  0  0  0
    7.9471   27.3187    3.9369 C   0  0  0  0  0  0  0  0  0  0  0  0
    7.3958   28.5264    4.2909 C   0  0  0  0  0  0  0  0  0  0  0  0
    6.4397   29.0987    3.4938 C   0  0  0  0  0  0  0  0  0  0  0  0
    5.9982   28.5013    2.3296 C   0  0  0  0  0  0  0  0  0  0  0  0
    6.5685   27.2878    1.9976 C   0  0  0  0  0  0  0  0  0  0  0  0
    7.5324   26.6791    2.7661 C   0  0  0  0  0  0  0  0  0  0  0  0
    9.3539   26.8470    5.4656 H   0  0  0  0  0  0  0  0  0  0  0  0
 29 30  1  0  0  0
 30 31  1  0  0  0
 30 25  1  0  0  0
 25 26  2  0  0  0
 25 27  1  0  0  0
 27 24  1  0  0  0
 24 34  1  0  0  0
 34 35  1  0  0  0
 35 36  1  0  0  0
 35 37  1  0  0  0
 24 20  1  0  0  0
 20 21  2  0  0  0
 20 22  1  0  0  0
 22  1  1  0  0  0
  1 38  1  0  0  0
 38 39  1  0  0  0
 39 40  2  0  0  0
 40 41  1  0  0  0
 41 42  1  0  0  0
 42 43  2  0  0  0
 43 44  1  0  0  0
 44 45  2  0  0  0
 45 46  1  0  0  0
 46 47  2  0  0  0
  1  2  1  0  0  0
  2  3  2  0  0  0
  2  4  1  0  0  0
  4  6  1  0  0  0
  6  9  1  0  0  0
  9 10  1  0  0  0
 10 11  1  0  0  0
 11 12  1  0  0  0
 12 14  1  0  0  0
 14 15  1  0  0  0
 14 16  2  0  0  0
  6  7  1  0  0  0
  7  8  2  0  0  0
 47 39  1  0  0  0
 47 42  1  0  0  0
 31 32  1  0  0  0
 31 33  1  0  0  0
 27 28  1  0  0  0
 22 23  1  0  0  0
 41 48  1  0  0  0
  4  5  1  0  0  0
 12 13  1  0  0  0
 15 17  1  0  0  0
 15 18  1  0  0  0
 16 19  1  0  0  0
M  END
> <minimizedAffinity>
-6.90190

> <CNNscore>
0.2961449921

> <CNNaffinity>
7.0010347366

> <CNN_VS>
2.0733213425

> <CNNaffinity_variance>
0.1158145219

$$$$
[H]N=C(N([H])[H])N([H])C([H])([H])C([H])([H])C([H])([H])[C@@]([H])(C([H])=O)N([H])C(=O)[C@@]([H])(N([H])C(=O)[C@]([H])(N([H])C(=O)[C@@]([H])(N([H])[H])C([H])([H])[H])C([H])([H])C([H])(C([H])([H])[H])C([H])([H])[H])C([H])([H])c1c([H])n([H])c2c([H])c([H])c([H])c([H])c12


 48 49  0  0  0  0  0  0  0  0999 V2000
   10.7470   24.4322    0.5932 C   0  0  0  0  0  0  0  0  0  0  0  0
   11.8102   25.0565   -0.1623 C   0  0  0  0  0  0  0  0  0  0  0  0
   12.6813   25.8020    0.3875 O   0  0  0  0  0  0  0  0  0  0  0  0
   11.9801   24.8874   -1.5848 N   0  0  0  0  0  0  0  0  0  0  0  0
   11.2971   24.2804   -2.0656 H   0  0  0  0  0  0  0  0  0  0  0  0
   13.0463   25.5301   -2.2986 C   0  0  0  0  0  0  0  0  0  0  0  0
   12.6269   26.5614   -3.2558 C   0  0  0  0  0  0  0  0  0  0  0  0
   13.2270   26.8473   -4.2806 O   0  0  0  0  0  0  0  0  0  0  0  0
   13.9760   24.5089   -2.9276 C   0  0  0  0  0  0  0  0  0  0  0  0
   15.2967   24.3647   -2.2513 C   0  0  0  0  0  0  0  0  0  0  0  0
   15.7880   25.7848   -1.9563 C   0  0  0  0  0  0  0  0  0  0  0  0
   16.8761   26.1223   -2.8349 N   0  0  0  0  0  0  0  0  0  0  0  0
   17.7960   25.5958   -2.8162 H   0  0  0  0  0  0  0  0  0  0  0  0
   16.7523   27.1780   -3.7517 C   0  0  0  0  0  0  0  0  0  0  0  0
   17.4914   28.3642   -3.5577 N   0  0  0  0  0  0  0  0  0  0  0  0
   15.9754   27.0696   -4.7624 N   0  0  0  0  0  0  0  0  0  0  0  0
   18.5337   28.4263   -3.7500 H   0  0  0  0  0  0  0  0  0  0  0  0
   16.9935   29.1924   -3.2175 H   0  0  0  0  0  0  0  0  0  0  0  0
   15.4239   26.2185   -4.9345 H   0  0  0  0  0  0  0  0  0  0  0  0
   11.7351   22.1492    0.8896 C   0  0  0  0  0  0  0  0  0  0  0  0
   12.7937   22.6769    1.3372 O   0  0  0  0  0  0  0  0  0  0  0  0
   10.6839   22.9878    0.4938 N   0  0  0  0  0  0  0  0  0  0  0  0
    9.8134   22.5396    0.1028 H   0  0  0  0  0  0  0  0  0  0  0  0
   11.6932   20.6413    0.8182 C   0  0  0  0  0  0  0  0  0  0  0  0
    9.6820   20.3625   -0.5863 C   0  0  0  0  0  0  0  0  0  0  0  0
   10.3137   20.6916   -1.6401 O   0  0  0  0  0  0  0  0  0  0  0  0
   10.3020   20.3105    0.6791 N   0  0  0  0  0  0  0  0  0  0  0  0
    9.7338   20.0280    1.5062 H   0  0  0  0  0  0  0  0  0  0  0  0
    8.0304   18.5466   -0.6488 C   0  0  0  0  0  0  0  0  0  0  0  0
    8.2469   20.0325   -0.7383 C   0  0  0  0  0  0  0  0  0  0  0  0
    7.7179   20.5157   -1.9914 N   0  0  0  0  0  0  0  0  0  0  0  0
    8.2047   20.1446   -2.8107 H   0  0  0  0  0  0  0  0  0  0  0  0
    6.6970   20.5543   -2.0280 H   0  0  0  0  0  0  0  0  0  0  0  0
   12.4097   20.1044    1.9876 C   0  0  0  0  0  0  0  0  0  0  0  0
   11.6265   19.8707    3.2324 C   0  0  0  0  0  0  0  0  0  0  0  0
   11.9166   18.6040    3.9637 C   0  0  0  0  0  0  0  0  0  0  0  0
   11.7556   21.0502    4.1984 C   0  0  0  0  0  0  0  0  0  0  0  0
   10.6547   24.8854    2.0184 C   0  0  0  0  0  0  0  0  0  0  0  0
    9.3519   24.8167    2.6633 C   0  0  0  0  0  0  0  0  0  0  0  0
    8.4921   25.9382    2.8278 C   0  0  0  0  0  0  0  0  0  0  0  0
    7.3725   25.5169    3.3988 N   0  0  0  0  0  0  0  0  0  0  0  0
    7.4678   24.1791    3.6119 C   0  0  0  0  0  0  0  0  0  0  0  0
    6.5724   23.3030    4.1761 C   0  0  0  0  0  0  0  0  0  0  0  0
    6.8976   21.9772    4.2928 C   0  0  0  0  0  0  0  0  0  0  0  0
    8.1097   21.4761    3.8604 C   0  0  0  0  0  0  0  0  0  0  0  0
    8.9913   22.3784    3.2976 C   0  0  0  0  0  0  0  0  0  0  0  0
    8.7053   23.7160    3.1582 C   0  0  0  0  0  0  0  0  0  0  0  0
    6.5260   26.0895    3.6587 H   0  0  0  0  0  0  0  0  0  0  0  0
 29 30  1  0  0  0
 30 31  1  0  0  0
 30 25  1  0  0  0
 25 26  2  0  0  0
 25 27  1  0  0  0
 27 24  1  0  0  0
 24 34  1  0  0  0
 34 35  1  0  0  0
 35 36  1  0  0  0
 35 37  1  0  0  0
 24 20  1  0  0  0
 20 21  2  0  0  0
 20 22  1  0  0  0
 22  1  1  0  0  0
  1 38  1  0  0  0
 38 39  1  0  0  0
 39 40  2  0  0  0
 40 41  1  0  0  0
 41 42  1  0  0  0
 42 43  2  0  0  0
 43 44  1  0  0  0
 44 45  2  0  0  0
 45 46  1  0  0  0
 46 47  2  0  0  0
  1  2  1  0  0  0
  2  3  2  0  0  0
  2  4  1  0  0  0
  4  6  1  0  0  0
  6  9  1  0  0  0
  9 10  1  0  0  0
 10 11  1  0  0  0
 11 12  1  0  0  0
 12 14  1  0  0  0
 14 15  1  0  0  0
 14 16  2  0  0  0
  6  7  1  0  0  0
  7  8  2  0  0  0
 47 39  1  0  0  0
 47 42  1  0  0  0
 31 32  1  0  0  0
 31 33  1  0  0  0
 27 28  1  0  0  0
 22 23  1  0  0  0
 41 48  1  0  0  0
  4  5  1  0  0  0
 12 13  1  0  0  0
 15 17  1  0  0  0
 15 18  1  0  0  0
 16 19  1  0  0  0
M  END
> <minimizedAffinity>
-5.97005

> <CNNscore>
0.2860202491

> <CNNaffinity>
7.1805944443

> <CNN_VS>
2.0537953377

> <CNNaffinity_variance>
0.0953491628

$$$$
[H]N=C(N([H])[H])N([H])C([H])([H])C([H])([H])C([H])([H])[C@@]([H])(C([H])=O)N([H])C(=O)[C@@]([H])(N([H])C(=O)[C@]([H])(N([H])C(=O)[C@@]([H])(N([H])[H])C([H])([H])[H])C([H])([H])C([H])(C([H])([H])[H])C([H])([H])[H])C([H])([H])c1c([H])n([H])c2c([H])c([H])c([H])c([H])c12


 48 49  0  0  0  0  0  0  0  0999 V2000
   10.9615   24.5161    0.2031 C   0  0  0  0  0  0  0  0  0  0  0  0
   12.0134   25.2183   -0.4979 C   0  0  0  0  0  0  0  0  0  0  0  0
   12.9110   25.8771    0.1163 O   0  0  0  0  0  0  0  0  0  0  0  0
   12.1415   25.2294   -1.9347 N   0  0  0  0  0  0  0  0  0  0  0  0
   11.4360   24.6968   -2.4684 H   0  0  0  0  0  0  0  0  0  0  0  0
   13.1977   25.9444   -2.5922 C   0  0  0  0  0  0  0  0  0  0  0  0
   12.7652   26.8760   -3.6412 C   0  0  0  0  0  0  0  0  0  0  0  0
   13.2904   26.9834   -4.7388 O   0  0  0  0  0  0  0  0  0  0  0  0
   14.2790   24.9969   -3.0779 C   0  0  0  0  0  0  0  0  0  0  0  0
   15.6418   25.5949   -3.1659 C   0  0  0  0  0  0  0  0  0  0  0  0
   16.3473   25.2573   -1.8492 C   0  0  0  0  0  0  0  0  0  0  0  0
   15.5556   24.3258   -1.0907 N   0  0  0  0  0  0  0  0  0  0  0  0
   14.7853   23.7506   -1.5374 H   0  0  0  0  0  0  0  0  0  0  0  0
   15.7787   24.1533    0.2843 C   0  0  0  0  0  0  0  0  0  0  0  0
   17.0983   24.1444    0.7840 N   0  0  0  0  0  0  0  0  0  0  0  0
   14.7928   24.0063    1.0864 N   0  0  0  0  0  0  0  0  0  0  0  0
   17.6781   25.0282    0.8829 H   0  0  0  0  0  0  0  0  0  0  0  0
   17.5037   23.2446    1.0591 H   0  0  0  0  0  0  0  0  0  0  0  0
   13.8188   24.0096    0.7558 H   0  0  0  0  0  0  0  0  0  0  0  0
   10.6566   22.4185   -1.1323 C   0  0  0  0  0  0  0  0  0  0  0  0
   10.3129   23.1159   -2.1297 O   0  0  0  0  0  0  0  0  0  0  0  0
   10.9816   23.0738    0.0635 N   0  0  0  0  0  0  0  0  0  0  0  0
   11.2471   22.4831    0.8955 H   0  0  0  0  0  0  0  0  0  0  0  0
   10.6874   20.9199   -1.3163 C   0  0  0  0  0  0  0  0  0  0  0  0
    8.3788   20.5258   -0.5351 C   0  0  0  0  0  0  0  0  0  0  0  0
    8.6795   20.8368    0.6610 O   0  0  0  0  0  0  0  0  0  0  0  0
    9.3255   20.5459   -1.5800 N   0  0  0  0  0  0  0  0  0  0  0  0
    9.0185   20.2864   -2.5418 H   0  0  0  0  0  0  0  0  0  0  0  0
    6.8697   19.3543   -2.0777 C   0  0  0  0  0  0  0  0  0  0  0  0
    6.9754   20.1331   -0.7951 C   0  0  0  0  0  0  0  0  0  0  0  0
    6.1034   21.2814   -0.8626 N   0  0  0  0  0  0  0  0  0  0  0  0
    6.3703   21.9553   -1.5842 H   0  0  0  0  0  0  0  0  0  0  0  0
    5.1098   21.0590   -0.7708 H   0  0  0  0  0  0  0  0  0  0  0  0
   11.3440   20.3245   -0.1401 C   0  0  0  0  0  0  0  0  0  0  0  0
   12.8314   20.2533   -0.1393 C   0  0  0  0  0  0  0  0  0  0  0  0
   13.5192   20.8546   -1.3177 C   0  0  0  0  0  0  0  0  0  0  0  0
   13.4145   20.8513    1.1427 C   0  0  0  0  0  0  0  0  0  0  0  0
   10.7965   24.9232    1.6357 C   0  0  0  0  0  0  0  0  0  0  0  0
    9.7106   24.3127    2.3879 C   0  0  0  0  0  0  0  0  0  0  0  0
    8.4070   24.8735    2.4888 C   0  0  0  0  0  0  0  0  0  0  0  0
    7.6552   24.0404    3.1945 N   0  0  0  0  0  0  0  0  0  0  0  0
    8.4096   22.9703    3.5548 C   0  0  0  0  0  0  0  0  0  0  0  0
    8.0794   21.8569    4.2890 C   0  0  0  0  0  0  0  0  0  0  0  0
    9.0257   20.8969    4.5338 C   0  0  0  0  0  0  0  0  0  0  0  0
   10.3208   21.0041    4.0662 C   0  0  0  0  0  0  0  0  0  0  0  0
   10.6258   22.1333    3.3315 C   0  0  0  0  0  0  0  0  0  0  0  0
    9.7073   23.1196    3.0596 C   0  0  0  0  0  0  0  0  0  0  0  0
    6.6388   24.1506    3.4532 H   0  0  0  0  0  0  0  0  0  0  0  0
 29 30  1  0  0  0
 30 31  1  0  0  0
 30 25  1  0  0  0
 25 26  2  0  0  0
 25 27  1  0  0  0
 27 24  1  0  0  0
 24 34  1  0  0  0
 34 35  1  0  0  0
 35 36  1  0  0  0
 35 37  1  0  0  0
 24 20  1  0  0  0
 20 21  2  0  0  0
 20 22  1  0  0  0
 22  1  1  0  0  0
  1 38  1  0  0  0
 38 39  1  0  0  0
 39 40  2  0  0  0
 40 41  1  0  0  0
 41 42  1  0  0  0
 42 43  2  0  0  0
 43 44  1  0  0  0
 44 45  2  0  0  0
 45 46  1  0  0  0
 46 47  2  0  0  0
  1  2  1  0  0  0
  2  3  2  0  0  0
  2  4  1  0  0  0
  4  6  1  0  0  0
  6  9  1  0  0  0
  9 10  1  0  0  0
 10 11  1  0  0  0
 11 12  1  0  0  0
 12 14  1  0  0  0
 14 15  1  0  0  0
 14 16  2  0  0  0
  6  7  1  0  0  0
  7  8  2  0  0  0
 47 39  1  0  0  0
 47 42  1  0  0  0
 31 32  1  0  0  0
 31 33  1  0  0  0
 27 28  1  0  0  0
 22 23  1  0  0  0
 41 48  1  0  0  0
  4  5  1  0  0  0
 12 13  1  0  0  0
 15 17  1  0  0  0
 15 18  1  0  0  0
 16 19  1  0  0  0
M  END
> <minimizedAffinity>
-6.28536

> <CNNscore>
0.2534925938

> <CNNaffinity>
7.0389275551

> <CNN_VS>
1.7843159437

> <CNNaffinity_variance>
0.3086779714

$$$$
[H]N=C(N([H])[H])N([H])C([H])([H])C([H])([H])C([H])([H])[C@@]([H])(C([H])=O)N([H])C(=O)[C@@]([H])(N([H])C(=O)[C@]([H])(N([H])C(=O)[C@@]([H])(N([H])[H])C([H])([H])[H])C([H])([H])C([H])(C([H])([H])[H])C([H])([H])[H])C([H])([H])c1c([H])n([H])c2c([H])c([H])c([H])c([H])c12


 48 49  0  0  0  0  0  0  0  0999 V2000
   10.2794   23.2413   -0.4794 C   0  0  0  0  0  0  0  0  0  0  0  0
   11.3083   24.1831   -0.8604 C   0  0  0  0  0  0  0  0  0  0  0  0
   11.3012   25.3897   -0.4593 O   0  0  0  0  0  0  0  0  0  0  0  0
   12.4224   23.8426   -1.7114 N   0  0  0  0  0  0  0  0  0  0  0  0
   12.4680   22.8681   -2.0495 H   0  0  0  0  0  0  0  0  0  0  0  0
   13.4199   24.8094   -2.0709 C   0  0  0  0  0  0  0  0  0  0  0  0
   13.0586   25.6989   -3.1816 C   0  0  0  0  0  0  0  0  0  0  0  0
   13.5283   26.8114   -3.3656 O   0  0  0  0  0  0  0  0  0  0  0  0
   14.7698   24.1490   -2.2817 C   0  0  0  0  0  0  0  0  0  0  0  0
   15.0041   23.6295   -3.6593 C   0  0  0  0  0  0  0  0  0  0  0  0
   15.9247   24.6392   -4.3508 C   0  0  0  0  0  0  0  0  0  0  0  0
   15.3010   25.1349   -5.5486 N   0  0  0  0  0  0  0  0  0  0  0  0
   14.5459   24.5894   -6.0547 H   0  0  0  0  0  0  0  0  0  0  0  0
   15.6838   26.3703   -6.0942 C   0  0  0  0  0  0  0  0  0  0  0  0
   15.7957   27.5008   -5.2574 N   0  0  0  0  0  0  0  0  0  0  0  0
   15.9335   26.4759   -7.3446 N   0  0  0  0  0  0  0  0  0  0  0  0
   16.6069   27.6372   -4.5862 H   0  0  0  0  0  0  0  0  0  0  0  0
   15.0600   28.2120   -5.3068 H   0  0  0  0  0  0  0  0  0  0  0  0
   15.8634   25.6717   -7.9821 H   0  0  0  0  0  0  0  0  0  0  0  0
   11.6071   22.4956    1.5099 C   0  0  0  0  0  0  0  0  0  0  0  0
   12.1217   23.6484    1.5854 O   0  0  0  0  0  0  0  0  0  0  0  0
   10.6853   22.2391    0.4854 N   0  0  0  0  0  0  0  0  0  0  0  0
   10.2771   21.2694    0.4180 H   0  0  0  0  0  0  0  0  0  0  0  0
   12.0353   21.4802    2.5425 C   0  0  0  0  0  0  0  0  0  0  0  0
   13.6685   20.8484    0.8022 C   0  0  0  0  0  0  0  0  0  0  0  0
   12.8022   20.9676   -0.1216 O   0  0  0  0  0  0  0  0  0  0  0  0
   13.3634   21.0903    2.1575 N   0  0  0  0  0  0  0  0  0  0  0  0
   14.1169   20.9820    2.8696 H   0  0  0  0  0  0  0  0  0  0  0  0
   16.0621   21.3676    0.9755 C   0  0  0  0  0  0  0  0  0  0  0  0
   15.0315   20.4373    0.3966 C   0  0  0  0  0  0  0  0  0  0  0  0
   15.1739   20.4041   -1.0395 N   0  0  0  0  0  0  0  0  0  0  0  0
   14.9790   21.3011   -1.4903 H   0  0  0  0  0  0  0  0  0  0  0  0
   15.9876   19.8793   -1.3677 H   0  0  0  0  0  0  0  0  0  0  0  0
   11.0064   20.4284    2.6088 C   0  0  0  0  0  0  0  0  0  0  0  0
   10.5592   19.9811    3.9569 C   0  0  0  0  0  0  0  0  0  0  0  0
   11.3534   18.8856    4.5833 C   0  0  0  0  0  0  0  0  0  0  0  0
   10.4704   21.1582    4.9305 C   0  0  0  0  0  0  0  0  0  0  0  0
    8.9767   23.8735   -0.0940 C   0  0  0  0  0  0  0  0  0  0  0  0
    8.3487   23.4226    1.1389 C   0  0  0  0  0  0  0  0  0  0  0  0
    7.5702   22.2361    1.2407 C   0  0  0  0  0  0  0  0  0  0  0  0
    7.1988   22.0959    2.5054 N   0  0  0  0  0  0  0  0  0  0  0  0
    7.6983   23.1339    3.2246 C   0  0  0  0  0  0  0  0  0  0  0  0
    7.5807   23.4266    4.5618 C   0  0  0  0  0  0  0  0  0  0  0  0
    8.1762   24.5520    5.0679 C   0  0  0  0  0  0  0  0  0  0  0  0
    8.9014   25.4203    4.2758 C   0  0  0  0  0  0  0  0  0  0  0  0
    9.0033   25.1025    2.9354 C   0  0  0  0  0  0  0  0  0  0  0  0
    8.4247   23.9828    2.3860 C   0  0  0  0  0  0  0  0  0  0  0  0
    6.6162   21.3233    2.9246 H   0  0  0  0  0  0  0  0  0  0  0  0
 29 30  1  0  0  0
 30 31  1  0  0  0
 30 25  1  0  0  0
 25 26  2  0  0  0
 25 27  1  0  0  0
 27 24  1  0  0  0
 24 34  1  0  0  0
 34 35  1  0  0  0
 35 36  1  0  0  0
 35 37  1  0  0  0
 24 20  1  0  0  0
 20 21  2  0  0  0
 20 22  1  0  0  0
 22  1  1  0  0  0
  1 38  1  0  0  0
 38 39  1  0  0  0
 39 40  2  0  0  0
 40 41  1  0  0  0
 41 42  1  0  0  0
 42 43  2  0  0  0
 43 44  1  0  0  0
 44 45  2  0  0  0
 45 46  1  0  0  0
 46 47  2  0  0  0
  1  2  1  0  0  0
  2  3  2  0  0  0
  2  4  1  0  0  0
  4  6  1  0  0  0
  6  9  1  0  0  0
  9 10  1  0  0  0
 10 11  1  0  0  0
 11 12  1  0  0  0
 12 14  1  0  0  0
 14 15  1  0  0  0
 14 16  2  0  0  0
  6  7  1  0  0  0
  7  8  2  0  0  0
 47 39  1  0  0  0
 47 42  1  0  0  0
 31 32  1  0  0  0
 31 33  1  0  0  0
 27 28  1  0  0  0
 22 23  1  0  0  0
 41 48  1  0  0  0
  4  5  1  0  0  0
 12 13  1  0  0  0
 15 17  1  0  0  0
 15 18  1  0  0  0
 16 19  1  0  0  0
M  END
> <minimizedAffinity>
-5.66321

> <CNNscore>
0.2520895302

> <CNNaffinity>
7.4910440445

> <CNN_VS>
1.8884137869

> <CNNaffinity_variance>
0.1313507259

$$$$
[H]N=C(N([H])[H])N([H])C([H])([H])C([H])([H])C([H])([H])[C@@]([H])(C([H])=O)N([H])C(=O)[C@@]([H])(N([H])C(=O)[C@]([H])(N([H])C(=O)[C@@]([H])(N([H])[H])C([H])([H])[H])C([H])([H])C([H])(C([H])([H])[H])C([H])([H])[H])C([H])([H])c1c([H])n([H])c2c([H])c([H])c([H])c([H])c12


 48 49  0  0  0  0  0  0  0  0999 V2000
   11.0978   24.3878    0.4542 C   0  0  0  0  0  0  0  0  0  0  0  0
   12.0258   25.1556   -0.3458 C   0  0  0  0  0  0  0  0  0  0  0  0
   12.7925   26.0323    0.1646 O   0  0  0  0  0  0  0  0  0  0  0  0
   12.1684   24.9943   -1.7723 N   0  0  0  0  0  0  0  0  0  0  0  0
   11.5690   24.2839   -2.2219 H   0  0  0  0  0  0  0  0  0  0  0  0
   13.0981   25.7812   -2.5310 C   0  0  0  0  0  0  0  0  0  0  0  0
   12.5016   26.6148   -3.5821 C   0  0  0  0  0  0  0  0  0  0  0  0
   13.1127   27.4278   -4.2586 O   0  0  0  0  0  0  0  0  0  0  0  0
   14.2370   24.9263   -3.0553 C   0  0  0  0  0  0  0  0  0  0  0  0
   15.5643   25.6042   -3.0889 C   0  0  0  0  0  0  0  0  0  0  0  0
   16.4871   24.7922   -2.1756 C   0  0  0  0  0  0  0  0  0  0  0  0
   16.4562   25.3287   -0.8412 N   0  0  0  0  0  0  0  0  0  0  0  0
   16.5577   26.3668   -0.6516 H   0  0  0  0  0  0  0  0  0  0  0  0
   16.2949   24.4807    0.2657 C   0  0  0  0  0  0  0  0  0  0  0  0
   17.4310   23.9957    0.9478 N   0  0  0  0  0  0  0  0  0  0  0  0
   15.1244   24.1473    0.6603 N   0  0  0  0  0  0  0  0  0  0  0  0
   18.0091   24.6029    1.5992 H   0  0  0  0  0  0  0  0  0  0  0  0
   17.7002   23.0181    0.8018 H   0  0  0  0  0  0  0  0  0  0  0  0
   14.2755   24.4841    0.1871 H   0  0  0  0  0  0  0  0  0  0  0  0
   11.3104   21.9873   -0.2302 C   0  0  0  0  0  0  0  0  0  0  0  0
   10.7693   22.2663   -1.3387 O   0  0  0  0  0  0  0  0  0  0  0  0
   11.4877   23.0151    0.7064 N   0  0  0  0  0  0  0  0  0  0  0  0
   11.9209   22.7689    1.6356 H   0  0  0  0  0  0  0  0  0  0  0  0
   11.7240   20.5522   -0.0065 C   0  0  0  0  0  0  0  0  0  0  0  0
   10.7873   20.5303    2.2776 C   0  0  0  0  0  0  0  0  0  0  0  0
    9.6066   20.7260    1.8468 O   0  0  0  0  0  0  0  0  0  0  0  0
   11.8976   20.4285    1.4143 N   0  0  0  0  0  0  0  0  0  0  0  0
   12.8408   20.2618    1.8257 H   0  0  0  0  0  0  0  0  0  0  0  0
   11.6997   19.1531    4.0942 C   0  0  0  0  0  0  0  0  0  0  0  0
   10.9573   20.4135    3.7435 C   0  0  0  0  0  0  0  0  0  0  0  0
    9.6879   20.4247    4.4307 N   0  0  0  0  0  0  0  0  0  0  0  0
    9.0571   19.6755    4.1360 H   0  0  0  0  0  0  0  0  0  0  0  0
    9.7556   20.6161    5.4326 H   0  0  0  0  0  0  0  0  0  0  0  0
   12.8873   20.2689   -0.8643 C   0  0  0  0  0  0  0  0  0  0  0  0
   14.1036   21.1081   -0.6811 C   0  0  0  0  0  0  0  0  0  0  0  0
   15.2103   20.4981    0.1104 C   0  0  0  0  0  0  0  0  0  0  0  0
   14.6528   21.5895   -2.0257 C   0  0  0  0  0  0  0  0  0  0  0  0
   10.6581   25.0701    1.7138 C   0  0  0  0  0  0  0  0  0  0  0  0
    9.3576   24.7075    2.2568 C   0  0  0  0  0  0  0  0  0  0  0  0
    8.5317   23.6849    1.7123 C   0  0  0  0  0  0  0  0  0  0  0  0
    7.4531   23.5784    2.4754 N   0  0  0  0  0  0  0  0  0  0  0  0
    7.5416   24.4825    3.4848 C   0  0  0  0  0  0  0  0  0  0  0  0
    6.6740   24.7516    4.5156 C   0  0  0  0  0  0  0  0  0  0  0  0
    6.9788   25.7300    5.4250 C   0  0  0  0  0  0  0  0  0  0  0  0
    8.1416   26.4709    5.3466 C   0  0  0  0  0  0  0  0  0  0  0  0
    8.9956   26.1803    4.3006 C   0  0  0  0  0  0  0  0  0  0  0  0
    8.7312   25.2057    3.3677 C   0  0  0  0  0  0  0  0  0  0  0  0
    6.6413   22.9161    2.3558 H   0  0  0  0  0  0  0  0  0  0  0  0
 29 30  1  0  0  0
 30 31  1  0  0  0
 30 25  1  0  0  0
 25 26  2  0  0  0
 25 27  1  0  0  0
 27 24  1  0  0  0
 24 34  1  0  0  0
 34 35  1  0  0  0
 35 36  1  0  0  0
 35 37  1  0  0  0
 24 20  1  0  0  0
 20 21  2  0  0  0
 20 22  1  0  0  0
 22  1  1  0  0  0
  1 38  1  0  0  0
 38 39  1  0  0  0
 39 40  2  0  0  0
 40 41  1  0  0  0
 41 42  1  0  0  0
 42 43  2  0  0  0
 43 44  1  0  0  0
 44 45  2  0  0  0
 45 46  1  0  0  0
 46 47  2  0  0  0
  1  2  1  0  0  0
  2  3  2  0  0  0
  2  4  1  0  0  0
  4  6  1  0  0  0
  6  9  1  0  0  0
  9 10  1  0  0  0
 10 11  1  0  0  0
 11 12  1  0  0  0
 12 14  1  0  0  0
 14 15  1  0  0  0
 14 16  2  0  0  0
  6  7  1  0  0  0
  7  8  2  0  0  0
 47 39  1  0  0  0
 47 42  1  0  0  0
 31 32  1  0  0  0
 31 33  1  0  0  0
 27 28  1  0  0  0
 22 23  1  0  0  0
 41 48  1  0  0  0
  4  5  1  0  0  0
 12 13  1  0  0  0
 15 17  1  0  0  0
 15 18  1  0  0  0
 16 19  1  0  0  0
M  END
> <minimizedAffinity>
-6.44213

> <CNNscore>
0.2107383162

> <CNNaffinity>
6.9874048233

> <CNN_VS>
1.4725139141

> <CNNaffinity_variance>
0.3672947288

$$$$
[H]Oc1c([H])c([H])c(C(=O)C2([H])N(C(=O)[C@@]3([H])Oc4c([H])c([H])c(F)c([H])c4C(=O)N(c4c([H])c([H])c(F)c([H])c4[H])C3([H])[H])C([H])([H])C2(C([H])([H])[H])C([H])([H])[H])c([H])c1[H]


 38 42  0  0  0  0  0  0  0  0999 V2000
   14.6116   23.5771   -2.8677 C   0  0  0  0  0  0  0  0  0  0  0  0
   14.9791   24.1862   -1.5331 C   0  0  0  0  0  0  0  0  0  0  0  0
   16.1797   24.9747   -1.5872 N   0  0  0  0  0  0  0  0  0  0  0  0
   16.5920   25.9038   -2.5704 C   0  0  0  0  0  0  0  0  0  0  0  0
   17.7169   26.4737   -2.4502 O   0  0  0  0  0  0  0  0  0  0  0  0
   15.8347   26.3105   -3.7786 C   0  0  0  0  0  0  0  0  0  0  0  0
   16.3362   27.4314   -4.4007 C   0  0  0  0  0  0  0  0  0  0  0  0
   15.7325   27.9346   -5.5429 C   0  0  0  0  0  0  0  0  0  0  0  0
   16.1985   29.0353   -6.1795 F   0  0  0  0  0  0  0  0  0  0  0  0
   14.6198   27.3180   -6.0719 C   0  0  0  0  0  0  0  0  0  0  0  0
   14.1260   26.1875   -5.4327 C   0  0  0  0  0  0  0  0  0  0  0  0
   14.7198   25.6832   -4.2997 C   0  0  0  0  0  0  0  0  0  0  0  0
   14.1056   24.5380   -3.7714 O   0  0  0  0  0  0  0  0  0  0  0  0
    9.7808   23.7690   -2.0366 C   0  0  0  0  0  0  0  0  0  0  0  0
   10.6262   23.2140   -0.8943 C   0  0  0  0  0  0  0  0  0  0  0  0
    9.9044   23.1826    0.4309 C   0  0  0  0  0  0  0  0  0  0  0  0
   11.9724   23.8586   -0.8624 C   0  0  0  0  0  0  0  0  0  0  0  0
   12.4879   22.8240   -1.7217 N   0  0  0  0  0  0  0  0  0  0  0  0
   11.3610   21.9778   -1.2989 C   0  0  0  0  0  0  0  0  0  0  0  0
   13.5618   22.5763   -2.6074 C   0  0  0  0  0  0  0  0  0  0  0  0
   13.6261   21.4580   -3.1970 O   0  0  0  0  0  0  0  0  0  0  0  0
   11.7695   21.0464   -0.2341 C   0  0  0  0  0  0  0  0  0  0  0  0
   10.9842   20.2054    0.2842 O   0  0  0  0  0  0  0  0  0  0  0  0
   13.1423   21.0782    0.2637 C   0  0  0  0  0  0  0  0  0  0  0  0
   13.5578   22.0844    1.1093 C   0  0  0  0  0  0  0  0  0  0  0  0
   14.8469   22.1206    1.5681 C   0  0  0  0  0  0  0  0  0  0  0  0
   15.7688   21.1546    1.2010 C   0  0  0  0  0  0  0  0  0  0  0  0
   17.0706   21.1719    1.6502 O   0  0  0  0  0  0  0  0  0  0  0  0
   15.3294   20.1646    0.3589 C   0  0  0  0  0  0  0  0  0  0  0  0
   14.0442   20.0870   -0.1278 C   0  0  0  0  0  0  0  0  0  0  0  0
   17.7424   21.6721    1.0946 H   0  0  0  0  0  0  0  0  0  0  0  0
   17.0679   24.7943   -0.5090 C   0  0  0  0  0  0  0  0  0  0  0  0
   18.3257   24.2451   -0.6272 C   0  0  0  0  0  0  0  0  0  0  0  0
   19.1579   24.0908    0.4670 C   0  0  0  0  0  0  0  0  0  0  0  0
   18.7604   24.4818    1.7258 C   0  0  0  0  0  0  0  0  0  0  0  0
   19.5691   24.3357    2.8171 F   0  0  0  0  0  0  0  0  0  0  0  0
   17.5026   25.0336    1.8599 C   0  0  0  0  0  0  0  0  0  0  0  0
   16.6687   25.1862    0.7508 C   0  0  0  0  0  0  0  0  0  0  0  0
 14 15  1  0  0  0
 15 16  1  0  0  0
 15 17  1  0  0  0
 17 18  1  0  0  0
 18 19  1  0  0  0
 19 22  1  0  0  0
 22 23  2  0  0  0
 22 24  1  0  0  0
 24 25  2  0  0  0
 25 26  1  0  0  0
 26 27  2  0  0  0
 27 28  1  0  0  0
 27 29  1  0  0  0
 29 30  2  0  0  0
 18 20  1  0  0  0
 20 21  2  0  0  0
 20  1  1  0  0  0
  1  2  1  0  0  0
  2  3  1  0  0  0
  3  4  1  0  0  0
  4  5  2  0  0  0
  4  6  1  0  0  0
  6  7  2  0  0  0
  7  8  1  0  0  0
  8  9  1  0  0  0
  8 10  2  0  0  0
 10 11  1  0  0  0
 11 12  2  0  0  0
 12 13  1  0  0  0
  3 32  1  0  0  0
 32 33  2  0  0  0
 33 34  1  0  0  0
 34 35  2  0  0  0
 35 36  1  0  0  0
 35 37  1  0  0  0
 37 38  2  0  0  0
 19 15  1  0  0  0
 30 24  1  0  0  0
 13  1  1  0  0  0
 38 32  1  0  0  0
 12  6  1  0  0  0
 28 31  1  0  0  0
M  END
> <minimizedAffinity>
6.83933

> <CNNscore>
0.5742589831

> <CNNaffinity>
7.6286797523

> <CNN_VS>
4.3808379173

> <CNNaffinity_variance>
0.5469920039

$$$$
[H]Oc1c([H])c([H])c(C(=O)C2([H])N(C(=O)[C@@]3([H])Oc4c([H])c([H])c(F)c([H])c4C(=O)N(c4c([H])c([H])c(F)c([H])c4[H])C3([H])[H])C([H])([H])C2(C([H])([H])[H])C([H])([H])[H])c([H])c1[H]


 38 42  0  0  0  0  0  0  0  0999 V2000
   14.1686   23.6603    0.2704 C   0  0  0  0  0  0  0  0  0  0  0  0
   14.3120   23.5568   -1.2315 C   0  0  0  0  0  0  0  0  0  0  0  0
   15.2262   24.5230   -1.7762 N   0  0  0  0  0  0  0  0  0  0  0  0
   16.4898   24.9284   -1.2876 C   0  0  0  0  0  0  0  0  0  0  0  0
   17.1300   25.8326   -1.9020 O   0  0  0  0  0  0  0  0  0  0  0  0
   17.1883   24.4009   -0.0906 C   0  0  0  0  0  0  0  0  0  0  0  0
   18.5142   24.7624   -0.0134 C   0  0  0  0  0  0  0  0  0  0  0  0
   19.2998   24.3425    1.0490 C   0  0  0  0  0  0  0  0  0  0  0  0
   20.6073   24.6786    1.1559 F   0  0  0  0  0  0  0  0  0  0  0  0
   18.7625   23.5559    2.0443 C   0  0  0  0  0  0  0  0  0  0  0  0
   17.4226   23.1998    1.9522 C   0  0  0  0  0  0  0  0  0  0  0  0
   16.6379   23.6128    0.9013 C   0  0  0  0  0  0  0  0  0  0  0  0
   15.3070   23.1722    0.9499 O   0  0  0  0  0  0  0  0  0  0  0  0
    9.5384   23.2877   -1.3066 C   0  0  0  0  0  0  0  0  0  0  0  0
    9.7095   23.7501    0.1372 C   0  0  0  0  0  0  0  0  0  0  0  0
    8.4708   24.3881    0.7175 C   0  0  0  0  0  0  0  0  0  0  0  0
   10.9622   24.5457    0.2997 C   0  0  0  0  0  0  0  0  0  0  0  0
   11.6852   23.3417    0.6193 N   0  0  0  0  0  0  0  0  0  0  0  0
   10.3989   22.7197    0.9708 C   0  0  0  0  0  0  0  0  0  0  0  0
   13.0058   22.8374    0.6476 C   0  0  0  0  0  0  0  0  0  0  0  0
   13.1982   21.6397    1.0094 O   0  0  0  0  0  0  0  0  0  0  0  0
   10.1742   22.7556    2.4256 C   0  0  0  0  0  0  0  0  0  0  0  0
    9.8603   23.8074    3.0484 O   0  0  0  0  0  0  0  0  0  0  0  0
   10.3162   21.5299    3.2073 C   0  0  0  0  0  0  0  0  0  0  0  0
   11.3737   20.6746    2.9831 C   0  0  0  0  0  0  0  0  0  0  0  0
   11.5019   19.5207    3.7082 C   0  0  0  0  0  0  0  0  0  0  0  0
   10.5807   19.1777    4.6836 C   0  0  0  0  0  0  0  0  0  0  0  0
   10.6900   18.0218    5.4245 O   0  0  0  0  0  0  0  0  0  0  0  0
    9.5382   20.0462    4.8867 C   0  0  0  0  0  0  0  0  0  0  0  0
    9.3678   21.2168    4.1828 C   0  0  0  0  0  0  0  0  0  0  0  0
   10.2425   17.1984    5.0611 H   0  0  0  0  0  0  0  0  0  0  0  0
   14.8012   25.1524   -2.9625 C   0  0  0  0  0  0  0  0  0  0  0  0
   13.7329   26.0190   -3.0377 C   0  0  0  0  0  0  0  0  0  0  0  0
   13.3582   26.6098   -4.2310 C   0  0  0  0  0  0  0  0  0  0  0  0
   14.0414   26.3542   -5.3987 C   0  0  0  0  0  0  0  0  0  0  0  0
   13.6843   26.9284   -6.5857 F   0  0  0  0  0  0  0  0  0  0  0  0
   15.1140   25.4879   -5.3389 C   0  0  0  0  0  0  0  0  0  0  0  0
   15.4861   24.8956   -4.1308 C   0  0  0  0  0  0  0  0  0  0  0  0
 14 15  1  0  0  0
 15 16  1  0  0  0
 15 17  1  0  0  0
 17 18  1  0  0  0
 18 19  1  0  0  0
 19 22  1  0  0  0
 22 23  2  0  0  0
 22 24  1  0  0  0
 24 25  2  0  0  0
 25 26  1  0  0  0
 26 27  2  0  0  0
 27 28  1  0  0  0
 27 29  1  0  0  0
 29 30  2  0  0  0
 18 20  1  0  0  0
 20 21  2  0  0  0
 20  1  1  0  0  0
  1  2  1  0  0  0
  2  3  1  0  0  0
  3  4  1  0  0  0
  4  5  2  0  0  0
  4  6  1  0  0  0
  6  7  2  0  0  0
  7  8  1  0  0  0
  8  9  1  0  0  0
  8 10  2  0  0  0
 10 11  1  0  0  0
 11 12  2  0  0  0
 12 13  1  0  0  0
  3 32  1  0  0  0
 32 33  2  0  0  0
 33 34  1  0  0  0
 34 35  2  0  0  0
 35 36  1  0  0  0
 35 37  1  0  0  0
 37 38  2  0  0  0
 19 15  1  0  0  0
 30 24  1  0  0  0
 13  1  1  0  0  0
 38 32  1  0  0  0
 12  6  1  0  0  0
 28 31  1  0  0  0
M  END
> <minimizedAffinity>
2.36440

> <CNNscore>
0.5576964021

> <CNNaffinity>
7.4976606369

> <CNN_VS>
4.1814184189

> <CNNaffinity_variance>
0.5099862814

$$$$
[H]Oc1c([H])c([H])c(C(=O)C2([H])N(C(=O)[C@@]3([H])Oc4c([H])c([H])c(F)c([H])c4C(=O)N(c4c([H])c([H])c(F)c([H])c4[H])C3([H])[H])C([H])([H])C2(C([H])([H])[H])C([H])([H])[H])c([H])c1[H]


 38 42  0  0  0  0  0  0  0  0999 V2000
   12.2638   24.5786   -0.0747 C   0  0  0  0  0  0  0  0  0  0  0  0
   12.8176   23.3819   -0.8154 C   0  0  0  0  0  0  0  0  0  0  0  0
   12.5064   22.1326   -0.1764 N   0  0  0  0  0  0  0  0  0  0  0  0
   11.2885   21.7072    0.4031 C   0  0  0  0  0  0  0  0  0  0  0  0
   11.2304   20.5687    0.9555 O   0  0  0  0  0  0  0  0  0  0  0  0
   10.0145   22.4648    0.4450 C   0  0  0  0  0  0  0  0  0  0  0  0
    8.9252   21.7055    0.8076 C   0  0  0  0  0  0  0  0  0  0  0  0
    7.6634   22.2744    0.8886 C   0  0  0  0  0  0  0  0  0  0  0  0
    6.5703   21.5569    1.2410 F   0  0  0  0  0  0  0  0  0  0  0  0
    7.4825   23.6108    0.6068 C   0  0  0  0  0  0  0  0  0  0  0  0
    8.5920   24.3639    0.2426 C   0  0  0  0  0  0  0  0  0  0  0  0
    9.8460   23.8059    0.1602 C   0  0  0  0  0  0  0  0  0  0  0  0
   10.8632   24.6941   -0.2195 O   0  0  0  0  0  0  0  0  0  0  0  0
   12.1673   26.7480   -4.4734 C   0  0  0  0  0  0  0  0  0  0  0  0
   13.5260   26.2146   -4.0294 C   0  0  0  0  0  0  0  0  0  0  0  0
   14.5216   26.0859   -5.1565 C   0  0  0  0  0  0  0  0  0  0  0  0
   13.3716   24.9941   -3.1837 C   0  0  0  0  0  0  0  0  0  0  0  0
   13.3301   25.8178   -2.0029 N   0  0  0  0  0  0  0  0  0  0  0  0
   13.9982   26.8764   -2.7761 C   0  0  0  0  0  0  0  0  0  0  0  0
   12.8980   25.7743   -0.6573 C   0  0  0  0  0  0  0  0  0  0  0  0
   13.0611   26.7950    0.0734 O   0  0  0  0  0  0  0  0  0  0  0  0
   15.4471   26.8884   -2.5139 C   0  0  0  0  0  0  0  0  0  0  0  0
   16.2455   27.6756   -3.0930 O   0  0  0  0  0  0  0  0  0  0  0  0
   16.0116   25.9543   -1.5431 C   0  0  0  0  0  0  0  0  0  0  0  0
   15.6313   26.0047   -0.2191 C   0  0  0  0  0  0  0  0  0  0  0  0
   16.1675   25.1364    0.6930 C   0  0  0  0  0  0  0  0  0  0  0  0
   17.1021   24.1857    0.3185 C   0  0  0  0  0  0  0  0  0  0  0  0
   17.6547   23.3027    1.2195 O   0  0  0  0  0  0  0  0  0  0  0  0
   17.4630   24.1568   -1.0049 C   0  0  0  0  0  0  0  0  0  0  0  0
   16.9517   25.0088   -1.9574 C   0  0  0  0  0  0  0  0  0  0  0  0
   18.4972   23.5891    1.6867 H   0  0  0  0  0  0  0  0  0  0  0  0
   13.5644   21.2044   -0.1209 C   0  0  0  0  0  0  0  0  0  0  0  0
   13.7074   20.1428   -0.9871 C   0  0  0  0  0  0  0  0  0  0  0  0
   14.7676   19.2599   -0.8869 C   0  0  0  0  0  0  0  0  0  0  0  0
   15.7283   19.4071    0.0882 C   0  0  0  0  0  0  0  0  0  0  0  0
   16.7810   18.5440    0.2019 F   0  0  0  0  0  0  0  0  0  0  0  0
   15.5982   20.4661    0.9635 C   0  0  0  0  0  0  0  0  0  0  0  0
   14.5255   21.3529    0.8559 C   0  0  0  0  0  0  0  0  0  0  0  0
 14 15  1  0  0  0
 15 16  1  0  0  0
 15 17  1  0  0  0
 17 18  1  0  0  0
 18 19  1  0  0  0
 19 22  1  0  0  0
 22 23  2  0  0  0
 22 24  1  0  0  0
 24 25  2  0  0  0
 25 26  1  0  0  0
 26 27  2  0  0  0
 27 28  1  0  0  0
 27 29  1  0  0  0
 29 30  2  0  0  0
 18 20  1  0  0  0
 20 21  2  0  0  0
 20  1  1  0  0  0
  1  2  1  0  0  0
  2  3  1  0  0  0
  3  4  1  0  0  0
  4  5  2  0  0  0
  4  6  1  0  0  0
  6  7  2  0  0  0
  7  8  1  0  0  0
  8  9  1  0  0  0
  8 10  2  0  0  0
 10 11  1  0  0  0
 11 12  2  0  0  0
 12 13  1  0  0  0
  3 32  1  0  0  0
 32 33  2  0  0  0
 33 34  1  0  0  0
 34 35  2  0  0  0
 35 36  1  0  0  0
 35 37  1  0  0  0
 37 38  2  0  0  0
 19 15  1  0  0  0
 30 24  1  0  0  0
 13  1  1  0  0  0
 38 32  1  0  0  0
 12  6  1  0  0  0
 28 31  1  0  0  0
M  END
> <minimizedAffinity>
11.25962

> <CNNscore>
0.5397501588

> <CNNaffinity>
7.7570509911

> <CNN_VS>
4.1868696213

> <CNNaffinity_variance>
1.7366977930

$$$$
[H]Oc1c([H])c([H])c(C(=O)C2([H])N(C(=O)[C@@]3([H])Oc4c([H])c([H])c(F)c([H])c4C(=O)N(c4c([H])c([H])c(F)c([H])c4[H])C3([H])[H])C([H])([H])C2(C([H])([H])[H])C([H])([H])[H])c([H])c1[H]


 38 42  0  0  0  0  0  0  0  0999 V2000
   14.2249   23.5814   -1.9101 C   0  0  0  0  0  0  0  0  0  0  0  0
   14.8989   24.2567   -0.7367 C   0  0  0  0  0  0  0  0  0  0  0  0
   16.1521   24.8686   -1.0848 N   0  0  0  0  0  0  0  0  0  0  0  0
   16.4814   25.6390   -2.2240 C   0  0  0  0  0  0  0  0  0  0  0  0
   17.6675   26.0617   -2.3635 O   0  0  0  0  0  0  0  0  0  0  0  0
   15.5675   26.0300   -3.3243 C   0  0  0  0  0  0  0  0  0  0  0  0
   16.0722   27.0111   -4.1473 C   0  0  0  0  0  0  0  0  0  0  0  0
   15.3314   27.4828   -5.2201 C   0  0  0  0  0  0  0  0  0  0  0  0
   15.7966   28.4474   -6.0490 F   0  0  0  0  0  0  0  0  0  0  0  0
   14.0770   26.9747   -5.4775 C   0  0  0  0  0  0  0  0  0  0  0  0
   13.5817   25.9846   -4.6378 C   0  0  0  0  0  0  0  0  0  0  0  0
   14.3111   25.5124   -3.5721 C   0  0  0  0  0  0  0  0  0  0  0  0
   13.6762   24.5136   -2.8189 O   0  0  0  0  0  0  0  0  0  0  0  0
    9.5852   24.4430   -0.5707 C   0  0  0  0  0  0  0  0  0  0  0  0
   10.5208   23.9861    0.5444 C   0  0  0  0  0  0  0  0  0  0  0  0
    9.9816   24.2474    1.9297 C   0  0  0  0  0  0  0  0  0  0  0  0
   11.9123   24.4728    0.3086 C   0  0  0  0  0  0  0  0  0  0  0  0
   12.2127   23.2632   -0.4134 N   0  0  0  0  0  0  0  0  0  0  0  0
   11.0796   22.6268    0.2764 C   0  0  0  0  0  0  0  0  0  0  0  0
   13.1324   22.7588   -1.3616 C   0  0  0  0  0  0  0  0  0  0  0  0
   13.0157   21.5607   -1.7531 O   0  0  0  0  0  0  0  0  0  0  0  0
   11.5395   21.8373    1.4312 C   0  0  0  0  0  0  0  0  0  0  0  0
   12.7389   21.4764    1.5852 O   0  0  0  0  0  0  0  0  0  0  0  0
   10.5817   21.4398    2.4598 C   0  0  0  0  0  0  0  0  0  0  0  0
    9.2439   21.3039    2.1566 C   0  0  0  0  0  0  0  0  0  0  0  0
    8.3443   20.9413    3.1223 C   0  0  0  0  0  0  0  0  0  0  0  0
    8.7455   20.7005    4.4257 C   0  0  0  0  0  0  0  0  0  0  0  0
    7.8575   20.3351    5.4130 O   0  0  0  0  0  0  0  0  0  0  0  0
   10.0822   20.8426    4.7006 C   0  0  0  0  0  0  0  0  0  0  0  0
   11.0229   21.2050    3.7635 C   0  0  0  0  0  0  0  0  0  0  0  0
    7.4288   21.0740    5.9425 H   0  0  0  0  0  0  0  0  0  0  0  0
   17.1961   24.6714   -0.1601 C   0  0  0  0  0  0  0  0  0  0  0  0
   18.4271   24.1452   -0.4848 C   0  0  0  0  0  0  0  0  0  0  0  0
   19.4180   23.9726    0.4649 C   0  0  0  0  0  0  0  0  0  0  0  0
   19.2128   24.3216    1.7808 C   0  0  0  0  0  0  0  0  0  0  0  0
   20.1799   24.1571    2.7315 F   0  0  0  0  0  0  0  0  0  0  0  0
   17.9842   24.8500    2.1213 C   0  0  0  0  0  0  0  0  0  0  0  0
   16.9894   25.0212    1.1571 C   0  0  0  0  0  0  0  0  0  0  0  0
 14 15  1  0  0  0
 15 16  1  0  0  0
 15 17  1  0  0  0
 17 18  1  0  0  0
 18 19  1  0  0  0
 19 22  1  0  0  0
 22 23  2  0  0  0
 22 24  1  0  0  0
 24 25  2  0  0  0
 25 26  1  0  0  0
 26 27  2  0  0  0
 27 28  1  0  0  0
 27 29  1  0  0  0
 29 30  2  0  0  0
 18 20  1  0  0  0
 20 21  2  0  0  0
 20  1  1  0  0  0
  1  2  1  0  0  0
  2  3  1  0  0  0
  3  4  1  0  0  0
  4  5  2  0  0  0
  4  6  1  0  0  0
  6  7  2  0  0  0
  7  8  1  0  0  0
  8  9  1  0  0  0
  8 10  2  0  0  0
 10 11  1  0  0  0
 11 12  2  0  0  0
 12 13  1  0  0  0
  3 32  1  0  0  0
 32 33  2  0  0  0
 33 34  1  0  0  0
 34 35  2  0  0  0
 35 36  1  0  0  0
 35 37  1  0  0  0
 37 38  2  0  0  0
 19 15  1  0  0  0
 30 24  1  0  0  0
 13  1  1  0  0  0
 38 32  1  0  0  0
 12  6  1  0  0  0
 28 31  1  0  0  0
M  END
> <minimizedAffinity>
3.26589

> <CNNscore>
0.5173366666

> <CNNaffinity>
7.4958343506

> <CNN_VS>
3.8778698444

> <CNNaffinity_variance>
1.0039691925

$$$$
[H]Oc1c([H])c([H])c(C(=O)C2([H])N(C(=O)[C@@]3([H])Oc4c([H])c([H])c(F)c([H])c4C(=O)N(c4c([H])c([H])c(F)c([H])c4[H])C3([H])[H])C([H])([H])C2(C([H])([H])[H])C([H])([H])[H])c([H])c1[H]


 38 42  0  0  0  0  0  0  0  0999 V2000
   10.9888   23.6089   -1.4793 C   0  0  0  0  0  0  0  0  0  0  0  0
   12.4090   23.4213   -1.9642 C   0  0  0  0  0  0  0  0  0  0  0  0
   13.1272   24.6599   -2.0914 N   0  0  0  0  0  0  0  0  0  0  0  0
   13.1546   25.7682   -1.2135 C   0  0  0  0  0  0  0  0  0  0  0  0
   13.8303   26.7919   -1.5302 O   0  0  0  0  0  0  0  0  0  0  0  0
   12.4581   25.8837    0.0904 C   0  0  0  0  0  0  0  0  0  0  0  0
   12.8866   26.9411    0.8605 C   0  0  0  0  0  0  0  0  0  0  0  0
   12.3301   27.1770    2.1082 C   0  0  0  0  0  0  0  0  0  0  0  0
   12.7283   28.2069    2.8923 F   0  0  0  0  0  0  0  0  0  0  0  0
   11.3381   26.3543    2.5953 C   0  0  0  0  0  0  0  0  0  0  0  0
   10.9162   25.2915    1.8059 C   0  0  0  0  0  0  0  0  0  0  0  0
   11.4640   25.0519    0.5676 C   0  0  0  0  0  0  0  0  0  0  0  0
   10.9331   23.9428   -0.1077 O   0  0  0  0  0  0  0  0  0  0  0  0
    6.4817   21.9281   -0.5177 C   0  0  0  0  0  0  0  0  0  0  0  0
    7.6196   21.2248    0.2157 C   0  0  0  0  0  0  0  0  0  0  0  0
    7.1607   20.4048    1.3970 C   0  0  0  0  0  0  0  0  0  0  0  0
    8.7374   22.1717    0.5033 C   0  0  0  0  0  0  0  0  0  0  0  0
    9.3549   21.8230   -0.7503 N   0  0  0  0  0  0  0  0  0  0  0  0
    8.5735   20.5764   -0.7337 C   0  0  0  0  0  0  0  0  0  0  0  0
   10.2942   22.3250   -1.6804 C   0  0  0  0  0  0  0  0  0  0  0  0
   10.5491   21.6503   -2.7207 O   0  0  0  0  0  0  0  0  0  0  0  0
    9.3811   19.4528   -0.2302 C   0  0  0  0  0  0  0  0  0  0  0  0
    8.9725   18.2588   -0.2246 O   0  0  0  0  0  0  0  0  0  0  0  0
   10.7209   19.7060    0.2937 C   0  0  0  0  0  0  0  0  0  0  0  0
   10.9525   19.7111    1.6525 C   0  0  0  0  0  0  0  0  0  0  0  0
   12.2056   19.9584    2.1445 C   0  0  0  0  0  0  0  0  0  0  0  0
   13.2738   20.2092    1.2996 C   0  0  0  0  0  0  0  0  0  0  0  0
   14.5425   20.4608    1.7729 O   0  0  0  0  0  0  0  0  0  0  0  0
   13.0162   20.1982   -0.0479 C   0  0  0  0  0  0  0  0  0  0  0  0
   11.7740   19.9549   -0.5886 C   0  0  0  0  0  0  0  0  0  0  0  0
   14.7827   21.4190    1.9584 H   0  0  0  0  0  0  0  0  0  0  0  0
   13.9124   24.7841   -3.2542 C   0  0  0  0  0  0  0  0  0  0  0  0
   14.8726   23.8744   -3.6393 C   0  0  0  0  0  0  0  0  0  0  0  0
   15.6163   24.0462   -4.7929 C   0  0  0  0  0  0  0  0  0  0  0  0
   15.4262   25.1397   -5.6076 C   0  0  0  0  0  0  0  0  0  0  0  0
   16.1525   25.3253   -6.7496 F   0  0  0  0  0  0  0  0  0  0  0  0
   14.4677   26.0599   -5.2346 C   0  0  0  0  0  0  0  0  0  0  0  0
   13.7210   25.8794   -4.0689 C   0  0  0  0  0  0  0  0  0  0  0  0
 14 15  1  0  0  0
 15 16  1  0  0  0
 15 17  1  0  0  0
 17 18  1  0  0  0
 18 19  1  0  0  0
 19 22  1  0  0  0
 22 23  2  0  0  0
 22 24  1  0  0  0
 24 25  2  0  0  0
 25 26  1  0  0  0
 26 27  2  0  0  0
 27 28  1  0  0  0
 27 29  1  0  0  0
 29 30  2  0  0  0
 18 20  1  0  0  0
 20 21  2  0  0  0
 20  1  1  0  0  0
  1  2  1  0  0  0
  2  3  1  0  0  0
  3  4  1  0  0  0
  4  5  2  0  0  0
  4  6  1  0  0  0
  6  7  2  0  0  0
  7  8  1  0  0  0
  8  9  1  0  0  0
  8 10  2  0  0  0
 10 11  1  0  0  0
 11 12  2  0  0  0
 12 13  1  0  0  0
  3 32  1  0  0  0
 32 33  2  0  0  0
 33 34  1  0  0  0
 34 35  2  0  0  0
 35 36  1  0  0  0
 35 37  1  0  0  0
 37 38  2  0  0  0
 19 15  1  0  0  0
 30 24  1  0  0  0
 13  1  1  0  0  0
 38 32  1  0  0  0
 12  6  1  0  0  0
 28 31  1  0  0  0
M  END
> <minimizedAffinity>
9.75003

> <CNNscore>
0.4954813123

> <CNNaffinity>
6.9370756149

> <CNN_VS>
3.4371912479

> <CNNaffinity_variance>
0.7874439955

$$$$
[H]Oc1c([H])c([H])c(C(=O)C2([H])N(C(=O)[C@@]3([H])Oc4c([H])c([H])c(F)c([H])c4C(=O)N(c4c([H])c([H])c(F)c([H])c4[H])C3([H])[H])C([H])([H])C2(C([H])([H])[H])C([H])([H])[H])c([H])c1[H]


 38 42  0  0  0  0  0  0  0  0999 V2000
   13.8675   22.4197   -1.0003 C   0  0  0  0  0  0  0  0  0  0  0  0
   14.4266   22.7756   -2.3597 C   0  0  0  0  0  0  0  0  0  0  0  0
   15.0863   24.0525   -2.3788 N   0  0  0  0  0  0  0  0  0  0  0  0
   15.9737   24.6113   -1.4301 C   0  0  0  0  0  0  0  0  0  0  0  0
   16.4228   25.7810   -1.6166 O   0  0  0  0  0  0  0  0  0  0  0  0
   16.4647   23.9666   -0.1882 C   0  0  0  0  0  0  0  0  0  0  0  0
   17.5312   24.6142    0.3930 C   0  0  0  0  0  0  0  0  0  0  0  0
   18.1017   24.1285    1.5594 C   0  0  0  0  0  0  0  0  0  0  0  0
   19.1520   24.7396    2.1572 F   0  0  0  0  0  0  0  0  0  0  0  0
   17.6076   22.9882    2.1542 C   0  0  0  0  0  0  0  0  0  0  0  0
   16.5305   22.3462    1.5556 C   0  0  0  0  0  0  0  0  0  0  0  0
   15.9600   22.8226    0.3987 C   0  0  0  0  0  0  0  0  0  0  0  0
   14.8815   22.0655   -0.0825 O   0  0  0  0  0  0  0  0  0  0  0  0
    9.4787   21.7312   -3.0808 C   0  0  0  0  0  0  0  0  0  0  0  0
    9.5492   21.4589   -1.5813 C   0  0  0  0  0  0  0  0  0  0  0  0
    8.1967   21.4057   -0.9133 C   0  0  0  0  0  0  0  0  0  0  0  0
   10.5426   22.3560   -0.9203 C   0  0  0  0  0  0  0  0  0  0  0  0
   11.5715   21.3699   -1.1287 N   0  0  0  0  0  0  0  0  0  0  0  0
   10.5097   20.3601   -1.2623 C   0  0  0  0  0  0  0  0  0  0  0  0
   12.9796   21.2595   -1.1925 C   0  0  0  0  0  0  0  0  0  0  0  0
   13.4971   20.1271   -1.4214 O   0  0  0  0  0  0  0  0  0  0  0  0
   10.3150   19.6273   -0.0001 C   0  0  0  0  0  0  0  0  0  0  0  0
   10.0992   18.3849    0.0490 O   0  0  0  0  0  0  0  0  0  0  0  0
   10.3685   20.3497    1.2683 C   0  0  0  0  0  0  0  0  0  0  0  0
    9.2399   20.9555    1.7777 C   0  0  0  0  0  0  0  0  0  0  0  0
    9.2916   21.6413    2.9612 C   0  0  0  0  0  0  0  0  0  0  0  0
   10.4702   21.7479    3.6803 C   0  0  0  0  0  0  0  0  0  0  0  0
   10.5449   22.4332    4.8726 O   0  0  0  0  0  0  0  0  0  0  0  0
   11.5784   21.1358    3.1512 C   0  0  0  0  0  0  0  0  0  0  0  0
   11.5748   20.4361    1.9659 C   0  0  0  0  0  0  0  0  0  0  0  0
   10.7726   23.4111    4.8276 H   0  0  0  0  0  0  0  0  0  0  0  0
   14.8077   24.8576   -3.5005 C   0  0  0  0  0  0  0  0  0  0  0  0
   13.8485   25.8462   -3.5233 C   0  0  0  0  0  0  0  0  0  0  0  0
   13.6160   26.6082   -4.6542 C   0  0  0  0  0  0  0  0  0  0  0  0
   14.3377   26.4082   -5.8095 C   0  0  0  0  0  0  0  0  0  0  0  0
   14.1204   27.1509   -6.9352 F   0  0  0  0  0  0  0  0  0  0  0  0
   15.3021   25.4211   -5.8017 C   0  0  0  0  0  0  0  0  0  0  0  0
   15.5310   24.6564   -4.6565 C   0  0  0  0  0  0  0  0  0  0  0  0
 14 15  1  0  0  0
 15 16  1  0  0  0
 15 17  1  0  0  0
 17 18  1  0  0  0
 18 19  1  0  0  0
 19 22  1  0  0  0
 22 23  2  0  0  0
 22 24  1  0  0  0
 24 25  2  0  0  0
 25 26  1  0  0  0
 26 27  2  0  0  0
 27 28  1  0  0  0
 27 29  1  0  0  0
 29 30  2  0  0  0
 18 20  1  0  0  0
 20 21  2  0  0  0
 20  1  1  0  0  0
  1  2  1  0  0  0
  2  3  1  0  0  0
  3  4  1  0  0  0
  4  5  2  0  0  0
  4  6  1  0  0  0
  6  7  2  0  0  0
  7  8  1  0  0  0
  8  9  1  0  0  0
  8 10  2  0  0  0
 10 11  1  0  0  0
 11 12  2  0  0  0
 12 13  1  0  0  0
  3 32  1  0  0  0
 32 33  2  0  0  0
 33 34  1  0  0  0
 34 35  2  0  0  0
 35 36  1  0  0  0
 35 37  1  0  0  0
 37 38  2  0  0  0
 19 15  1  0  0  0
 30 24  1  0  0  0
 13  1  1  0  0  0
 38 32  1  0  0  0
 12  6  1  0  0  0
 28 31  1  0  0  0
M  END
> <minimizedAffinity>
1.17855

> <CNNscore>
0.4675357938

> <CNNaffinity>
7.3769254684

> <CNN_VS>
3.4489767551

> <CNNaffinity_variance>
0.5949745774

$$$$
[H]Oc1c([H])c([H])c(C(=O)C2([H])N(C(=O)[C@@]3([H])Oc4c([H])c([H])c(F)c([H])c4C(=O)N(c4c([H])c([H])c(F)c([H])c4[H])C3([H])[H])C([H])([H])C2(C([H])([H])[H])C([H])([H])[H])c([H])c1[H]


 38 42  0  0  0  0  0  0  0  0999 V2000
   11.9799   24.4799   -0.2698 C   0  0  0  0  0  0  0  0  0  0  0  0
   13.2915   23.9641    0.2787 C   0  0  0  0  0  0  0  0  0  0  0  0
   14.0955   23.3058   -0.7144 N   0  0  0  0  0  0  0  0  0  0  0  0
   14.3522   23.6899   -2.0509 C   0  0  0  0  0  0  0  0  0  0  0  0
   15.0669   22.9431   -2.7831 O   0  0  0  0  0  0  0  0  0  0  0  0
   13.8652   24.9147   -2.7304 C   0  0  0  0  0  0  0  0  0  0  0  0
   14.4967   25.1792   -3.9245 C   0  0  0  0  0  0  0  0  0  0  0  0
   14.1508   26.2926   -4.6746 C   0  0  0  0  0  0  0  0  0  0  0  0
   14.7519   26.5835   -5.8528 F   0  0  0  0  0  0  0  0  0  0  0  0
   13.1677   27.1514   -4.2340 C   0  0  0  0  0  0  0  0  0  0  0  0
   12.5394   26.8704   -3.0269 C   0  0  0  0  0  0  0  0  0  0  0  0
   12.8777   25.7680   -2.2780 C   0  0  0  0  0  0  0  0  0  0  0  0
   12.1543   25.6204   -1.0852 O   0  0  0  0  0  0  0  0  0  0  0  0
   10.6858   22.2642    3.9111 C   0  0  0  0  0  0  0  0  0  0  0  0
    9.5427   22.5902    2.9547 C   0  0  0  0  0  0  0  0  0  0  0  0
    8.2687   21.8400    3.2589 C   0  0  0  0  0  0  0  0  0  0  0  0
    9.9946   22.5126    1.5340 C   0  0  0  0  0  0  0  0  0  0  0  0
   10.3400   23.9105    1.5678 N   0  0  0  0  0  0  0  0  0  0  0  0
    9.4261   24.0595    2.7112 C   0  0  0  0  0  0  0  0  0  0  0  0
   11.1475   24.8512    0.8880 C   0  0  0  0  0  0  0  0  0  0  0  0
   11.1567   26.0532    1.2850 O   0  0  0  0  0  0  0  0  0  0  0  0
    8.1179   24.5786    2.2783 C   0  0  0  0  0  0  0  0  0  0  0  0
    7.5494   24.2118    1.2129 O   0  0  0  0  0  0  0  0  0  0  0  0
    7.4258   25.5662    3.1025 C   0  0  0  0  0  0  0  0  0  0  0  0
    6.5602   25.1654    4.0975 C   0  0  0  0  0  0  0  0  0  0  0  0
    5.9035   26.0903    4.8636 C   0  0  0  0  0  0  0  0  0  0  0  0
    6.0861   27.4487    4.6657 C   0  0  0  0  0  0  0  0  0  0  0  0
    5.4355   28.3964    5.4243 O   0  0  0  0  0  0  0  0  0  0  0  0
    6.9529   27.8205    3.6693 C   0  0  0  0  0  0  0  0  0  0  0  0
    7.6348   26.9276    2.8742 C   0  0  0  0  0  0  0  0  0  0  0  0
    4.5433   28.7184    5.0920 H   0  0  0  0  0  0  0  0  0  0  0  0
   14.7124   22.1111   -0.2947 C   0  0  0  0  0  0  0  0  0  0  0  0
   15.7559   22.0540    0.6029 C   0  0  0  0  0  0  0  0  0  0  0  0
   16.3256   20.8513    0.9805 C   0  0  0  0  0  0  0  0  0  0  0  0
   15.8704   19.6558    0.4716 C   0  0  0  0  0  0  0  0  0  0  0  0
   16.4221   18.4595    0.8330 F   0  0  0  0  0  0  0  0  0  0  0  0
   14.8255   19.6972   -0.4289 C   0  0  0  0  0  0  0  0  0  0  0  0
   14.2557   20.9148   -0.8050 C   0  0  0  0  0  0  0  0  0  0  0  0
 14 15  1  0  0  0
 15 16  1  0  0  0
 15 17  1  0  0  0
 17 18  1  0  0  0
 18 19  1  0  0  0
 19 22  1  0  0  0
 22 23  2  0  0  0
 22 24  1  0  0  0
 24 25  2  0  0  0
 25 26  1  0  0  0
 26 27  2  0  0  0
 27 28  1  0  0  0
 27 29  1  0  0  0
 29 30  2  0  0  0
 18 20  1  0  0  0
 20 21  2  0  0  0
 20  1  1  0  0  0
  1  2  1  0  0  0
  2  3  1  0  0  0
  3  4  1  0  0  0
  4  5  2  0  0  0
  4  6  1  0  0  0
  6  7  2  0  0  0
  7  8  1  0  0  0
  8  9  1  0  0  0
  8 10  2  0  0  0
 10 11  1  0  0  0
 11 12  2  0  0  0
 12 13  1  0  0  0
  3 32  1  0  0  0
 32 33  2  0  0  0
 33 34  1  0  0  0
 34 35  2  0  0  0
 35 36  1  0  0  0
 35 37  1  0  0  0
 37 38  2  0  0  0
 19 15  1  0  0  0
 30 24  1  0  0  0
 13  1  1  0  0  0
 38 32  1  0  0  0
 12  6  1  0  0  0
 28 31  1  0  0  0
M  END
> <minimizedAffinity>
-2.41305

> <CNNscore>
0.4561916292

> <CNNaffinity>
6.8546066284

> <CNN_VS>
3.1270141602

> <CNNaffinity_variance>
0.5763467550

$$$$
[H]Oc1c([H])c([H])c(C(=O)C2([H])N(C(=O)[C@@]3([H])Oc4c([H])c([H])c(F)c([H])c4C(=O)N(c4c([H])c([H])c(F)c([H])c4[H])C3([H])[H])C([H])([H])C2(C([H])([H])[H])C([H])([H])[H])c([H])c1[H]


 38 42  0  0  0  0  0  0  0  0999 V2000
   13.5789   24.3271   -2.4121 C   0  0  0  0  0  0  0  0  0  0  0  0
   12.2824   24.1624   -1.6510 C   0  0  0  0  0  0  0  0  0  0  0  0
   12.1926   22.9052   -0.9603 N   0  0  0  0  0  0  0  0  0  0  0  0
   13.1800   22.2307   -0.2054 C   0  0  0  0  0  0  0  0  0  0  0  0
   12.9090   21.1005    0.2986 O   0  0  0  0  0  0  0  0  0  0  0  0
   14.5551   22.7058    0.0811 C   0  0  0  0  0  0  0  0  0  0  0  0
   15.1972   21.9943    1.0691 C   0  0  0  0  0  0  0  0  0  0  0  0
   16.4892   22.3228    1.4497 C   0  0  0  0  0  0  0  0  0  0  0  0
   17.1499   21.6451    2.4182 F   0  0  0  0  0  0  0  0  0  0  0  0
   17.1497   23.3683    0.8424 C   0  0  0  0  0  0  0  0  0  0  0  0
   16.4883   24.0765   -0.1534 C   0  0  0  0  0  0  0  0  0  0  0  0
   15.2069   23.7560   -0.5355 C   0  0  0  0  0  0  0  0  0  0  0  0
   14.6756   24.5624   -1.5531 O   0  0  0  0  0  0  0  0  0  0  0  0
   14.2369   25.1656   -7.2004 C   0  0  0  0  0  0  0  0  0  0  0  0
   15.1264   25.9730   -6.2598 C   0  0  0  0  0  0  0  0  0  0  0  0
   16.3185   26.5970   -6.9438 C   0  0  0  0  0  0  0  0  0  0  0  0
   15.4446   25.1961   -5.0255 C   0  0  0  0  0  0  0  0  0  0  0  0
   14.2854   25.7526   -4.3766 N   0  0  0  0  0  0  0  0  0  0  0  0
   14.3238   26.8504   -5.3555 C   0  0  0  0  0  0  0  0  0  0  0  0
   13.4124   25.4955   -3.2945 C   0  0  0  0  0  0  0  0  0  0  0  0
   12.4557   26.2945   -3.0740 O   0  0  0  0  0  0  0  0  0  0  0  0
   14.9861   28.0386   -4.7918 C   0  0  0  0  0  0  0  0  0  0  0  0
   14.4293   29.1688   -4.7202 O   0  0  0  0  0  0  0  0  0  0  0  0
   16.3522   27.9304   -4.2861 C   0  0  0  0  0  0  0  0  0  0  0  0
   16.6338   27.1407   -3.1919 C   0  0  0  0  0  0  0  0  0  0  0  0
   17.9119   27.0468   -2.7112 C   0  0  0  0  0  0  0  0  0  0  0  0
   18.9562   27.7365   -3.3041 C   0  0  0  0  0  0  0  0  0  0  0  0
   20.2493   27.6569   -2.8369 O   0  0  0  0  0  0  0  0  0  0  0  0
   18.6488   28.5149   -4.3913 C   0  0  0  0  0  0  0  0  0  0  0  0
   17.3799   28.6404   -4.9097 C   0  0  0  0  0  0  0  0  0  0  0  0
   20.5288   28.3256   -2.1405 H   0  0  0  0  0  0  0  0  0  0  0  0
   10.9454   22.2566   -1.0497 C   0  0  0  0  0  0  0  0  0  0  0  0
   10.5363   21.5144   -2.1358 C   0  0  0  0  0  0  0  0  0  0  0  0
    9.2985   20.8979   -2.1710 C   0  0  0  0  0  0  0  0  0  0  0  0
    8.4200   21.0017   -1.1160 C   0  0  0  0  0  0  0  0  0  0  0  0
    7.1937   20.4002   -1.1346 F   0  0  0  0  0  0  0  0  0  0  0  0
    8.8160   21.7422   -0.0208 C   0  0  0  0  0  0  0  0  0  0  0  0
   10.0669   22.3613    0.0073 C   0  0  0  0  0  0  0  0  0  0  0  0
 14 15  1  0  0  0
 15 16  1  0  0  0
 15 17  1  0  0  0
 17 18  1  0  0  0
 18 19  1  0  0  0
 19 22  1  0  0  0
 22 23  2  0  0  0
 22 24  1  0  0  0
 24 25  2  0  0  0
 25 26  1  0  0  0
 26 27  2  0  0  0
 27 28  1  0  0  0
 27 29  1  0  0  0
 29 30  2  0  0  0
 18 20  1  0  0  0
 20 21  2  0  0  0
 20  1  1  0  0  0
  1  2  1  0  0  0
  2  3  1  0  0  0
  3  4  1  0  0  0
  4  5  2  0  0  0
  4  6  1  0  0  0
  6  7  2  0  0  0
  7  8  1  0  0  0
  8  9  1  0  0  0
  8 10  2  0  0  0
 10 11  1  0  0  0
 11 12  2  0  0  0
 12 13  1  0  0  0
  3 32  1  0  0  0
 32 33  2  0  0  0
 33 34  1  0  0  0
 34 35  2  0  0  0
 35 36  1  0  0  0
 35 37  1  0  0  0
 37 38  2  0  0  0
 19 15  1  0  0  0
 30 24  1  0  0  0
 13  1  1  0  0  0
 38 32  1  0  0  0
 12  6  1  0  0  0
 28 31  1  0  0  0
M  END
> <minimizedAffinity>
3.64742

> <CNNscore>
0.4536710083

> <CNNaffinity>
7.5725889206

> <CNN_VS>
3.4354641438

> <CNNaffinity_variance>
0.7864446044

$$$$
[H]Oc1c([H])c([H])c(C(=O)C2([H])N(C(=O)[C@@]3([H])Oc4c([H])c([H])c(F)c([H])c4C(=O)N(c4c([H])c([H])c(F)c([H])c4[H])C3([H])[H])C([H])([H])C2(C([H])([H])[H])C([H])([H])[H])c([H])c1[H]


 38 42  0  0  0  0  0  0  0  0999 V2000
   11.8248   24.8743   -1.6661 C   0  0  0  0  0  0  0  0  0  0  0  0
   11.3550   25.7409   -2.8130 C   0  0  0  0  0  0  0  0  0  0  0  0
   12.3841   26.6061   -3.3213 N   0  0  0  0  0  0  0  0  0  0  0  0
   13.7444   26.3174   -3.5783 C   0  0  0  0  0  0  0  0  0  0  0  0
   14.5050   27.2407   -3.9953 O   0  0  0  0  0  0  0  0  0  0  0  0
   14.4194   25.0076   -3.4119 C   0  0  0  0  0  0  0  0  0  0  0  0
   15.6605   24.9401   -4.0034 C   0  0  0  0  0  0  0  0  0  0  0  0
   16.4130   23.7776   -3.9348 C   0  0  0  0  0  0  0  0  0  0  0  0
   17.6367   23.6761   -4.5060 F   0  0  0  0  0  0  0  0  0  0  0  0
   15.9275   22.6718   -3.2719 C   0  0  0  0  0  0  0  0  0  0  0  0
   14.6734   22.7559   -2.6797 C   0  0  0  0  0  0  0  0  0  0  0  0
   13.9219   23.9056   -2.7440 C   0  0  0  0  0  0  0  0  0  0  0  0
   12.6788   23.8349   -2.0978 O   0  0  0  0  0  0  0  0  0  0  0  0
    9.1246   25.8160    2.3196 C   0  0  0  0  0  0  0  0  0  0  0  0
    9.8190   24.4577    2.2977 C   0  0  0  0  0  0  0  0  0  0  0  0
    9.8880   23.7933    3.6513 C   0  0  0  0  0  0  0  0  0  0  0  0
   11.1184   24.5325    1.5665 C   0  0  0  0  0  0  0  0  0  0  0  0
   10.4473   24.1881    0.3395 N   0  0  0  0  0  0  0  0  0  0  0  0
    9.3594   23.6190    1.1502 C   0  0  0  0  0  0  0  0  0  0  0  0
   10.6222   24.2753   -1.0609 C   0  0  0  0  0  0  0  0  0  0  0  0
    9.7171   23.8237   -1.8221 O   0  0  0  0  0  0  0  0  0  0  0  0
    9.4994   22.1583    1.2722 C   0  0  0  0  0  0  0  0  0  0  0  0
    8.5157   21.3821    1.4224 O   0  0  0  0  0  0  0  0  0  0  0  0
   10.8286   21.5549    1.2213 C   0  0  0  0  0  0  0  0  0  0  0  0
   11.4766   21.1883    2.3814 C   0  0  0  0  0  0  0  0  0  0  0  0
   12.7264   20.6322    2.3351 C   0  0  0  0  0  0  0  0  0  0  0  0
   13.3758   20.4208    1.1304 C   0  0  0  0  0  0  0  0  0  0  0  0
   14.6332   19.8633    1.0606 O   0  0  0  0  0  0  0  0  0  0  0  0
   12.7088   20.7943   -0.0089 C   0  0  0  0  0  0  0  0  0  0  0  0
   11.4525   21.3568   -0.0119 C   0  0  0  0  0  0  0  0  0  0  0  0
   15.4173   20.4915    1.0906 H   0  0  0  0  0  0  0  0  0  0  0  0
   11.9778   27.9253   -3.6016 C   0  0  0  0  0  0  0  0  0  0  0  0
   12.5611   29.0466   -3.0537 C   0  0  0  0  0  0  0  0  0  0  0  0
   12.1212   30.3208   -3.3642 C   0  0  0  0  0  0  0  0  0  0  0  0
   11.0765   30.5213   -4.2382 C   0  0  0  0  0  0  0  0  0  0  0  0
   10.6290   31.7725   -4.5550 F   0  0  0  0  0  0  0  0  0  0  0  0
   10.4820   29.4072   -4.7950 C   0  0  0  0  0  0  0  0  0  0  0  0
   10.9317   28.1245   -4.4768 C   0  0  0  0  0  0  0  0  0  0  0  0
 14 15  1  0  0  0
 15 16  1  0  0  0
 15 17  1  0  0  0
 17 18  1  0  0  0
 18 19  1  0  0  0
 19 22  1  0  0  0
 22 23  2  0  0  0
 22 24  1  0  0  0
 24 25  2  0  0  0
 25 26  1  0  0  0
 26 27  2  0  0  0
 27 28  1  0  0  0
 27 29  1  0  0  0
 29 30  2  0  0  0
 18 20  1  0  0  0
 20 21  2  0  0  0
 20  1  1  0  0  0
  1  2  1  0  0  0
  2  3  1  0  0  0
  3  4  1  0  0  0
  4  5  2  0  0  0
  4  6  1  0  0  0
  6  7  2  0  0  0
  7  8  1  0  0  0
  8  9  1  0  0  0
  8 10  2  0  0  0
 10 11  1  0  0  0
 11 12  2  0  0  0
 12 13  1  0  0  0
  3 32  1  0  0  0
 32 33  2  0  0  0
 33 34  1  0  0  0
 34 35  2  0  0  0
 35 36  1  0  0  0
 35 37  1  0  0  0
 37 38  2  0  0  0
 19 15  1  0  0  0
 30 24  1  0  0  0
 13  1  1  0  0  0
 38 32  1  0  0  0
 12  6  1  0  0  0
 28 31  1  0  0  0
M  END
> <minimizedAffinity>
17.00211

> <CNNscore>
0.4486575127

> <CNNaffinity>
7.1173186302

> <CNN_VS>
3.1932384968

> <CNNaffinity_variance>
1.3126080036

$$$$
[H]OC(=O)C([H])(Oc1c(Br)c([H])c(-c2c([H])c([H])c(-c3c(C([H])([H])c4c([H])c([H])c([H])c([H])c4[H])oc4c([H])c([H])c([H])c([H])c34)c([H])c2[H])c([H])c1Br)C([H])([H])c1c([H])c([H])c([H])c([H])c1[H]


 43 48  0  0  0  0  0  0  0  0999 V2000
   11.3978   24.4550    0.9274 C   0  0  0  0  0  0  0  0  0  0  0  0
   11.5167   23.8063    2.1209 C   0  0  0  0  0  0  0  0  0  0  0  0
   10.4265   23.4979    2.9252 C   0  0  0  0  0  0  0  0  0  0  0  0
    9.1756   23.8667    2.4919 C   0  0  0  0  0  0  0  0  0  0  0  0
    9.0192   24.5261    1.2858 C   0  0  0  0  0  0  0  0  0  0  0  0
   10.1158   24.8199    0.5073 C   0  0  0  0  0  0  0  0  0  0  0  0
    8.0237   23.5603    3.3325 C   0  0  0  0  0  0  0  0  0  0  0  0
    7.4395   22.3745    3.6681 C   0  0  0  0  0  0  0  0  0  0  0  0
    6.4055   22.6571    4.4697 O   0  0  0  0  0  0  0  0  0  0  0  0
    6.3052   23.9459    4.6584 C   0  0  0  0  0  0  0  0  0  0  0  0
    5.4364   24.7413    5.3821 C   0  0  0  0  0  0  0  0  0  0  0  0
    5.5604   26.1240    5.4126 C   0  0  0  0  0  0  0  0  0  0  0  0
    6.5702   26.7390    4.7074 C   0  0  0  0  0  0  0  0  0  0  0  0
    7.4457   25.9609    3.9796 C   0  0  0  0  0  0  0  0  0  0  0  0
    7.3037   24.5903    3.9646 C   0  0  0  0  0  0  0  0  0  0  0  0
    7.8525   21.0275    3.2424 C   0  0  0  0  0  0  0  0  0  0  0  0
    7.7463   20.7883    1.7855 C   0  0  0  0  0  0  0  0  0  0  0  0
    8.8649   20.6953    1.0020 C   0  0  0  0  0  0  0  0  0  0  0  0
    8.7351   20.4746   -0.3427 C   0  0  0  0  0  0  0  0  0  0  0  0
    7.5030   20.3439   -0.9257 C   0  0  0  0  0  0  0  0  0  0  0  0
    6.3550   20.4362   -0.1435 C   0  0  0  0  0  0  0  0  0  0  0  0
    6.4901   20.6548    1.1868 C   0  0  0  0  0  0  0  0  0  0  0  0
   14.6124   25.4548   -1.6341 C   0  0  0  0  0  0  0  0  0  0  0  0
   14.8588   24.8848   -0.3928 C   0  0  0  0  0  0  0  0  0  0  0  0
   16.6516   24.7097    0.2327 Br  0  0  0  0  0  0  0  0  0  0  0  0
   13.7974   24.5652    0.4413 C   0  0  0  0  0  0  0  0  0  0  0  0
   12.4979   24.8108    0.0560 C   0  0  0  0  0  0  0  0  0  0  0  0
   12.2511   25.3813   -1.1737 C   0  0  0  0  0  0  0  0  0  0  0  0
   13.2938   25.7125   -2.0364 C   0  0  0  0  0  0  0  0  0  0  0  0
   12.9211   26.5266   -3.7213 Br  0  0  0  0  0  0  0  0  0  0  0  0
   15.6441   25.7477   -2.4539 O   0  0  0  0  0  0  0  0  0  0  0  0
   16.1539   25.0469   -3.5032 C   0  0  0  0  0  0  0  0  0  0  0  0
   15.6845   23.8808   -5.6499 O   0  0  0  0  0  0  0  0  0  0  0  0
   15.4356   24.9915   -4.7927 C   0  0  0  0  0  0  0  0  0  0  0  0
   14.6357   25.8036   -5.2198 O   0  0  0  0  0  0  0  0  0  0  0  0
   14.8396   23.3803   -5.9800 H   0  0  0  0  0  0  0  0  0  0  0  0
   16.5837   23.6481   -3.1777 C   0  0  0  0  0  0  0  0  0  0  0  0
   15.4720   22.9026   -2.5835 C   0  0  0  0  0  0  0  0  0  0  0  0
   15.6386   22.3143   -1.3228 C   0  0  0  0  0  0  0  0  0  0  0  0
   14.6112   21.6079   -0.7416 C   0  0  0  0  0  0  0  0  0  0  0  0
   13.4342   21.4963   -1.4193 C   0  0  0  0  0  0  0  0  0  0  0  0
   13.2552   22.0739   -2.6680 C   0  0  0  0  0  0  0  0  0  0  0  0
   14.2821   22.7728   -3.2361 C   0  0  0  0  0  0  0  0  0  0  0  0
 33 34  1  0  0  0
 34 35  2  0  0  0
 34 32  1  0  0  0
 32 37  1  0  0  0
 37 38  1  0  0  0
 38 39  2  0  0  0
 39 40  1  0  0  0
 40 41  2  0  0  0
 41 42  1  0  0  0
 42 43  2  0  0  0
 32 31  1  0  0  0
 31 23  1  0  0  0
 23 24  2  0  0  0
 24 25  1  0  0  0
 24 26  1  0  0  0
 26 27  2  0  0  0
 27 28  1  0  0  0
 28 29  2  0  0  0
 29 30  1  0  0  0
 27  1  1  0  0  0
  1  2  2  0  0  0
  2  3  1  0  0  0
  3  4  2  0  0  0
  4  5  1  0  0  0
  5  6  2  0  0  0
  4  7  1  0  0  0
  7  8  2  0  0  0
  8 16  1  0  0  0
 16 17  1  0  0  0
 17 18  2  0  0  0
 18 19  1  0  0  0
 19 20  2  0  0  0
 20 21  1  0  0  0
 21 22  2  0  0  0
  8  9  1  0  0  0
  9 10  1  0  0  0
 10 11  2  0  0  0
 11 12  1  0  0  0
 12 13  2  0  0  0
 13 14  1  0  0  0
 14 15  2  0  0  0
 43 38  1  0  0  0
 29 23  1  0  0  0
  6  1  1  0  0  0
 15  7  1  0  0  0
 22 17  1  0  0  0
 15 10  1  0  0  0
 33 36  1  0  0  0
M  END
> <minimizedAffinity>
-1.19469

> <CNNscore>
0.3748548329

> <CNNaffinity>
7.4920654297

> <CNN_VS>
2.8084368706

> <CNNaffinity_variance>
0.5092929602

$$$$
[H]OC(=O)C([H])(Oc1c(Br)c([H])c(-c2c([H])c([H])c(-c3c(C([H])([H])c4c([H])c([H])c([H])c([H])c4[H])oc4c([H])c([H])c([H])c([H])c34)c([H])c2[H])c([H])c1Br)C([H])([H])c1c([H])c([H])c([H])c([H])c1[H]


 43 48  0  0  0  0  0  0  0  0999 V2000
   11.8862   24.6583   -0.4736 C   0  0  0  0  0  0  0  0  0  0  0  0
   10.5870   24.3529   -0.7529 C   0  0  0  0  0  0  0  0  0  0  0  0
    9.7480   23.7183    0.1548 C   0  0  0  0  0  0  0  0  0  0  0  0
   10.2578   23.3863    1.3871 C   0  0  0  0  0  0  0  0  0  0  0  0
   11.5718   23.6816    1.7033 C   0  0  0  0  0  0  0  0  0  0  0  0
   12.3825   24.3112    0.7859 C   0  0  0  0  0  0  0  0  0  0  0  0
    9.3915   22.7083    2.3448 C   0  0  0  0  0  0  0  0  0  0  0  0
    9.0717   21.3917    2.5001 C   0  0  0  0  0  0  0  0  0  0  0  0
    8.2288   21.3100    3.5366 O   0  0  0  0  0  0  0  0  0  0  0  0
    8.0005   22.4930    4.0416 C   0  0  0  0  0  0  0  0  0  0  0  0
    7.2278   22.9509    5.0925 C   0  0  0  0  0  0  0  0  0  0  0  0
    7.1649   24.2979    5.4243 C   0  0  0  0  0  0  0  0  0  0  0  0
    7.8845   25.2190    4.6970 C   0  0  0  0  0  0  0  0  0  0  0  0
    8.6603   24.7798    3.6450 C   0  0  0  0  0  0  0  0  0  0  0  0
    8.7079   23.4380    3.3343 C   0  0  0  0  0  0  0  0  0  0  0  0
    9.5523   20.2585    1.6932 C   0  0  0  0  0  0  0  0  0  0  0  0
   10.9093   20.4413    1.1311 C   0  0  0  0  0  0  0  0  0  0  0  0
   11.1004   20.5993   -0.2152 C   0  0  0  0  0  0  0  0  0  0  0  0
   12.3675   20.7654   -0.7058 C   0  0  0  0  0  0  0  0  0  0  0  0
   13.4556   20.7771    0.1255 C   0  0  0  0  0  0  0  0  0  0  0  0
   13.2791   20.6173    1.4972 C   0  0  0  0  0  0  0  0  0  0  0  0
   12.0225   20.4533    1.9766 C   0  0  0  0  0  0  0  0  0  0  0  0
   14.5696   26.5915   -3.1110 C   0  0  0  0  0  0  0  0  0  0  0  0
   13.2050   26.6117   -3.3633 C   0  0  0  0  0  0  0  0  0  0  0  0
   12.5510   27.3626   -4.9896 Br  0  0  0  0  0  0  0  0  0  0  0  0
   12.3343   25.9704   -2.4944 C   0  0  0  0  0  0  0  0  0  0  0  0
   12.8067   25.3073   -1.3833 C   0  0  0  0  0  0  0  0  0  0  0  0
   14.1615   25.2815   -1.1335 C   0  0  0  0  0  0  0  0  0  0  0  0
   15.0630   25.9171   -1.9846 C   0  0  0  0  0  0  0  0  0  0  0  0
   16.9356   25.8402   -1.6266 Br  0  0  0  0  0  0  0  0  0  0  0  0
   15.4152   27.2321   -3.9458 O   0  0  0  0  0  0  0  0  0  0  0  0
   15.9561   26.8238   -5.1259 C   0  0  0  0  0  0  0  0  0  0  0  0
   16.0499   29.1702   -5.9469 O   0  0  0  0  0  0  0  0  0  0  0  0
   16.1518   27.7786   -6.2358 C   0  0  0  0  0  0  0  0  0  0  0  0
   16.3961   27.5095   -7.3976 O   0  0  0  0  0  0  0  0  0  0  0  0
   16.8497   29.7466   -6.2654 H   0  0  0  0  0  0  0  0  0  0  0  0
   15.3363   25.5901   -5.7100 C   0  0  0  0  0  0  0  0  0  0  0  0
   15.4655   24.4686   -4.7771 C   0  0  0  0  0  0  0  0  0  0  0  0
   14.3545   23.6510   -4.5315 C   0  0  0  0  0  0  0  0  0  0  0  0
   14.4477   22.5912   -3.6594 C   0  0  0  0  0  0  0  0  0  0  0  0
   15.6414   22.3582   -3.0447 C   0  0  0  0  0  0  0  0  0  0  0  0
   16.7497   23.1594   -3.2787 C   0  0  0  0  0  0  0  0  0  0  0  0
   16.6459   24.2094   -4.1462 C   0  0  0  0  0  0  0  0  0  0  0  0
 33 34  1  0  0  0
 34 35  2  0  0  0
 34 32  1  0  0  0
 32 37  1  0  0  0
 37 38  1  0  0  0
 38 39  2  0  0  0
 39 40  1  0  0  0
 40 41  2  0  0  0
 41 42  1  0  0  0
 42 43  2  0  0  0
 32 31  1  0  0  0
 31 23  1  0  0  0
 23 24  2  0  0  0
 24 25  1  0  0  0
 24 26  1  0  0  0
 26 27  2  0  0  0
 27 28  1  0  0  0
 28 29  2  0  0  0
 29 30  1  0  0  0
 27  1  1  0  0  0
  1  2  2  0  0  0
  2  3  1  0  0  0
  3  4  2  0  0  0
  4  5  1  0  0  0
  5  6  2  0  0  0
  4  7  1  0  0  0
  7  8  2  0  0  0
  8 16  1  0  0  0
 16 17  1  0  0  0
 17 18  2  0  0  0
 18 19  1  0  0  0
 19 20  2  0  0  0
 20 21  1  0  0  0
 21 22  2  0  0  0
  8  9  1  0  0  0
  9 10  1  0  0  0
 10 11  2  0  0  0
 11 12  1  0  0  0
 12 13  2  0  0  0
 13 14  1  0  0  0
 14 15  2  0  0  0
 43 38  1  0  0  0
 29 23  1  0  0  0
  6  1  1  0  0  0
 15  7  1  0  0  0
 22 17  1  0  0  0
 15 10  1  0  0  0
 33 36  1  0  0  0
M  END
> <minimizedAffinity>
0.68209

> <CNNscore>
0.2902518213

> <CNNaffinity>
7.7808547020

> <CNN_VS>
2.2584073544

> <CNNaffinity_variance>
0.1732306778

$$$$
[H]OC(=O)C([H])(Oc1c(Br)c([H])c(-c2c([H])c([H])c(-c3c(C([H])([H])c4c([H])c([H])c([H])c([H])c4[H])oc4c([H])c([H])c([H])c([H])c34)c([H])c2[H])c([H])c1Br)C([H])([H])c1c([H])c([H])c([H])c([H])c1[H]


 43 48  0  0  0  0  0  0  0  0999 V2000
   12.1062   23.3558   -0.5643 C   0  0  0  0  0  0  0  0  0  0  0  0
   11.8384   24.0064    0.6037 C   0  0  0  0  0  0  0  0  0  0  0  0
   11.1047   23.4348    1.6360 C   0  0  0  0  0  0  0  0  0  0  0  0
   10.6306   22.1564    1.4645 C   0  0  0  0  0  0  0  0  0  0  0  0
   10.8840   21.4677    0.2917 C   0  0  0  0  0  0  0  0  0  0  0  0
   11.6140   22.0566   -0.7160 C   0  0  0  0  0  0  0  0  0  0  0  0
    9.8480   21.5492    2.5351 C   0  0  0  0  0  0  0  0  0  0  0  0
    8.5988   21.8230    3.0087 C   0  0  0  0  0  0  0  0  0  0  0  0
    8.3586   20.9649    4.0075 O   0  0  0  0  0  0  0  0  0  0  0  0
    9.3790   20.1696    4.1894 C   0  0  0  0  0  0  0  0  0  0  0  0
    9.6382   19.1326    5.0662 C   0  0  0  0  0  0  0  0  0  0  0  0
   10.8381   18.4341    5.0417 C   0  0  0  0  0  0  0  0  0  0  0  0
   11.8101   18.7697    4.1264 C   0  0  0  0  0  0  0  0  0  0  0  0
   11.5684   19.8019    3.2445 C   0  0  0  0  0  0  0  0  0  0  0  0
   10.3699   20.4807    3.2868 C   0  0  0  0  0  0  0  0  0  0  0  0
    7.6722   22.8598    2.5264 C   0  0  0  0  0  0  0  0  0  0  0  0
    7.7012   24.1162    3.3086 C   0  0  0  0  0  0  0  0  0  0  0  0
    7.9686   24.1060    4.6511 C   0  0  0  0  0  0  0  0  0  0  0  0
    7.9875   25.2840    5.3482 C   0  0  0  0  0  0  0  0  0  0  0  0
    7.7433   26.4804    4.7285 C   0  0  0  0  0  0  0  0  0  0  0  0
    7.4693   26.5086    3.3638 C   0  0  0  0  0  0  0  0  0  0  0  0
    7.4520   25.3394    2.6795 C   0  0  0  0  0  0  0  0  0  0  0  0
   14.3148   24.9866   -3.7825 C   0  0  0  0  0  0  0  0  0  0  0  0
   13.1991   25.6510   -3.2926 C   0  0  0  0  0  0  0  0  0  0  0  0
   12.5580   27.2123   -4.1800 Br  0  0  0  0  0  0  0  0  0  0  0  0
   12.4792   25.1049   -2.2400 C   0  0  0  0  0  0  0  0  0  0  0  0
   12.8542   23.9059   -1.6751 C   0  0  0  0  0  0  0  0  0  0  0  0
   13.9586   23.2419   -2.1632 C   0  0  0  0  0  0  0  0  0  0  0  0
   14.7049   23.7635   -3.2177 C   0  0  0  0  0  0  0  0  0  0  0  0
   16.2129   22.8068   -3.8894 Br  0  0  0  0  0  0  0  0  0  0  0  0
   15.0268   25.5276   -4.7938 O   0  0  0  0  0  0  0  0  0  0  0  0
   15.6870   26.7157   -4.8611 C   0  0  0  0  0  0  0  0  0  0  0  0
   15.3346   26.8585   -7.3195 O   0  0  0  0  0  0  0  0  0  0  0  0
   16.0417   27.3080   -6.1669 C   0  0  0  0  0  0  0  0  0  0  0  0
   16.8883   28.1564   -6.3795 O   0  0  0  0  0  0  0  0  0  0  0  0
   14.9216   27.6078   -7.9038 H   0  0  0  0  0  0  0  0  0  0  0  0
   16.9026   26.8116   -3.9890 C   0  0  0  0  0  0  0  0  0  0  0  0
   16.5854   26.3717   -2.6287 C   0  0  0  0  0  0  0  0  0  0  0  0
   17.2935   25.2974   -2.0740 C   0  0  0  0  0  0  0  0  0  0  0  0
   17.0155   24.8630   -0.7987 C   0  0  0  0  0  0  0  0  0  0  0  0
   16.0401   25.5012   -0.0928 C   0  0  0  0  0  0  0  0  0  0  0  0
   15.3314   26.5665   -0.6292 C   0  0  0  0  0  0  0  0  0  0  0  0
   15.6151   26.9893   -1.8967 C   0  0  0  0  0  0  0  0  0  0  0  0
 33 34  1  0  0  0
 34 35  2  0  0  0
 34 32  1  0  0  0
 32 37  1  0  0  0
 37 38  1  0  0  0
 38 39  2  0  0  0
 39 40  1  0  0  0
 40 41  2  0  0  0
 41 42  1  0  0  0
 42 43  2  0  0  0
 32 31  1  0  0  0
 31 23  1  0  0  0
 23 24  2  0  0  0
 24 25  1  0  0  0
 24 26  1  0  0  0
 26 27  2  0  0  0
 27 28  1  0  0  0
 28 29  2  0  0  0
 29 30  1  0  0  0
 27  1  1  0  0  0
  1  2  2  0  0  0
  2  3  1  0  0  0
  3  4  2  0  0  0
  4  5  1  0  0  0
  5  6  2  0  0  0
  4  7  1  0  0  0
  7  8  2  0  0  0
  8 16  1  0  0  0
 16 17  1  0  0  0
 17 18  2  0  0  0
 18 19  1  0  0  0
 19 20  2  0  0  0
 20 21  1  0  0  0
 21 22  2  0  0  0
  8  9  1  0  0  0
  9 10  1  0  0  0
 10 11  2  0  0  0
 11 12  1  0  0  0
 12 13  2  0  0  0
 13 14  1  0  0  0
 14 15  2  0  0  0
 43 38  1  0  0  0
 29 23  1  0  0  0
  6  1  1  0  0  0
 15  7  1  0  0  0
 22 17  1  0  0  0
 15 10  1  0  0  0
 33 36  1  0  0  0
M  END
> <minimizedAffinity>
-0.00060

> <CNNscore>
0.2883172035

> <CNNaffinity>
7.6077713966

> <CNN_VS>
2.1934514046

> <CNNaffinity_variance>
0.1792013049

$$$$
[H]OC(=O)C([H])(Oc1c(Br)c([H])c(-c2c([H])c([H])c(-c3c(C([H])([H])c4c([H])c([H])c([H])c([H])c4[H])oc4c([H])c([H])c([H])c([H])c34)c([H])c2[H])c([H])c1Br)C([H])([H])c1c([H])c([H])c([H])c([H])c1[H]


 43 48  0  0  0  0  0  0  0  0999 V2000
   12.4828   23.4509   -1.6511 C   0  0  0  0  0  0  0  0  0  0  0  0
   13.6718   22.9510   -2.0935 C   0  0  0  0  0  0  0  0  0  0  0  0
   14.6271   23.7297   -2.7351 C   0  0  0  0  0  0  0  0  0  0  0  0
   14.3540   25.0625   -2.9291 C   0  0  0  0  0  0  0  0  0  0  0  0
   13.1573   25.6022   -2.4926 C   0  0  0  0  0  0  0  0  0  0  0  0
   12.2273   24.8090   -1.8593 C   0  0  0  0  0  0  0  0  0  0  0  0
   15.3428   25.8886   -3.6126 C   0  0  0  0  0  0  0  0  0  0  0  0
   16.3430   26.6828   -3.1345 C   0  0  0  0  0  0  0  0  0  0  0  0
   16.9590   27.2221   -4.1934 O   0  0  0  0  0  0  0  0  0  0  0  0
   16.4080   26.8151   -5.3058 C   0  0  0  0  0  0  0  0  0  0  0  0
   16.6564   27.0646   -6.6427 C   0  0  0  0  0  0  0  0  0  0  0  0
   15.8983   26.4833   -7.6505 C   0  0  0  0  0  0  0  0  0  0  0  0
   14.8648   25.6325   -7.3292 C   0  0  0  0  0  0  0  0  0  0  0  0
   14.6028   25.3728   -6.0006 C   0  0  0  0  0  0  0  0  0  0  0  0
   15.3688   25.9605   -5.0173 C   0  0  0  0  0  0  0  0  0  0  0  0
   16.6970   26.9159   -1.7250 C   0  0  0  0  0  0  0  0  0  0  0  0
   16.4023   25.7780   -0.8253 C   0  0  0  0  0  0  0  0  0  0  0  0
   15.2758   25.7665   -0.0475 C   0  0  0  0  0  0  0  0  0  0  0  0
   15.0306   24.7006    0.7757 C   0  0  0  0  0  0  0  0  0  0  0  0
   15.8925   23.6384    0.8389 C   0  0  0  0  0  0  0  0  0  0  0  0
   17.0429   23.6343    0.0549 C   0  0  0  0  0  0  0  0  0  0  0  0
   17.2801   24.6922   -0.7577 C   0  0  0  0  0  0  0  0  0  0  0  0
    9.4879   21.1790    0.2887 C   0  0  0  0  0  0  0  0  0  0  0  0
    9.6391   21.1050   -1.0890 C   0  0  0  0  0  0  0  0  0  0  0  0
    8.3870   20.1125   -2.1298 Br  0  0  0  0  0  0  0  0  0  0  0  0
   10.6214   21.8580   -1.7155 C   0  0  0  0  0  0  0  0  0  0  0  0
   11.4487   22.6848   -0.9879 C   0  0  0  0  0  0  0  0  0  0  0  0
   11.2971   22.7638    0.3793 C   0  0  0  0  0  0  0  0  0  0  0  0
   10.3221   22.0195    1.0401 C   0  0  0  0  0  0  0  0  0  0  0  0
   10.1188   22.1714    2.9312 Br  0  0  0  0  0  0  0  0  0  0  0  0
    8.5449   20.4315    0.9006 O   0  0  0  0  0  0  0  0  0  0  0  0
    7.1915   20.4424    0.7584 C   0  0  0  0  0  0  0  0  0  0  0  0
    7.0791   22.9244    0.6332 O   0  0  0  0  0  0  0  0  0  0  0  0
    6.4897   21.6657    0.3191 C   0  0  0  0  0  0  0  0  0  0  0  0
    5.4406   21.7263   -0.2953 O   0  0  0  0  0  0  0  0  0  0  0  0
    7.1951   23.5697   -0.1689 H   0  0  0  0  0  0  0  0  0  0  0  0
    6.4304   19.8934    1.9275 C   0  0  0  0  0  0  0  0  0  0  0  0
    6.7492   20.6510    3.1395 C   0  0  0  0  0  0  0  0  0  0  0  0
    7.6440   20.1077    4.0708 C   0  0  0  0  0  0  0  0  0  0  0  0
    7.9607   20.7975    5.2182 C   0  0  0  0  0  0  0  0  0  0  0  0
    7.3856   22.0156    5.4240 C   0  0  0  0  0  0  0  0  0  0  0  0
    6.4983   22.5658    4.5102 C   0  0  0  0  0  0  0  0  0  0  0  0
    6.1904   21.8721    3.3745 C   0  0  0  0  0  0  0  0  0  0  0  0
 33 34  1  0  0  0
 34 35  2  0  0  0
 34 32  1  0  0  0
 32 37  1  0  0  0
 37 38  1  0  0  0
 38 39  2  0  0  0
 39 40  1  0  0  0
 40 41  2  0  0  0
 41 42  1  0  0  0
 42 43  2  0  0  0
 32 31  1  0  0  0
 31 23  1  0  0  0
 23 24  2  0  0  0
 24 25  1  0  0  0
 24 26  1  0  0  0
 26 27  2  0  0  0
 27 28  1  0  0  0
 28 29  2  0  0  0
 29 30  1  0  0  0
 27  1  1  0  0  0
  1  2  2  0  0  0
  2  3  1  0  0  0
  3  4  2  0  0  0
  4  5  1  0  0  0
  5  6  2  0  0  0
  4  7  1  0  0  0
  7  8  2  0  0  0
  8 16  1  0  0  0
 16 17  1  0  0  0
 17 18  2  0  0  0
 18 19  1  0  0  0
 19 20  2  0  0  0
 20 21  1  0  0  0
 21 22  2  0  0  0
  8  9  1  0  0  0
  9 10  1  0  0  0
 10 11  2  0  0  0
 11 12  1  0  0  0
 12 13  2  0  0  0
 13 14  1  0  0  0
 14 15  2  0  0  0
 43 38  1  0  0  0
 29 23  1  0  0  0
  6  1  1  0  0  0
 15  7  1  0  0  0
 22 17  1  0  0  0
 15 10  1  0  0  0
 33 36  1  0  0  0
M  END
> <minimizedAffinity>
-3.35172

> <CNNscore>
0.2786909044

> <CNNaffinity>
7.5112357140

> <CNN_VS>
2.0933129787

> <CNNaffinity_variance>
0.2336664945

$$$$
[H]OC(=O)C([H])(Oc1c(Br)c([H])c(-c2c([H])c([H])c(-c3c(C([H])([H])c4c([H])c([H])c([H])c([H])c4[H])oc4c([H])c([H])c([H])c([H])c34)c([H])c2[H])c([H])c1Br)C([H])([H])c1c([H])c([H])c([H])c([H])c1[H]


 43 48  0  0  0  0  0  0  0  0999 V2000
   11.3893   24.1545    0.7938 C   0  0  0  0  0  0  0  0  0  0  0  0
   10.1530   23.9486    0.2565 C   0  0  0  0  0  0  0  0  0  0  0  0
    9.0208   23.7242    1.0300 C   0  0  0  0  0  0  0  0  0  0  0  0
    9.1611   23.7104    2.3969 C   0  0  0  0  0  0  0  0  0  0  0  0
   10.4010   23.9159    2.9751 C   0  0  0  0  0  0  0  0  0  0  0  0
   11.5075   24.1362    2.1862 C   0  0  0  0  0  0  0  0  0  0  0  0
    7.9828   23.4634    3.2203 C   0  0  0  0  0  0  0  0  0  0  0  0
    7.3303   22.3097    3.5417 C   0  0  0  0  0  0  0  0  0  0  0  0
    6.3023   22.6445    4.3308 O   0  0  0  0  0  0  0  0  0  0  0  0
    6.2697   23.9360    4.5249 C   0  0  0  0  0  0  0  0  0  0  0  0
    5.4356   24.7742    5.2412 C   0  0  0  0  0  0  0  0  0  0  0  0
    5.6344   26.1479    5.2807 C   0  0  0  0  0  0  0  0  0  0  0  0
    6.6857   26.7102    4.5924 C   0  0  0  0  0  0  0  0  0  0  0  0
    7.5275   25.8890    3.8724 C   0  0  0  0  0  0  0  0  0  0  0  0
    7.3113   24.5282    3.8481 C   0  0  0  0  0  0  0  0  0  0  0  0
    7.6751   20.9442    3.1144 C   0  0  0  0  0  0  0  0  0  0  0  0
    9.1290   20.6839    3.0164 C   0  0  0  0  0  0  0  0  0  0  0  0
    9.8959   20.5301    4.1399 C   0  0  0  0  0  0  0  0  0  0  0  0
   11.2383   20.2912    4.0176 C   0  0  0  0  0  0  0  0  0  0  0  0
   11.8352   20.2021    2.7885 C   0  0  0  0  0  0  0  0  0  0  0  0
   11.0699   20.3565    1.6357 C   0  0  0  0  0  0  0  0  0  0  0  0
    9.7419   20.5927    1.7633 C   0  0  0  0  0  0  0  0  0  0  0  0
   14.9539   24.7875   -1.3940 C   0  0  0  0  0  0  0  0  0  0  0  0
   14.7421   25.4534   -0.1948 C   0  0  0  0  0  0  0  0  0  0  0  0
   15.9788   26.7847    0.3835 Br  0  0  0  0  0  0  0  0  0  0  0  0
   13.5674   25.2421    0.5123 C   0  0  0  0  0  0  0  0  0  0  0  0
   12.6025   24.3814    0.0371 C   0  0  0  0  0  0  0  0  0  0  0  0
   12.8084   23.7231   -1.1557 C   0  0  0  0  0  0  0  0  0  0  0  0
   13.9776   23.9110   -1.8896 C   0  0  0  0  0  0  0  0  0  0  0  0
   14.2213   23.0060   -3.5516 Br  0  0  0  0  0  0  0  0  0  0  0  0
   16.1054   24.9781   -2.0722 O   0  0  0  0  0  0  0  0  0  0  0  0
   16.3827   25.8179   -3.1066 C   0  0  0  0  0  0  0  0  0  0  0  0
   18.6273   26.8902   -3.0792 O   0  0  0  0  0  0  0  0  0  0  0  0
   17.2194   27.0175   -2.9000 C   0  0  0  0  0  0  0  0  0  0  0  0
   16.8378   28.1302   -2.5868 O   0  0  0  0  0  0  0  0  0  0  0  0
   19.0554   27.5853   -3.7171 H   0  0  0  0  0  0  0  0  0  0  0  0
   15.1905   26.2449   -3.9088 C   0  0  0  0  0  0  0  0  0  0  0  0
   15.5008   26.2002   -5.3393 C   0  0  0  0  0  0  0  0  0  0  0  0
   16.0584   27.3289   -5.9544 C   0  0  0  0  0  0  0  0  0  0  0  0
   16.3591   27.3146   -7.2967 C   0  0  0  0  0  0  0  0  0  0  0  0
   16.1028   26.1810   -8.0082 C   0  0  0  0  0  0  0  0  0  0  0  0
   15.5514   25.0560   -7.4121 C   0  0  0  0  0  0  0  0  0  0  0  0
   15.2562   25.0813   -6.0787 C   0  0  0  0  0  0  0  0  0  0  0  0
 33 34  1  0  0  0
 34 35  2  0  0  0
 34 32  1  0  0  0
 32 37  1  0  0  0
 37 38  1  0  0  0
 38 39  2  0  0  0
 39 40  1  0  0  0
 40 41  2  0  0  0
 41 42  1  0  0  0
 42 43  2  0  0  0
 32 31  1  0  0  0
 31 23  1  0  0  0
 23 24  2  0  0  0
 24 25  1  0  0  0
 24 26  1  0  0  0
 26 27  2  0  0  0
 27 28  1  0  0  0
 28 29  2  0  0  0
 29 30  1  0  0  0
 27  1  1  0  0  0
  1  2  2  0  0  0
  2  3  1  0  0  0
  3  4  2  0  0  0
  4  5  1  0  0  0
  5  6  2  0  0  0
  4  7  1  0  0  0
  7  8  2  0  0  0
  8 16  1  0  0  0
 16 17  1  0  0  0
 17 18  2  0  0  0
 18 19  1  0  0  0
 19 20  2  0  0  0
 20 21  1  0  0  0
 21 22  2  0  0  0
  8  9  1  0  0  0
  9 10  1  0  0  0
 10 11  2  0  0  0
 11 12  1  0  0  0
 12 13  2  0  0  0
 13 14  1  0  0  0
 14 15  2  0  0  0
 43 38  1  0  0  0
 29 23  1  0  0  0
  6  1  1  0  0  0
 15  7  1  0  0  0
 22 17  1  0  0  0
 15 10  1  0  0  0
 33 36  1  0  0  0
M  END
> <minimizedAffinity>
0.55480

> <CNNscore>
0.2663679719

> <CNNaffinity>
7.1838316917

> <CNN_VS>
1.9135426283

> <CNNaffinity_variance>
0.2999511361

$$$$
[H]OC(=O)C([H])(Oc1c(Br)c([H])c(-c2c([H])c([H])c(-c3c(C([H])([H])c4c([H])c([H])c([H])c([H])c4[H])oc4c([H])c([H])c([H])c([H])c34)c([H])c2[H])c([H])c1Br)C([H])([H])c1c([H])c([H])c([H])c([H])c1[H]


 43 48  0  0  0  0  0  0  0  0999 V2000
   11.3209   23.0935   -0.8672 C   0  0  0  0  0  0  0  0  0  0  0  0
   11.5030   21.8801   -0.2723 C   0  0  0  0  0  0  0  0  0  0  0  0
   10.5368   21.2755    0.5222 C   0  0  0  0  0  0  0  0  0  0  0  0
    9.3470   21.9362    0.7127 C   0  0  0  0  0  0  0  0  0  0  0  0
    9.1291   23.1689    0.1238 C   0  0  0  0  0  0  0  0  0  0  0  0
   10.1029   23.7465   -0.6594 C   0  0  0  0  0  0  0  0  0  0  0  0
    8.3289   21.3185    1.5550 C   0  0  0  0  0  0  0  0  0  0  0  0
    8.0422   21.4639    2.8803 C   0  0  0  0  0  0  0  0  0  0  0  0
    7.0061   20.6607    3.1503 O   0  0  0  0  0  0  0  0  0  0  0  0
    6.6247   20.0211    2.0769 C   0  0  0  0  0  0  0  0  0  0  0  0
    5.6287   19.0981    1.8173 C   0  0  0  0  0  0  0  0  0  0  0  0
    5.4355   18.5643    0.5500 C   0  0  0  0  0  0  0  0  0  0  0  0
    6.2496   18.9519   -0.4903 C   0  0  0  0  0  0  0  0  0  0  0  0
    7.2485   19.8715   -0.2491 C   0  0  0  0  0  0  0  0  0  0  0  0
    7.4212   20.3883    1.0166 C   0  0  0  0  0  0  0  0  0  0  0  0
    8.7280   22.3349    3.8484 C   0  0  0  0  0  0  0  0  0  0  0  0
    8.3935   23.7712    3.7213 C   0  0  0  0  0  0  0  0  0  0  0  0
    7.1365   24.2314    4.0079 C   0  0  0  0  0  0  0  0  0  0  0  0
    6.8568   25.5653    3.8799 C   0  0  0  0  0  0  0  0  0  0  0  0
    7.8125   26.4556    3.4690 C   0  0  0  0  0  0  0  0  0  0  0  0
    9.0959   26.0043    3.1731 C   0  0  0  0  0  0  0  0  0  0  0  0
    9.3665   24.6830    3.3017 C   0  0  0  0  0  0  0  0  0  0  0  0
   14.1874   25.0955   -3.2481 C   0  0  0  0  0  0  0  0  0  0  0  0
   13.0629   25.7698   -2.7930 C   0  0  0  0  0  0  0  0  0  0  0  0
   12.7202   27.5507   -3.3823 Br  0  0  0  0  0  0  0  0  0  0  0  0
   12.1267   25.1024   -2.0168 C   0  0  0  0  0  0  0  0  0  0  0  0
   12.2952   23.7738   -1.6942 C   0  0  0  0  0  0  0  0  0  0  0  0
   13.4083   23.1010   -2.1491 C   0  0  0  0  0  0  0  0  0  0  0  0
   14.3687   23.7419   -2.9289 C   0  0  0  0  0  0  0  0  0  0  0  0
   15.8854   22.7758   -3.5667 Br  0  0  0  0  0  0  0  0  0  0  0  0
   15.1082   25.7502   -3.9870 O   0  0  0  0  0  0  0  0  0  0  0  0
   15.8745   26.8302   -3.6734 C   0  0  0  0  0  0  0  0  0  0  0  0
   17.6460   28.3206   -4.5840 O   0  0  0  0  0  0  0  0  0  0  0  0
   16.3483   27.7499   -4.7278 C   0  0  0  0  0  0  0  0  0  0  0  0
   15.7453   28.0857   -5.7305 O   0  0  0  0  0  0  0  0  0  0  0  0
   18.2692   28.2118   -5.4044 H   0  0  0  0  0  0  0  0  0  0  0  0
   17.0465   26.5354   -2.7864 C   0  0  0  0  0  0  0  0  0  0  0  0
   16.6064   25.8171   -1.5885 C   0  0  0  0  0  0  0  0  0  0  0  0
   17.3271   24.6945   -1.1601 C   0  0  0  0  0  0  0  0  0  0  0  0
   16.9355   24.0008   -0.0386 C   0  0  0  0  0  0  0  0  0  0  0  0
   15.8357   24.4313    0.6411 C   0  0  0  0  0  0  0  0  0  0  0  0
   15.1130   25.5415    0.2285 C   0  0  0  0  0  0  0  0  0  0  0  0
   15.5103   26.2227   -0.8867 C   0  0  0  0  0  0  0  0  0  0  0  0
 33 34  1  0  0  0
 34 35  2  0  0  0
 34 32  1  0  0  0
 32 37  1  0  0  0
 37 38  1  0  0  0
 38 39  2  0  0  0
 39 40  1  0  0  0
 40 41  2  0  0  0
 41 42  1  0  0  0
 42 43  2  0  0  0
 32 31  1  0  0  0
 31 23  1  0  0  0
 23 24  2  0  0  0
 24 25  1  0  0  0
 24 26  1  0  0  0
 26 27  2  0  0  0
 27 28  1  0  0  0
 28 29  2  0  0  0
 29 30  1  0  0  0
 27  1  1  0  0  0
  1  2  2  0  0  0
  2  3  1  0  0  0
  3  4  2  0  0  0
  4  5  1  0  0  0
  5  6  2  0  0  0
  4  7  1  0  0  0
  7  8  2  0  0  0
  8 16  1  0  0  0
 16 17  1  0  0  0
 17 18  2  0  0  0
 18 19  1  0  0  0
 19 20  2  0  0  0
 20 21  1  0  0  0
 21 22  2  0  0  0
  8  9  1  0  0  0
  9 10  1  0  0  0
 10 11  2  0  0  0
 11 12  1  0  0  0
 12 13  2  0  0  0
 13 14  1  0  0  0
 14 15  2  0  0  0
 43 38  1  0  0  0
 29 23  1  0  0  0
  6  1  1  0  0  0
 15  7  1  0  0  0
 22 17  1  0  0  0
 15 10  1  0  0  0
 33 36  1  0  0  0
M  END
> <minimizedAffinity>
-4.07322

> <CNNscore>
0.2523899376

> <CNNaffinity>
7.5193481445

> <CNN_VS>
1.8978078365

> <CNNaffinity_variance>
0.1955172271

$$$$
[H]OC(=O)C([H])(Oc1c(Br)c([H])c(-c2c([H])c([H])c(-c3c(C([H])([H])c4c([H])c([H])c([H])c([H])c4[H])oc4c([H])c([H])c([H])c([H])c34)c([H])c2[H])c([H])c1Br)C([H])([H])c1c([H])c([H])c([H])c([H])c1[H]


 43 48  0  0  0  0  0  0  0  0999 V2000
   11.9459   24.1635    0.5962 C   0  0  0  0  0  0  0  0  0  0  0  0
   11.2463   24.8034    1.5762 C   0  0  0  0  0  0  0  0  0  0  0  0
   10.3700   24.1463    2.4310 C   0  0  0  0  0  0  0  0  0  0  0  0
   10.2060   22.7907    2.2755 C   0  0  0  0  0  0  0  0  0  0  0  0
   10.9005   22.1104    1.2913 C   0  0  0  0  0  0  0  0  0  0  0  0
   11.7632   22.7850    0.4570 C   0  0  0  0  0  0  0  0  0  0  0  0
    9.2795   22.0906    3.1580 C   0  0  0  0  0  0  0  0  0  0  0  0
    7.9800   22.3416    3.4866 C   0  0  0  0  0  0  0  0  0  0  0  0
    7.5983   21.3870    4.3437 O   0  0  0  0  0  0  0  0  0  0  0  0
    8.5771   20.5526    4.5726 C   0  0  0  0  0  0  0  0  0  0  0  0
    8.7051   19.4213    5.3569 C   0  0  0  0  0  0  0  0  0  0  0  0
    9.8908   18.7010    5.4172 C   0  0  0  0  0  0  0  0  0  0  0  0
   10.9814   19.1099    4.6833 C   0  0  0  0  0  0  0  0  0  0  0  0
   10.8714   20.2365    3.8958 C   0  0  0  0  0  0  0  0  0  0  0  0
    9.6845   20.9353    3.8510 C   0  0  0  0  0  0  0  0  0  0  0  0
    7.1371   23.4462    3.0012 C   0  0  0  0  0  0  0  0  0  0  0  0
    7.4557   24.7640    3.5953 C   0  0  0  0  0  0  0  0  0  0  0  0
    7.8481   24.8728    4.9023 C   0  0  0  0  0  0  0  0  0  0  0  0
    8.1352   26.1053    5.4241 C   0  0  0  0  0  0  0  0  0  0  0  0
    8.0379   27.2395    4.6631 C   0  0  0  0  0  0  0  0  0  0  0  0
    7.6398   27.1467    3.3322 C   0  0  0  0  0  0  0  0  0  0  0  0
    7.3571   25.9240    2.8216 C   0  0  0  0  0  0  0  0  0  0  0  0
   14.6233   25.9831   -2.1268 C   0  0  0  0  0  0  0  0  0  0  0  0
   15.1088   25.2319   -1.0655 C   0  0  0  0  0  0  0  0  0  0  0  0
   16.9849   25.1606   -0.7321 Br  0  0  0  0  0  0  0  0  0  0  0  0
   14.2220   24.6434   -0.1756 C   0  0  0  0  0  0  0  0  0  0  0  0
   12.8618   24.7986   -0.3279 C   0  0  0  0  0  0  0  0  0  0  0  0
   12.3777   25.5482   -1.3779 C   0  0  0  0  0  0  0  0  0  0  0  0
   13.2406   26.1509   -2.2907 C   0  0  0  0  0  0  0  0  0  0  0  0
   12.5405   27.2056   -3.7183 Br  0  0  0  0  0  0  0  0  0  0  0  0
   15.4856   26.5393   -3.0040 O   0  0  0  0  0  0  0  0  0  0  0  0
   15.7903   26.1777   -4.2801 C   0  0  0  0  0  0  0  0  0  0  0  0
   16.0995   26.8485   -6.6556 O   0  0  0  0  0  0  0  0  0  0  0  0
   16.1909   27.1925   -5.2758 C   0  0  0  0  0  0  0  0  0  0  0  0
   16.6001   28.3166   -5.0505 O   0  0  0  0  0  0  0  0  0  0  0  0
   15.5768   27.5217   -7.2444 H   0  0  0  0  0  0  0  0  0  0  0  0
   14.7821   25.2862   -4.9405 C   0  0  0  0  0  0  0  0  0  0  0  0
   14.9395   23.9085   -4.4696 C   0  0  0  0  0  0  0  0  0  0  0  0
   15.5496   22.9646   -5.3062 C   0  0  0  0  0  0  0  0  0  0  0  0
   15.7095   21.6634   -4.8895 C   0  0  0  0  0  0  0  0  0  0  0  0
   15.2628   21.3185   -3.6491 C   0  0  0  0  0  0  0  0  0  0  0  0
   14.6574   22.2428   -2.8100 C   0  0  0  0  0  0  0  0  0  0  0  0
   14.5030   23.5320   -3.2341 C   0  0  0  0  0  0  0  0  0  0  0  0
 33 34  1  0  0  0
 34 35  2  0  0  0
 34 32  1  0  0  0
 32 37  1  0  0  0
 37 38  1  0  0  0
 38 39  2  0  0  0
 39 40  1  0  0  0
 40 41  2  0  0  0
 41 42  1  0  0  0
 42 43  2  0  0  0
 32 31  1  0  0  0
 31 23  1  0  0  0
 23 24  2  0  0  0
 24 25  1  0  0  0
 24 26  1  0  0  0
 26 27  2  0  0  0
 27 28  1  0  0  0
 28 29  2  0  0  0
 29 30  1  0  0  0
 27  1  1  0  0  0
  1  2  2  0  0  0
  2  3  1  0  0  0
  3  4  2  0  0  0
  4  5  1  0  0  0
  5  6  2  0  0  0
  4  7  1  0  0  0
  7  8  2  0  0  0
  8 16  1  0  0  0
 16 17  1  0  0  0
 17 18  2  0  0  0
 18 19  1  0  0  0
 19 20  2  0  0  0
 20 21  1  0  0  0
 21 22  2  0  0  0
  8  9  1  0  0  0
  9 10  1  0  0  0
 10 11  2  0  0  0
 11 12  1  0  0  0
 12 13  2  0  0  0
 13 14  1  0  0  0
 14 15  2  0  0  0
 43 38  1  0  0  0
 29 23  1  0  0  0
  6  1  1  0  0  0
 15  7  1  0  0  0
 22 17  1  0  0  0
 15 10  1  0  0  0
 33 36  1  0  0  0
M  END
> <minimizedAffinity>
-2.81816

> <CNNscore>
0.2457510978

> <CNNaffinity>
7.5219712257

> <CNN_VS>
1.8485326767

> <CNNaffinity_variance>
0.1113910526

$$$$
[H]OC(=O)C([H])(Oc1c(Br)c([H])c(-c2c([H])c([H])c(-c3c(C([H])([H])c4c([H])c([H])c([H])c([H])c4[H])oc4c([H])c([H])c([H])c([H])c34)c([H])c2[H])c([H])c1Br)C([H])([H])c1c([H])c([H])c([H])c([H])c1[H]


 43 48  0  0  0  0  0  0  0  0999 V2000
   10.9731   23.7976    0.1674 C   0  0  0  0  0  0  0  0  0  0  0  0
   10.0071   24.3852    0.9296 C   0  0  0  0  0  0  0  0  0  0  0  0
    8.9435   23.6790    1.4779 C   0  0  0  0  0  0  0  0  0  0  0  0
    8.8684   22.3282    1.2365 C   0  0  0  0  0  0  0  0  0  0  0  0
    9.8318   21.7002    0.4674 C   0  0  0  0  0  0  0  0  0  0  0  0
   10.8759   22.4228   -0.0644 C   0  0  0  0  0  0  0  0  0  0  0  0
    7.7500   21.5771    1.7956 C   0  0  0  0  0  0  0  0  0  0  0  0
    6.5100   21.2997    1.3004 C   0  0  0  0  0  0  0  0  0  0  0  0
    5.8703   20.5716    2.2236 O   0  0  0  0  0  0  0  0  0  0  0  0
    6.6320   20.3745    3.2665 C   0  0  0  0  0  0  0  0  0  0  0  0
    6.4588   19.7055    4.4639 C   0  0  0  0  0  0  0  0  0  0  0  0
    7.4606   19.6488    5.4239 C   0  0  0  0  0  0  0  0  0  0  0  0
    8.6671   20.2712    5.1957 C   0  0  0  0  0  0  0  0  0  0  0  0
    8.8569   20.9434    4.0067 C   0  0  0  0  0  0  0  0  0  0  0  0
    7.8487   20.9859    3.0682 C   0  0  0  0  0  0  0  0  0  0  0  0
    5.9593   21.7113   -0.0009 C   0  0  0  0  0  0  0  0  0  0  0  0
    5.7858   20.6043   -0.9682 C   0  0  0  0  0  0  0  0  0  0  0  0
    5.5959   20.8543   -2.3006 C   0  0  0  0  0  0  0  0  0  0  0  0
    5.4374   19.8098   -3.1711 C   0  0  0  0  0  0  0  0  0  0  0  0
    5.4648   18.5117   -2.7361 C   0  0  0  0  0  0  0  0  0  0  0  0
    5.6566   18.2398   -1.3842 C   0  0  0  0  0  0  0  0  0  0  0  0
    5.8128   19.2779   -0.5277 C   0  0  0  0  0  0  0  0  0  0  0  0
   14.2586   25.7721   -1.6216 C   0  0  0  0  0  0  0  0  0  0  0  0
   14.4515   24.9543   -0.5169 C   0  0  0  0  0  0  0  0  0  0  0  0
   16.1706   24.8549    0.3023 Br  0  0  0  0  0  0  0  0  0  0  0  0
   13.3664   24.3153    0.0650 C   0  0  0  0  0  0  0  0  0  0  0  0
   12.0948   24.4852   -0.4367 C   0  0  0  0  0  0  0  0  0  0  0  0
   11.9002   25.3006   -1.5302 C   0  0  0  0  0  0  0  0  0  0  0  0
   12.9683   25.9554   -2.1397 C   0  0  0  0  0  0  0  0  0  0  0  0
   12.6627   27.0997   -3.6357 Br  0  0  0  0  0  0  0  0  0  0  0  0
   15.3171   26.3784   -2.1999 O   0  0  0  0  0  0  0  0  0  0  0  0
   15.9579   26.0948   -3.3665 C   0  0  0  0  0  0  0  0  0  0  0  0
   17.9340   27.6049   -3.4235 O   0  0  0  0  0  0  0  0  0  0  0  0
   16.7519   27.1288   -4.0609 C   0  0  0  0  0  0  0  0  0  0  0  0
   16.5089   27.6346   -5.1412 O   0  0  0  0  0  0  0  0  0  0  0  0
   18.7898   27.5814   -4.0068 H   0  0  0  0  0  0  0  0  0  0  0  0
   15.1110   25.4195   -4.4029 C   0  0  0  0  0  0  0  0  0  0  0  0
   15.1376   23.9679   -4.2106 C   0  0  0  0  0  0  0  0  0  0  0  0
   14.8682   23.4405   -2.9408 C   0  0  0  0  0  0  0  0  0  0  0  0
   14.8871   22.0809   -2.7320 C   0  0  0  0  0  0  0  0  0  0  0  0
   15.1722   21.2653   -3.7857 C   0  0  0  0  0  0  0  0  0  0  0  0
   15.4405   21.7737   -5.0485 C   0  0  0  0  0  0  0  0  0  0  0  0
   15.4196   23.1253   -5.2446 C   0  0  0  0  0  0  0  0  0  0  0  0
 33 34  1  0  0  0
 34 35  2  0  0  0
 34 32  1  0  0  0
 32 37  1  0  0  0
 37 38  1  0  0  0
 38 39  2  0  0  0
 39 40  1  0  0  0
 40 41  2  0  0  0
 41 42  1  0  0  0
 42 43  2  0  0  0
 32 31  1  0  0  0
 31 23  1  0  0  0
 23 24  2  0  0  0
 24 25  1  0  0  0
 24 26  1  0  0  0
 26 27  2  0  0  0
 27 28  1  0  0  0
 28 29  2  0  0  0
 29 30  1  0  0  0
 27  1  1  0  0  0
  1  2  2  0  0  0
  2  3  1  0  0  0
  3  4  2  0  0  0
  4  5  1  0  0  0
  5  6  2  0  0  0
  4  7  1  0  0  0
  7  8  2  0  0  0
  8 16  1  0  0  0
 16 17  1  0  0  0
 17 18  2  0  0  0
 18 19  1  0  0  0
 19 20  2  0  0  0
 20 21  1  0  0  0
 21 22  2  0  0  0
  8  9  1  0  0  0
  9 10  1  0  0  0
 10 11  2  0  0  0
 11 12  1  0  0  0
 12 13  2  0  0  0
 13 14  1  0  0  0
 14 15  2  0  0  0
 43 38  1  0  0  0
 29 23  1  0  0  0
  6  1  1  0  0  0
 15  7  1  0  0  0
 22 17  1  0  0  0
 15 10  1  0  0  0
 33 36  1  0  0  0
M  END
> <minimizedAffinity>
-3.76657

> <CNNscore>
0.2217363417

> <CNNaffinity>
7.4041619301

> <CNN_VS>
1.6417717934

> <CNNaffinity_variance>
0.3320896327

$$$$
[H]OC(=O)C([H])(Oc1c(Br)c([H])c(-c2c([H])c([H])c(-c3c(C([H])([H])c4c([H])c([H])c([H])c([H])c4[H])oc4c([H])c([H])c([H])c([H])c34)c([H])c2[H])c([H])c1Br)C([H])([H])c1c([H])c([H])c([H])c([H])c1[H]


 43 48  0  0  0  0  0  0  0  0999 V2000
   12.6038   23.4266   -1.6298 C   0  0  0  0  0  0  0  0  0  0  0  0
   13.7875   22.9452   -2.1059 C   0  0  0  0  0  0  0  0  0  0  0  0
   14.7088   23.7370   -2.7802 C   0  0  0  0  0  0  0  0  0  0  0  0
   14.4063   25.0637   -2.9726 C   0  0  0  0  0  0  0  0  0  0  0  0
   13.2141   25.5848   -2.5025 C   0  0  0  0  0  0  0  0  0  0  0  0
   12.3180   24.7789   -1.8371 C   0  0  0  0  0  0  0  0  0  0  0  0
   15.3591   25.9032   -3.6901 C   0  0  0  0  0  0  0  0  0  0  0  0
   16.3450   26.7342   -3.2460 C   0  0  0  0  0  0  0  0  0  0  0  0
   16.9264   27.2693   -4.3264 O   0  0  0  0  0  0  0  0  0  0  0  0
   16.3671   26.8252   -5.4204 C   0  0  0  0  0  0  0  0  0  0  0  0
   16.5843   27.0549   -6.7663 C   0  0  0  0  0  0  0  0  0  0  0  0
   15.8248   26.4330   -7.7484 C   0  0  0  0  0  0  0  0  0  0  0  0
   14.8216   25.5604   -7.3916 C   0  0  0  0  0  0  0  0  0  0  0  0
   14.5910   25.3198   -6.0535 C   0  0  0  0  0  0  0  0  0  0  0  0
   15.3577   25.9479   -5.0962 C   0  0  0  0  0  0  0  0  0  0  0  0
   16.7176   27.0049   -1.8482 C   0  0  0  0  0  0  0  0  0  0  0  0
   16.4941   25.8690   -0.9258 C   0  0  0  0  0  0  0  0  0  0  0  0
   17.3633   24.8122   -0.8838 C   0  0  0  0  0  0  0  0  0  0  0  0
   17.1297   23.7755   -0.0210 C   0  0  0  0  0  0  0  0  0  0  0  0
   16.0388   23.7716    0.8066 C   0  0  0  0  0  0  0  0  0  0  0  0
   15.1446   24.8384    0.7764 C   0  0  0  0  0  0  0  0  0  0  0  0
   15.3813   25.8615   -0.0798 C   0  0  0  0  0  0  0  0  0  0  0  0
    9.6600   21.1819    0.4169 C   0  0  0  0  0  0  0  0  0  0  0  0
   10.6760   21.8108    1.1230 C   0  0  0  0  0  0  0  0  0  0  0  0
   10.8468   21.5227    3.0003 Br  0  0  0  0  0  0  0  0  0  0  0  0
   11.6390   22.5405    0.4415 C   0  0  0  0  0  0  0  0  0  0  0  0
   11.6041   22.6462   -0.9315 C   0  0  0  0  0  0  0  0  0  0  0  0
   10.5994   22.0185   -1.6351 C   0  0  0  0  0  0  0  0  0  0  0  0
    9.6155   21.2797   -0.9815 C   0  0  0  0  0  0  0  0  0  0  0  0
    8.2529   20.3992   -1.9859 Br  0  0  0  0  0  0  0  0  0  0  0  0
    8.7117   20.4882    1.0816 O   0  0  0  0  0  0  0  0  0  0  0  0
    7.5248   20.9055    1.6005 C   0  0  0  0  0  0  0  0  0  0  0  0
    6.0250   19.0478    2.2990 O   0  0  0  0  0  0  0  0  0  0  0  0
    6.2933   20.1161    1.3951 C   0  0  0  0  0  0  0  0  0  0  0  0
    5.4596   20.2752    0.5225 O   0  0  0  0  0  0  0  0  0  0  0  0
    5.0834   19.0612    2.7309 H   0  0  0  0  0  0  0  0  0  0  0  0
    7.1824   22.3376    1.3188 C   0  0  0  0  0  0  0  0  0  0  0  0
    7.6667   23.1960    2.4019 C   0  0  0  0  0  0  0  0  0  0  0  0
    8.4171   24.3368    2.0877 C   0  0  0  0  0  0  0  0  0  0  0  0
    8.8850   25.1603    3.0854 C   0  0  0  0  0  0  0  0  0  0  0  0
    8.6010   24.8402    4.3792 C   0  0  0  0  0  0  0  0  0  0  0  0
    7.8588   23.7141    4.7047 C   0  0  0  0  0  0  0  0  0  0  0  0
    7.3995   22.9030    3.7063 C   0  0  0  0  0  0  0  0  0  0  0  0
 33 34  1  0  0  0
 34 35  2  0  0  0
 34 32  1  0  0  0
 32 37  1  0  0  0
 37 38  1  0  0  0
 38 39  2  0  0  0
 39 40  1  0  0  0
 40 41  2  0  0  0
 41 42  1  0  0  0
 42 43  2  0  0  0
 32 31  1  0  0  0
 31 23  1  0  0  0
 23 24  2  0  0  0
 24 25  1  0  0  0
 24 26  1  0  0  0
 26 27  2  0  0  0
 27 28  1  0  0  0
 28 29  2  0  0  0
 29 30  1  0  0  0
 27  1  1  0  0  0
  1  2  2  0  0  0
  2  3  1  0  0  0
  3  4  2  0  0  0
  4  5  1  0  0  0
  5  6  2  0  0  0
  4  7  1  0  0  0
  7  8  2  0  0  0
  8 16  1  0  0  0
 16 17  1  0  0  0
 17 18  2  0  0  0
 18 19  1  0  0  0
 19 20  2  0  0  0
 20 21  1  0  0  0
 21 22  2  0  0  0
  8  9  1  0  0  0
  9 10  1  0  0  0
 10 11  2  0  0  0
 11 12  1  0  0  0
 12 13  2  0  0  0
 13 14  1  0  0  0
 14 15  2  0  0  0
 43 38  1  0  0  0
 29 23  1  0  0  0
  6  1  1  0  0  0
 15  7  1  0  0  0
 22 17  1  0  0  0
 15 10  1  0  0  0
 33 36  1  0  0  0
M  END
> <minimizedAffinity>
-4.00953

> <CNNscore>
0.2202900499

> <CNNaffinity>
7.5863442421

> <CNN_VS>
1.6711961031

> <CNNaffinity_variance>
0.1867256612

$$$$
[H]OC(=O)c1c([H])c([H])c(C(=O)N2C([H])([H])C([H])([H])N(c3c([H])c([H])c(Cl)c([H])c3[H])C([H])([H])C2([H])[H])c([H])c1[H]


 25 27  0  0  0  0  0  0  0  0999 V2000
   13.5650   23.5504   -1.5034 C   0  0  0  0  0  0  0  0  0  0  0  0
   14.5337   22.8884   -0.9035 O   0  0  0  0  0  0  0  0  0  0  0  0
   12.3345   23.3496   -0.8885 N   0  0  0  0  0  0  0  0  0  0  0  0
   12.3113   22.4419    0.2842 C   0  0  0  0  0  0  0  0  0  0  0  0
   11.6741   23.1925    1.4300 C   0  0  0  0  0  0  0  0  0  0  0  0
   10.3075   23.6000    1.0434 N   0  0  0  0  0  0  0  0  0  0  0  0
    9.9233   23.5907   -0.3361 C   0  0  0  0  0  0  0  0  0  0  0  0
   11.0994   23.9317   -1.2568 C   0  0  0  0  0  0  0  0  0  0  0  0
    9.4351   23.9881    2.0788 C   0  0  0  0  0  0  0  0  0  0  0  0
    8.3090   23.2232    2.4165 C   0  0  0  0  0  0  0  0  0  0  0  0
    7.4471   23.5910    3.4206 C   0  0  0  0  0  0  0  0  0  0  0  0
    7.6734   24.7436    4.1341 C   0  0  0  0  0  0  0  0  0  0  0  0
    6.5962   25.2454    5.4220 Cl  0  0  0  0  0  0  0  0  0  0  0  0
    8.7715   25.5364    3.8415 C   0  0  0  0  0  0  0  0  0  0  0  0
    9.6164   25.1387    2.8280 C   0  0  0  0  0  0  0  0  0  0  0  0
   14.8685   25.8857   -4.7750 C   0  0  0  0  0  0  0  0  0  0  0  0
   13.8830   26.3365   -3.9394 C   0  0  0  0  0  0  0  0  0  0  0  0
   13.4630   25.5788   -2.8905 C   0  0  0  0  0  0  0  0  0  0  0  0
   14.0315   24.3077   -2.6353 C   0  0  0  0  0  0  0  0  0  0  0  0
   15.0166   23.8596   -3.4717 C   0  0  0  0  0  0  0  0  0  0  0  0
   15.4245   24.6615   -4.5389 C   0  0  0  0  0  0  0  0  0  0  0  0
   15.6094   28.0591   -5.6372 O   0  0  0  0  0  0  0  0  0  0  0  0
   15.2930   26.7329   -5.8950 C   0  0  0  0  0  0  0  0  0  0  0  0
   15.3691   26.2776   -7.0513 O   0  0  0  0  0  0  0  0  0  0  0  0
   14.9117   28.7973   -5.6922 H   0  0  0  0  0  0  0  0  0  0  0  0
 22 23  1  0  0  0
 23 24  2  0  0  0
 23 16  1  0  0  0
 16 17  2  0  0  0
 17 18  1  0  0  0
 18 19  2  0  0  0
 19 20  1  0  0  0
 20 21  2  0  0  0
 19  1  1  0  0  0
  1  2  2  0  0  0
  1  3  1  0  0  0
  3  4  1  0  0  0
  4  5  1  0  0  0
  5  6  1  0  0  0
  6  7  1  0  0  0
  7  8  1  0  0  0
  6  9  1  0  0  0
  9 10  2  0  0  0
 10 11  1  0  0  0
 11 12  2  0  0  0
 12 13  1  0  0  0
 12 14  1  0  0  0
 14 15  2  0  0  0
 21 16  1  0  0  0
  8  3  1  0  0  0
 15  9  1  0  0  0
 22 25  1  0  0  0
M  END
> <minimizedAffinity>
-9.44077

> <CNNscore>
0.6000884771

> <CNNaffinity>
6.1342792511

> <CNN_VS>
3.6811103821

> <CNNaffinity_variance>
0.2357348204

$$$$
[H]OC(=O)c1c([H])c([H])c(C(=O)N2C([H])([H])C([H])([H])N(c3c([H])c([H])c(Cl)c([H])c3[H])C([H])([H])C2([H])[H])c([H])c1[H]


 25 27  0  0  0  0  0  0  0  0999 V2000
   11.8509   22.7023    1.1689 C   0  0  0  0  0  0  0  0  0  0  0  0
   12.7951   21.9846    1.7434 O   0  0  0  0  0  0  0  0  0  0  0  0
   12.3741   23.7024    0.3575 N   0  0  0  0  0  0  0  0  0  0  0  0
   13.8521   23.8066    0.2902 C   0  0  0  0  0  0  0  0  0  0  0  0
   14.2475   23.7551   -1.1670 C   0  0  0  0  0  0  0  0  0  0  0  0
   13.6005   24.8723   -1.8856 N   0  0  0  0  0  0  0  0  0  0  0  0
   12.4964   25.5611   -1.2881 C   0  0  0  0  0  0  0  0  0  0  0  0
   11.6430   24.6270   -0.4240 C   0  0  0  0  0  0  0  0  0  0  0  0
   14.1162   25.2061   -3.1530 C   0  0  0  0  0  0  0  0  0  0  0  0
   15.0648   24.3980   -3.7967 C   0  0  0  0  0  0  0  0  0  0  0  0
   15.5798   24.7127   -5.0304 C   0  0  0  0  0  0  0  0  0  0  0  0
   15.1680   25.8531   -5.6775 C   0  0  0  0  0  0  0  0  0  0  0  0
   15.8024   26.2877   -7.2523 Cl  0  0  0  0  0  0  0  0  0  0  0  0
   14.2327   26.6871   -5.0863 C   0  0  0  0  0  0  0  0  0  0  0  0
   13.7361   26.3421   -3.8479 C   0  0  0  0  0  0  0  0  0  0  0  0
    7.9786   21.4882    2.3465 C   0  0  0  0  0  0  0  0  0  0  0  0
    8.8438   22.0458    3.2483 C   0  0  0  0  0  0  0  0  0  0  0  0
   10.0914   22.4303    2.8656 C   0  0  0  0  0  0  0  0  0  0  0  0
   10.5276   22.2649    1.5291 C   0  0  0  0  0  0  0  0  0  0  0  0
    9.6607   21.7077    0.6297 C   0  0  0  0  0  0  0  0  0  0  0  0
    8.3878   21.3238    1.0547 C   0  0  0  0  0  0  0  0  0  0  0  0
    6.2488   19.7693    2.6105 O   0  0  0  0  0  0  0  0  0  0  0  0
    6.6421   21.0866    2.7991 C   0  0  0  0  0  0  0  0  0  0  0  0
    5.8750   21.9046    3.3401 O   0  0  0  0  0  0  0  0  0  0  0  0
    5.7612   19.4705    1.7693 H   0  0  0  0  0  0  0  0  0  0  0  0
 22 23  1  0  0  0
 23 24  2  0  0  0
 23 16  1  0  0  0
 16 17  2  0  0  0
 17 18  1  0  0  0
 18 19  2  0  0  0
 19 20  1  0  0  0
 20 21  2  0  0  0
 19  1  1  0  0  0
  1  2  2  0  0  0
  1  3  1  0  0  0
  3  4  1  0  0  0
  4  5  1  0  0  0
  5  6  1  0  0  0
  6  7  1  0  0  0
  7  8  1  0  0  0
  6  9  1  0  0  0
  9 10  2  0  0  0
 10 11  1  0  0  0
 11 12  2  0  0  0
 12 13  1  0  0  0
 12 14  1  0  0  0
 14 15  2  0  0  0
 21 16  1  0  0  0
  8  3  1  0  0  0
 15  9  1  0  0  0
 22 25  1  0  0  0
M  END
> <minimizedAffinity>
-9.02332

> <CNNscore>
0.5987073183

> <CNNaffinity>
6.1854262352

> <CNN_VS>
3.7032599449

> <CNNaffinity_variance>
0.1679112613

$$$$
[H]OC(=O)c1c([H])c([H])c(C(=O)N2C([H])([H])C([H])([H])N(c3c([H])c([H])c(Cl)c([H])c3[H])C([H])([H])C2([H])[H])c([H])c1[H]


 25 27  0  0  0  0  0  0  0  0999 V2000
   12.1445   22.3021    1.3113 C   0  0  0  0  0  0  0  0  0  0  0  0
   13.0328   21.3946    1.6632 O   0  0  0  0  0  0  0  0  0  0  0  0
   12.7100   23.3234    0.5566 N   0  0  0  0  0  0  0  0  0  0  0  0
   14.1681   23.2379    0.2987 C   0  0  0  0  0  0  0  0  0  0  0  0
   14.3736   23.3301   -1.1952 C   0  0  0  0  0  0  0  0  0  0  0  0
   13.8193   24.6097   -1.6837 N   0  0  0  0  0  0  0  0  0  0  0  0
   12.9103   25.3529   -0.8640 C   0  0  0  0  0  0  0  0  0  0  0  0
   12.0369   24.4334   -0.0044 C   0  0  0  0  0  0  0  0  0  0  0  0
   14.2232   25.0388   -2.9628 C   0  0  0  0  0  0  0  0  0  0  0  0
   13.6927   26.1962   -3.5513 C   0  0  0  0  0  0  0  0  0  0  0  0
   14.0736   26.6247   -4.7994 C   0  0  0  0  0  0  0  0  0  0  0  0
   15.0050   25.9129   -5.5169 C   0  0  0  0  0  0  0  0  0  0  0  0
   15.5158   26.4284   -7.1120 Cl  0  0  0  0  0  0  0  0  0  0  0  0
   15.5610   24.7619   -4.9823 C   0  0  0  0  0  0  0  0  0  0  0  0
   15.1568   24.3596   -3.7277 C   0  0  0  0  0  0  0  0  0  0  0  0
    8.2292   21.3829    2.6083 C   0  0  0  0  0  0  0  0  0  0  0  0
    8.5128   21.5227    1.2768 C   0  0  0  0  0  0  0  0  0  0  0  0
    9.7737   21.8239    0.8644 C   0  0  0  0  0  0  0  0  0  0  0  0
   10.8235   22.0004    1.7975 C   0  0  0  0  0  0  0  0  0  0  0  0
   10.5375   21.8597    3.1277 C   0  0  0  0  0  0  0  0  0  0  0  0
    9.2334   21.5505    3.5176 C   0  0  0  0  0  0  0  0  0  0  0  0
    6.5715   19.7550    3.3944 O   0  0  0  0  0  0  0  0  0  0  0  0
    6.8568   21.0580    3.0120 C   0  0  0  0  0  0  0  0  0  0  0  0
    5.9653   21.9272    3.0131 O   0  0  0  0  0  0  0  0  0  0  0  0
    6.2552   19.0569    2.7256 H   0  0  0  0  0  0  0  0  0  0  0  0
 22 23  1  0  0  0
 23 24  2  0  0  0
 23 16  1  0  0  0
 16 17  2  0  0  0
 17 18  1  0  0  0
 18 19  2  0  0  0
 19 20  1  0  0  0
 20 21  2  0  0  0
 19  1  1  0  0  0
  1  2  2  0  0  0
  1  3  1  0  0  0
  3  4  1  0  0  0
  4  5  1  0  0  0
  5  6  1  0  0  0
  6  7  1  0  0  0
  7  8  1  0  0  0
  6  9  1  0  0  0
  9 10  2  0  0  0
 10 11  1  0  0  0
 11 12  2  0  0  0
 12 13  1  0  0  0
 12 14  1  0  0  0
 14 15  2  0  0  0
 21 16  1  0  0  0
  8  3  1  0  0  0
 15  9  1  0  0  0
 22 25  1  0  0  0
M  END
> <minimizedAffinity>
-8.93427

> <CNNscore>
0.5043550134

> <CNNaffinity>
6.0934648514

> <CNN_VS>
3.0732696056

> <CNNaffinity_variance>
0.1873744428

$$$$
[H]OC(=O)c1c([H])c([H])c(C(=O)N2C([H])([H])C([H])([H])N(c3c([H])c([H])c(Cl)c([H])c3[H])C([H])([H])C2([H])[H])c([H])c1[H]


 25 27  0  0  0  0  0  0  0  0999 V2000
   13.6925   23.4323   -1.3215 C   0  0  0  0  0  0  0  0  0  0  0  0
   14.7719   23.0230   -0.6860 O   0  0  0  0  0  0  0  0  0  0  0  0
   12.5282   22.9234   -0.7578 N   0  0  0  0  0  0  0  0  0  0  0  0
   12.6870   22.0215    0.4089 C   0  0  0  0  0  0  0  0  0  0  0  0
   11.8400   22.5738    1.5314 C   0  0  0  0  0  0  0  0  0  0  0  0
   10.4307   22.6347    1.0918 N   0  0  0  0  0  0  0  0  0  0  0  0
   10.1136   22.5503   -0.3021 C   0  0  0  0  0  0  0  0  0  0  0  0
   11.2021   23.1859   -1.1730 C   0  0  0  0  0  0  0  0  0  0  0  0
    9.4505   22.7790    2.0929 C   0  0  0  0  0  0  0  0  0  0  0  0
    9.7531   23.3394    3.3426 C   0  0  0  0  0  0  0  0  0  0  0  0
    8.8091   23.4826    4.3298 C   0  0  0  0  0  0  0  0  0  0  0  0
    7.5164   23.0707    4.1109 C   0  0  0  0  0  0  0  0  0  0  0  0
    6.2846   23.2372    5.3462 Cl  0  0  0  0  0  0  0  0  0  0  0  0
    7.1635   22.5102    2.8939 C   0  0  0  0  0  0  0  0  0  0  0  0
    8.1348   22.3809    1.9249 C   0  0  0  0  0  0  0  0  0  0  0  0
   14.6679   25.8711   -4.6317 C   0  0  0  0  0  0  0  0  0  0  0  0
   15.3487   24.7085   -4.3918 C   0  0  0  0  0  0  0  0  0  0  0  0
   15.0345   23.9293   -3.3218 C   0  0  0  0  0  0  0  0  0  0  0  0
   13.9987   24.2981   -2.4302 C   0  0  0  0  0  0  0  0  0  0  0  0
   13.3196   25.4604   -2.6724 C   0  0  0  0  0  0  0  0  0  0  0  0
   13.6668   26.2371   -3.7790 C   0  0  0  0  0  0  0  0  0  0  0  0
   15.3948   28.0083   -5.5909 O   0  0  0  0  0  0  0  0  0  0  0  0
   15.0374   26.6833   -5.7962 C   0  0  0  0  0  0  0  0  0  0  0  0
   15.0321   26.2000   -6.9435 O   0  0  0  0  0  0  0  0  0  0  0  0
   14.7094   28.7593   -5.6204 H   0  0  0  0  0  0  0  0  0  0  0  0
 22 23  1  0  0  0
 23 24  2  0  0  0
 23 16  1  0  0  0
 16 17  2  0  0  0
 17 18  1  0  0  0
 18 19  2  0  0  0
 19 20  1  0  0  0
 20 21  2  0  0  0
 19  1  1  0  0  0
  1  2  2  0  0  0
  1  3  1  0  0  0
  3  4  1  0  0  0
  4  5  1  0  0  0
  5  6  1  0  0  0
  6  7  1  0  0  0
  7  8  1  0  0  0
  6  9  1  0  0  0
  9 10  2  0  0  0
 10 11  1  0  0  0
 11 12  2  0  0  0
 12 13  1  0  0  0
 12 14  1  0  0  0
 14 15  2  0  0  0
 21 16  1  0  0  0
  8  3  1  0  0  0
 15  9  1  0  0  0
 22 25  1  0  0  0
M  END
> <minimizedAffinity>
-8.90468

> <CNNscore>
0.4713465571

> <CNNaffinity>
6.0265402794

> <CNN_VS>
2.8405890465

> <CNNaffinity_variance>
0.3887824416

$$$$
[H]OC(=O)c1c([H])c([H])c(C(=O)N2C([H])([H])C([H])([H])N(c3c([H])c([H])c(Cl)c([H])c3[H])C([H])([H])C2([H])[H])c([H])c1[H]


 25 27  0  0  0  0  0  0  0  0999 V2000
   14.0634   24.2453   -2.3348 C   0  0  0  0  0  0  0  0  0  0  0  0
   15.3806   24.2412   -2.2971 O   0  0  0  0  0  0  0  0  0  0  0  0
   13.5188   23.1158   -1.7347 N   0  0  0  0  0  0  0  0  0  0  0  0
   14.4734   22.1200   -1.1897 C   0  0  0  0  0  0  0  0  0  0  0  0
   14.1073   21.8804    0.2562 C   0  0  0  0  0  0  0  0  0  0  0  0
   12.7178   21.3833    0.3295 N   0  0  0  0  0  0  0  0  0  0  0  0
   11.8443   21.5380   -0.7947 C   0  0  0  0  0  0  0  0  0  0  0  0
   12.1448   22.8206   -1.5769 C   0  0  0  0  0  0  0  0  0  0  0  0
   12.3164   20.7711    1.5327 C   0  0  0  0  0  0  0  0  0  0  0  0
   12.7272   19.4730    1.8696 C   0  0  0  0  0  0  0  0  0  0  0  0
   12.3406   18.8615    3.0370 C   0  0  0  0  0  0  0  0  0  0  0  0
   11.5235   19.5227    3.9225 C   0  0  0  0  0  0  0  0  0  0  0  0
   11.0094   18.7752    5.4218 Cl  0  0  0  0  0  0  0  0  0  0  0  0
   11.0884   20.8072    3.6388 C   0  0  0  0  0  0  0  0  0  0  0  0
   11.4947   21.3918    2.4588 C   0  0  0  0  0  0  0  0  0  0  0  0
   12.4313   27.7066   -4.1271 C   0  0  0  0  0  0  0  0  0  0  0  0
   11.8983   27.1949   -2.9752 C   0  0  0  0  0  0  0  0  0  0  0  0
   12.4239   26.0772   -2.4048 C   0  0  0  0  0  0  0  0  0  0  0  0
   13.5325   25.4150   -2.9847 C   0  0  0  0  0  0  0  0  0  0  0  0
   14.0637   25.9287   -4.1357 C   0  0  0  0  0  0  0  0  0  0  0  0
   13.5008   27.0768   -4.6955 C   0  0  0  0  0  0  0  0  0  0  0  0
   12.0485   30.1287   -4.0761 O   0  0  0  0  0  0  0  0  0  0  0  0
   11.8353   28.9133   -4.7108 C   0  0  0  0  0  0  0  0  0  0  0  0
   11.1535   28.8537   -5.7508 O   0  0  0  0  0  0  0  0  0  0  0  0
   11.4116   30.4818   -3.3658 H   0  0  0  0  0  0  0  0  0  0  0  0
 22 23  1  0  0  0
 23 24  2  0  0  0
 23 16  1  0  0  0
 16 17  2  0  0  0
 17 18  1  0  0  0
 18 19  2  0  0  0
 19 20  1  0  0  0
 20 21  2  0  0  0
 19  1  1  0  0  0
  1  2  2  0  0  0
  1  3  1  0  0  0
  3  4  1  0  0  0
  4  5  1  0  0  0
  5  6  1  0  0  0
  6  7  1  0  0  0
  7  8  1  0  0  0
  6  9  1  0  0  0
  9 10  2  0  0  0
 10 11  1  0  0  0
 11 12  2  0  0  0
 12 13  1  0  0  0
 12 14  1  0  0  0
 14 15  2  0  0  0
 21 16  1  0  0  0
  8  3  1  0  0  0
 15  9  1  0  0  0
 22 25  1  0  0  0
M  END
> <minimizedAffinity>
8.51537

> <CNNscore>
0.4240075648

> <CNNaffinity>
5.8311333656

> <CNN_VS>
2.4724447727

> <CNNaffinity_variance>
0.6152733564

$$$$
[H]OC(=O)c1c([H])c([H])c(C(=O)N2C([H])([H])C([H])([H])N(c3c([H])c([H])c(Cl)c([H])c3[H])C([H])([H])C2([H])[H])c([H])c1[H]


 25 27  0  0  0  0  0  0  0  0999 V2000
   13.0446   26.2878   -3.0211 C   0  0  0  0  0  0  0  0  0  0  0  0
   14.3516   26.4106   -3.1362 O   0  0  0  0  0  0  0  0  0  0  0  0
   12.6811   25.0746   -2.4479 N   0  0  0  0  0  0  0  0  0  0  0  0
   13.7807   24.1449   -2.0925 C   0  0  0  0  0  0  0  0  0  0  0  0
   13.6167   23.7795   -0.6358 C   0  0  0  0  0  0  0  0  0  0  0  0
   12.2969   23.1449   -0.4398 N   0  0  0  0  0  0  0  0  0  0  0  0
   11.2824   23.2839   -1.4409 C   0  0  0  0  0  0  0  0  0  0  0  0
   11.3687   24.6366   -2.1549 C   0  0  0  0  0  0  0  0  0  0  0  0
   12.1019   22.4215    0.7528 C   0  0  0  0  0  0  0  0  0  0  0  0
   12.7561   21.2034    0.9888 C   0  0  0  0  0  0  0  0  0  0  0  0
   12.5728   20.4847    2.1448 C   0  0  0  0  0  0  0  0  0  0  0  0
   11.7246   20.9534    3.1194 C   0  0  0  0  0  0  0  0  0  0  0  0
   11.4654   20.0645    4.6073 Cl  0  0  0  0  0  0  0  0  0  0  0  0
   11.0531   22.1516    2.9373 C   0  0  0  0  0  0  0  0  0  0  0  0
   11.2595   22.8478    1.7660 C   0  0  0  0  0  0  0  0  0  0  0  0
   11.0569   29.7476   -4.4120 C   0  0  0  0  0  0  0  0  0  0  0  0
   12.0103   29.8314   -3.4339 C   0  0  0  0  0  0  0  0  0  0  0  0
   12.6438   28.7140   -2.9856 C   0  0  0  0  0  0  0  0  0  0  0  0
   12.3355   27.4385   -3.5164 C   0  0  0  0  0  0  0  0  0  0  0  0
   11.3825   27.3575   -4.4943 C   0  0  0  0  0  0  0  0  0  0  0  0
   10.7512   28.5230   -4.9318 C   0  0  0  0  0  0  0  0  0  0  0  0
    9.1133   30.8827   -5.3867 O   0  0  0  0  0  0  0  0  0  0  0  0
   10.3968   30.9759   -4.8677 C   0  0  0  0  0  0  0  0  0  0  0  0
   10.9704   32.0785   -4.7929 O   0  0  0  0  0  0  0  0  0  0  0  0
    8.9454   30.7422   -6.3800 H   0  0  0  0  0  0  0  0  0  0  0  0
 22 23  1  0  0  0
 23 24  2  0  0  0
 23 16  1  0  0  0
 16 17  2  0  0  0
 17 18  1  0  0  0
 18 19  2  0  0  0
 19 20  1  0  0  0
 20 21  2  0  0  0
 19  1  1  0  0  0
  1  2  2  0  0  0
  1  3  1  0  0  0
  3  4  1  0  0  0
  4  5  1  0  0  0
  5  6  1  0  0  0
  6  7  1  0  0  0
  7  8  1  0  0  0
  6  9  1  0  0  0
  9 10  2  0  0  0
 10 11  1  0  0  0
 11 12  2  0  0  0
 12 13  1  0  0  0
 12 14  1  0  0  0
 14 15  2  0  0  0
 21 16  1  0  0  0
  8  3  1  0  0  0
 15  9  1  0  0  0
 22 25  1  0  0  0
M  END
> <minimizedAffinity>
13.59107

> <CNNscore>
0.4239559770

> <CNNaffinity>
5.6490259171

> <CNN_VS>
2.3949382305

> <CNNaffinity_variance>
0.9232781529

$$$$
[H]OC(=O)c1c([H])c([H])c(C(=O)N2C([H])([H])C([H])([H])N(c3c([H])c([H])c(Cl)c([H])c3[H])C([H])([H])C2([H])[H])c([H])c1[H]


 25 27  0  0  0  0  0  0  0  0999 V2000
   14.1855   24.4772   -1.2252 C   0  0  0  0  0  0  0  0  0  0  0  0
   14.5956   25.0579   -0.1156 O   0  0  0  0  0  0  0  0  0  0  0  0
   13.4286   23.3390   -0.9717 N   0  0  0  0  0  0  0  0  0  0  0  0
   13.2318   22.9679    0.4507 C   0  0  0  0  0  0  0  0  0  0  0  0
   11.7456   22.8331    0.6858 C   0  0  0  0  0  0  0  0  0  0  0  0
   11.2031   21.7963   -0.2163 N   0  0  0  0  0  0  0  0  0  0  0  0
   11.9665   21.3647   -1.3483 C   0  0  0  0  0  0  0  0  0  0  0  0
   12.8133   22.5011   -1.9305 C   0  0  0  0  0  0  0  0  0  0  0  0
    9.9308   21.2770    0.0924 C   0  0  0  0  0  0  0  0  0  0  0  0
    9.1641   21.7899    1.1490 C   0  0  0  0  0  0  0  0  0  0  0  0
    7.9240   21.2912    1.4645 C   0  0  0  0  0  0  0  0  0  0  0  0
    7.3933   20.2542    0.7352 C   0  0  0  0  0  0  0  0  0  0  0  0
    5.8143   19.5915    1.1078 Cl  0  0  0  0  0  0  0  0  0  0  0  0
    8.1086   19.7102   -0.3193 C   0  0  0  0  0  0  0  0  0  0  0  0
    9.3500   20.2338   -0.6093 C   0  0  0  0  0  0  0  0  0  0  0  0
   15.3572   26.5839   -4.6958 C   0  0  0  0  0  0  0  0  0  0  0  0
   14.0596   26.6125   -4.2621 C   0  0  0  0  0  0  0  0  0  0  0  0
   13.6860   25.9282   -3.1471 C   0  0  0  0  0  0  0  0  0  0  0  0
   14.6256   25.1707   -2.4074 C   0  0  0  0  0  0  0  0  0  0  0  0
   15.9220   25.1442   -2.8428 C   0  0  0  0  0  0  0  0  0  0  0  0
   16.2724   25.8570   -3.9906 C   0  0  0  0  0  0  0  0  0  0  0  0
   16.1044   26.6258   -7.0316 O   0  0  0  0  0  0  0  0  0  0  0  0
   15.7194   27.3350   -5.9028 C   0  0  0  0  0  0  0  0  0  0  0  0
   15.6840   28.5795   -5.9191 O   0  0  0  0  0  0  0  0  0  0  0  0
   17.0775   26.3896   -7.2105 H   0  0  0  0  0  0  0  0  0  0  0  0
 22 23  1  0  0  0
 23 24  2  0  0  0
 23 16  1  0  0  0
 16 17  2  0  0  0
 17 18  1  0  0  0
 18 19  2  0  0  0
 19 20  1  0  0  0
 20 21  2  0  0  0
 19  1  1  0  0  0
  1  2  2  0  0  0
  1  3  1  0  0  0
  3  4  1  0  0  0
  4  5  1  0  0  0
  5  6  1  0  0  0
  6  7  1  0  0  0
  7  8  1  0  0  0
  6  9  1  0  0  0
  9 10  2  0  0  0
 10 11  1  0  0  0
 11 12  2  0  0  0
 12 13  1  0  0  0
 12 14  1  0  0  0
 14 15  2  0  0  0
 21 16  1  0  0  0
  8  3  1  0  0  0
 15  9  1  0  0  0
 22 25  1  0  0  0
M  END
> <minimizedAffinity>
-6.88670

> <CNNscore>
0.4005905092

> <CNNaffinity>
6.1844906807

> <CNN_VS>
2.4774482250

> <CNNaffinity_variance>
0.4285916686

$$$$
[H]OC(=O)c1c([H])c([H])c(C(=O)N2C([H])([H])C([H])([H])N(c3c([H])c([H])c(Cl)c([H])c3[H])C([H])([H])C2([H])[H])c([H])c1[H]


 25 27  0  0  0  0  0  0  0  0999 V2000
   14.8462   25.8041   -3.6929 C   0  0  0  0  0  0  0  0  0  0  0  0
   15.3249   25.2512   -4.7891 O   0  0  0  0  0  0  0  0  0  0  0  0
   13.9320   26.8134   -3.9717 N   0  0  0  0  0  0  0  0  0  0  0  0
   13.6708   27.1051   -5.4023 C   0  0  0  0  0  0  0  0  0  0  0  0
   12.1785   27.0184   -5.6208 C   0  0  0  0  0  0  0  0  0  0  0  0
   11.5016   27.9967   -4.7445 N   0  0  0  0  0  0  0  0  0  0  0  0
   12.2059   28.5703   -3.6375 C   0  0  0  0  0  0  0  0  0  0  0  0
   13.2119   27.5864   -3.0314 C   0  0  0  0  0  0  0  0  0  0  0  0
   10.1653   28.3184   -5.0517 C   0  0  0  0  0  0  0  0  0  0  0  0
    9.3176   27.4031   -5.6926 C   0  0  0  0  0  0  0  0  0  0  0  0
    8.0138   27.7040   -6.0023 C   0  0  0  0  0  0  0  0  0  0  0  0
    7.4978   28.9374   -5.6839 C   0  0  0  0  0  0  0  0  0  0  0  0
    5.8392   29.3576   -6.0630 Cl  0  0  0  0  0  0  0  0  0  0  0  0
    8.2921   29.8792   -5.0501 C   0  0  0  0  0  0  0  0  0  0  0  0
    9.5959   29.5452   -4.7536 C   0  0  0  0  0  0  0  0  0  0  0  0
   16.3726   23.9755   -0.2025 C   0  0  0  0  0  0  0  0  0  0  0  0
   15.2872   23.4525   -0.8515 C   0  0  0  0  0  0  0  0  0  0  0  0
   14.7962   24.0478   -1.9719 C   0  0  0  0  0  0  0  0  0  0  0  0
   15.3920   25.2203   -2.4955 C   0  0  0  0  0  0  0  0  0  0  0  0
   16.4770   25.7407   -1.8453 C   0  0  0  0  0  0  0  0  0  0  0  0
   16.9559   25.1058   -0.6982 C   0  0  0  0  0  0  0  0  0  0  0  0
   18.0858   23.7149    1.5333 O   0  0  0  0  0  0  0  0  0  0  0  0
   16.8714   23.3038    1.0026 C   0  0  0  0  0  0  0  0  0  0  0  0
   16.2242   22.3861    1.5402 O   0  0  0  0  0  0  0  0  0  0  0  0
   18.9653   23.2863    1.2549 H   0  0  0  0  0  0  0  0  0  0  0  0
 22 23  1  0  0  0
 23 24  2  0  0  0
 23 16  1  0  0  0
 16 17  2  0  0  0
 17 18  1  0  0  0
 18 19  2  0  0  0
 19 20  1  0  0  0
 20 21  2  0  0  0
 19  1  1  0  0  0
  1  2  2  0  0  0
  1  3  1  0  0  0
  3  4  1  0  0  0
  4  5  1  0  0  0
  5  6  1  0  0  0
  6  7  1  0  0  0
  7  8  1  0  0  0
  6  9  1  0  0  0
  9 10  2  0  0  0
 10 11  1  0  0  0
 11 12  2  0  0  0
 12 13  1  0  0  0
 12 14  1  0  0  0
 14 15  2  0  0  0
 21 16  1  0  0  0
  8  3  1  0  0  0
 15  9  1  0  0  0
 22 25  1  0  0  0
M  END
> <minimizedAffinity>
23.12693

> <CNNscore>
0.3628502786

> <CNNaffinity>
5.4951596260

> <CNN_VS>
1.9939202070

> <CNNaffinity_variance>
0.6556175947

$$$$
[H]OC(=O)c1c([H])c([H])c(C(=O)N2C([H])([H])C([H])([H])N(c3c([H])c([H])c(Cl)c([H])c3[H])C([H])([H])C2([H])[H])c([H])c1[H]


 25 27  0  0  0  0  0  0  0  0999 V2000
   14.2418   24.2139   -1.4549 C   0  0  0  0  0  0  0  0  0  0  0  0
   14.8747   24.8894   -0.5170 O   0  0  0  0  0  0  0  0  0  0  0  0
   13.4102   23.2345   -0.9242 N   0  0  0  0  0  0  0  0  0  0  0  0
   13.3882   23.1021    0.5529 C   0  0  0  0  0  0  0  0  0  0  0  0
   11.9481   23.2004    0.9986 C   0  0  0  0  0  0  0  0  0  0  0  0
   11.1658   22.1251    0.3546 N   0  0  0  0  0  0  0  0  0  0  0  0
   11.6992   21.4375   -0.7826 C   0  0  0  0  0  0  0  0  0  0  0  0
   12.5698   22.3558   -1.6463 C   0  0  0  0  0  0  0  0  0  0  0  0
    9.9043   21.8288    0.9065 C   0  0  0  0  0  0  0  0  0  0  0  0
    8.8455   21.3641    0.1126 C   0  0  0  0  0  0  0  0  0  0  0  0
    7.6089   21.0751    0.6357 C   0  0  0  0  0  0  0  0  0  0  0  0
    7.3751   21.2383    1.9802 C   0  0  0  0  0  0  0  0  0  0  0  0
    5.8107   20.8799    2.6840 Cl  0  0  0  0  0  0  0  0  0  0  0  0
    8.3866   21.6946    2.8100 C   0  0  0  0  0  0  0  0  0  0  0  0
    9.6154   21.9754    2.2530 C   0  0  0  0  0  0  0  0  0  0  0  0
   15.1627   25.6626   -5.3162 C   0  0  0  0  0  0  0  0  0  0  0  0
   14.3104   26.3485   -4.4941 C   0  0  0  0  0  0  0  0  0  0  0  0
   14.0128   25.8754   -3.2538 C   0  0  0  0  0  0  0  0  0  0  0  0
   14.5744   24.6651   -2.7809 C   0  0  0  0  0  0  0  0  0  0  0  0
   15.4263   23.9817   -3.6044 C   0  0  0  0  0  0  0  0  0  0  0  0
   15.7107   24.4943   -4.8711 C   0  0  0  0  0  0  0  0  0  0  0  0
   15.3587   25.3611   -7.7425 O   0  0  0  0  0  0  0  0  0  0  0  0
   15.4577   26.2063   -6.6464 C   0  0  0  0  0  0  0  0  0  0  0  0
   15.7896   27.3973   -6.7939 O   0  0  0  0  0  0  0  0  0  0  0  0
   16.1544   24.8243   -8.0793 H   0  0  0  0  0  0  0  0  0  0  0  0
 22 23  1  0  0  0
 23 24  2  0  0  0
 23 16  1  0  0  0
 16 17  2  0  0  0
 17 18  1  0  0  0
 18 19  2  0  0  0
 19 20  1  0  0  0
 20 21  2  0  0  0
 19  1  1  0  0  0
  1  2  2  0  0  0
  1  3  1  0  0  0
  3  4  1  0  0  0
  4  5  1  0  0  0
  5  6  1  0  0  0
  6  7  1  0  0  0
  7  8  1  0  0  0
  6  9  1  0  0  0
  9 10  2  0  0  0
 10 11  1  0  0  0
 11 12  2  0  0  0
 12 13  1  0  0  0
 12 14  1  0  0  0
 14 15  2  0  0  0
 21 16  1  0  0  0
  8  3  1  0  0  0
 15  9  1  0  0  0
 22 25  1  0  0  0
M  END
> <minimizedAffinity>
-8.19018

> <CNNscore>
0.2962332964

> <CNNaffinity>
5.9706234932

> <CNN_VS>
1.7686975002

> <CNNaffinity_variance>
0.2989315093

$$$$
[H]O[C@]1([H])[C@]([H])(c2c([H])c([H])c(C#N)c([H])c2[H])[C@]([H])(c2c([H])c([H])c(C#N)c([H])c2[H])[C@@]([H])(c2c([H])c([H])c(C(F)(F)F)c([H])c2[H])[C@@]1([H])O[H]


 35 38  0  0  0  0  0  0  0  0999 V2000
   13.3325   25.4308   -2.2224 C   0  0  0  0  0  0  0  0  0  0  0  0
   13.6455   24.1019   -1.6249 C   0  0  0  0  0  0  0  0  0  0  0  0
   12.3168   23.6570   -1.0880 C   0  0  0  0  0  0  0  0  0  0  0  0
   11.4298   24.8391   -0.9677 C   0  0  0  0  0  0  0  0  0  0  0  0
   11.6803   25.7164    0.0346 O   0  0  0  0  0  0  0  0  0  0  0  0
   11.7959   25.5479   -2.2926 C   0  0  0  0  0  0  0  0  0  0  0  0
   11.2780   24.8210   -3.3285 O   0  0  0  0  0  0  0  0  0  0  0  0
   12.0314   26.6048   -0.2440 H   0  0  0  0  0  0  0  0  0  0  0  0
   11.3003   25.2609   -4.1831 H   0  0  0  0  0  0  0  0  0  0  0  0
   14.1787   26.8996   -5.6202 C   0  0  0  0  0  0  0  0  0  0  0  0
   15.0514   25.9660   -6.1505 C   0  0  0  0  0  0  0  0  0  0  0  0
   15.3462   24.8669   -5.3747 C   0  0  0  0  0  0  0  0  0  0  0  0
   14.7923   24.7215   -4.1319 C   0  0  0  0  0  0  0  0  0  0  0  0
   13.9081   25.6507   -3.5759 C   0  0  0  0  0  0  0  0  0  0  0  0
   13.6225   26.7480   -4.3645 C   0  0  0  0  0  0  0  0  0  0  0  0
   15.6635   26.1175   -7.4999 C   0  0  0  0  0  0  0  0  0  0  0  0
   16.6299   25.1987   -7.7423 F   0  0  0  0  0  0  0  0  0  0  0  0
   16.1486   27.4099   -7.5994 F   0  0  0  0  0  0  0  0  0  0  0  0
   14.6461   25.9900   -8.4246 F   0  0  0  0  0  0  0  0  0  0  0  0
   14.7895   24.0029   -0.7536 C   0  0  0  0  0  0  0  0  0  0  0  0
   15.6587   25.0867   -0.5554 C   0  0  0  0  0  0  0  0  0  0  0  0
   16.7451   25.0308    0.2806 C   0  0  0  0  0  0  0  0  0  0  0  0
   16.9865   23.8515    0.9606 C   0  0  0  0  0  0  0  0  0  0  0  0
   16.1627   22.7453    0.8086 C   0  0  0  0  0  0  0  0  0  0  0  0
   15.0714   22.8565   -0.0576 C   0  0  0  0  0  0  0  0  0  0  0  0
   18.1263   23.8014    1.8242 C   0  0  0  0  0  0  0  0  0  0  0  0
   19.0430   23.7666    2.5234 N   0  0  0  0  0  0  0  0  0  0  0  0
   12.3562   22.7011    0.0072 C   0  0  0  0  0  0  0  0  0  0  0  0
   12.2137   22.9983    1.3540 C   0  0  0  0  0  0  0  0  0  0  0  0
   12.2642   22.0503    2.3612 C   0  0  0  0  0  0  0  0  0  0  0  0
   12.4608   20.7202    2.0286 C   0  0  0  0  0  0  0  0  0  0  0  0
   12.6076   20.3688    0.6959 C   0  0  0  0  0  0  0  0  0  0  0  0
   12.5513   21.3361   -0.2457 C   0  0  0  0  0  0  0  0  0  0  0  0
   12.5151   19.6651    3.0000 C   0  0  0  0  0  0  0  0  0  0  0  0
   12.5440   18.8200    3.8030 N   0  0  0  0  0  0  0  0  0  0  0  0
 10 11  2  0  0  0
 11 16  1  0  0  0
 16 17  1  0  0  0
 16 18  1  0  0  0
 16 19  1  0  0  0
 11 12  1  0  0  0
 12 13  2  0  0  0
 13 14  1  0  0  0
 14  1  1  0  0  0
  1  2  1  0  0  0
  2 20  1  0  0  0
 20 21  2  0  0  0
 21 22  1  0  0  0
 22 23  2  0  0  0
 23 26  1  0  0  0
 26 27  3  0  0  0
 23 24  1  0  0  0
 24 25  2  0  0  0
  2  3  1  0  0  0
  3 28  1  0  0  0
 28 29  2  0  0  0
 29 30  1  0  0  0
 30 31  2  0  0  0
 31 34  1  0  0  0
 34 35  3  0  0  0
 31 32  1  0  0  0
 32 33  2  0  0  0
  3  4  1  0  0  0
  4  5  1  0  0  0
  4  6  1  0  0  0
  6  7  1  0  0  0
 14 15  2  0  0  0
 15 10  1  0  0  0
  6  1  1  0  0  0
 25 20  1  0  0  0
 33 28  1  0  0  0
  5  8  1  0  0  0
  7  9  1  0  0  0
M  END
> <minimizedAffinity>
0.90272

> <CNNscore>
0.4998486340

> <CNNaffinity>
7.5367608070

> <CNN_VS>
3.7672395706

> <CNNaffinity_variance>
1.0952137709

$$$$
[H]O[C@]1([H])[C@]([H])(c2c([H])c([H])c(C#N)c([H])c2[H])[C@]([H])(c2c([H])c([H])c(C#N)c([H])c2[H])[C@@]([H])(c2c([H])c([H])c(C(F)(F)F)c([H])c2[H])[C@@]1([H])O[H]


 35 38  0  0  0  0  0  0  0  0999 V2000
   13.3860   25.0858   -1.2553 C   0  0  0  0  0  0  0  0  0  0  0  0
   12.8841   23.7372   -1.6431 C   0  0  0  0  0  0  0  0  0  0  0  0
   11.4295   23.8068   -1.2814 C   0  0  0  0  0  0  0  0  0  0  0  0
   11.2263   24.9264   -0.3309 C   0  0  0  0  0  0  0  0  0  0  0  0
   11.6620   24.7607    0.9418 O   0  0  0  0  0  0  0  0  0  0  0  0
   12.1516   25.9733   -0.9940 C   0  0  0  0  0  0  0  0  0  0  0  0
   11.5686   26.3882   -2.1592 O   0  0  0  0  0  0  0  0  0  0  0  0
   12.4491   25.3091    1.2059 H   0  0  0  0  0  0  0  0  0  0  0  0
   11.9754   27.1600   -2.5633 H   0  0  0  0  0  0  0  0  0  0  0  0
   16.3900   26.4816   -3.1119 C   0  0  0  0  0  0  0  0  0  0  0  0
   15.8250   27.0075   -4.2603 C   0  0  0  0  0  0  0  0  0  0  0  0
   14.4601   26.8905   -4.4017 C   0  0  0  0  0  0  0  0  0  0  0  0
   13.7092   26.2740   -3.4380 C   0  0  0  0  0  0  0  0  0  0  0  0
   14.2575   25.7360   -2.2699 C   0  0  0  0  0  0  0  0  0  0  0  0
   15.6271   25.8597   -2.1421 C   0  0  0  0  0  0  0  0  0  0  0  0
   16.6340   27.6758   -5.3174 C   0  0  0  0  0  0  0  0  0  0  0  0
   16.7330   26.9345   -6.4476 F   0  0  0  0  0  0  0  0  0  0  0  0
   17.8775   27.9590   -4.7797 F   0  0  0  0  0  0  0  0  0  0  0  0
   16.0235   28.8828   -5.5944 F   0  0  0  0  0  0  0  0  0  0  0  0
   13.6308   22.5845   -1.2058 C   0  0  0  0  0  0  0  0  0  0  0  0
   14.4448   22.6257   -0.0633 C   0  0  0  0  0  0  0  0  0  0  0  0
   15.1535   21.5418    0.3894 C   0  0  0  0  0  0  0  0  0  0  0  0
   15.0530   20.3554   -0.3132 C   0  0  0  0  0  0  0  0  0  0  0  0
   14.2632   20.2502   -1.4493 C   0  0  0  0  0  0  0  0  0  0  0  0
   13.5645   21.3863   -1.8676 C   0  0  0  0  0  0  0  0  0  0  0  0
   15.8019   19.2331    0.1632 C   0  0  0  0  0  0  0  0  0  0  0  0
   16.4002   18.3244    0.5466 N   0  0  0  0  0  0  0  0  0  0  0  0
   10.7752   22.5364   -1.0116 C   0  0  0  0  0  0  0  0  0  0  0  0
   10.7974   21.8474    0.1915 C   0  0  0  0  0  0  0  0  0  0  0  0
   10.1610   20.6355    0.3965 C   0  0  0  0  0  0  0  0  0  0  0  0
    9.4490   20.0612   -0.6435 C   0  0  0  0  0  0  0  0  0  0  0  0
    9.3937   20.7097   -1.8672 C   0  0  0  0  0  0  0  0  0  0  0  0
   10.0351   21.8901   -2.0116 C   0  0  0  0  0  0  0  0  0  0  0  0
    8.7467   18.8153   -0.5237 C   0  0  0  0  0  0  0  0  0  0  0  0
    8.1670   17.8063   -0.4480 N   0  0  0  0  0  0  0  0  0  0  0  0
 10 11  2  0  0  0
 11 16  1  0  0  0
 16 17  1  0  0  0
 16 18  1  0  0  0
 16 19  1  0  0  0
 11 12  1  0  0  0
 12 13  2  0  0  0
 13 14  1  0  0  0
 14  1  1  0  0  0
  1  2  1  0  0  0
  2 20  1  0  0  0
 20 21  2  0  0  0
 21 22  1  0  0  0
 22 23  2  0  0  0
 23 26  1  0  0  0
 26 27  3  0  0  0
 23 24  1  0  0  0
 24 25  2  0  0  0
  2  3  1  0  0  0
  3 28  1  0  0  0
 28 29  2  0  0  0
 29 30  1  0  0  0
 30 31  2  0  0  0
 31 34  1  0  0  0
 34 35  3  0  0  0
 31 32  1  0  0  0
 32 33  2  0  0  0
  3  4  1  0  0  0
  4  5  1  0  0  0
  4  6  1  0  0  0
  6  7  1  0  0  0
 14 15  2  0  0  0
 15 10  1  0  0  0
  6  1  1  0  0  0
 25 20  1  0  0  0
 33 28  1  0  0  0
  5  8  1  0  0  0
  7  9  1  0  0  0
M  END
> <minimizedAffinity>
2.19269

> <CNNscore>
0.4631852508

> <CNNaffinity>
7.3720407486

> <CNN_VS>
3.4146206379

> <CNNaffinity_variance>
0.9844841957

$$$$
[H]O[C@]1([H])[C@]([H])(c2c([H])c([H])c(C#N)c([H])c2[H])[C@]([H])(c2c([H])c([H])c(C#N)c([H])c2[H])[C@@]([H])(c2c([H])c([H])c(C(F)(F)F)c([H])c2[H])[C@@]1([H])O[H]


 35 38  0  0  0  0  0  0  0  0999 V2000
   10.8746   23.1371   -0.1597 C   0  0  0  0  0  0  0  0  0  0  0  0
   12.2879   22.7152   -0.3729 C   0  0  0  0  0  0  0  0  0  0  0  0
   12.9093   22.9403    0.9743 C   0  0  0  0  0  0  0  0  0  0  0  0
   12.0439   23.8590    1.7524 C   0  0  0  0  0  0  0  0  0  0  0  0
   12.0357   25.1678    1.4002 O   0  0  0  0  0  0  0  0  0  0  0  0
   10.6656   23.2761    1.3624 C   0  0  0  0  0  0  0  0  0  0  0  0
   10.5245   22.0587    1.9688 O   0  0  0  0  0  0  0  0  0  0  0  0
   11.1962   25.4993    0.9814 H   0  0  0  0  0  0  0  0  0  0  0  0
    9.6382   21.6879    1.9317 H   0  0  0  0  0  0  0  0  0  0  0  0
    7.7677   21.0074   -0.6397 C   0  0  0  0  0  0  0  0  0  0  0  0
    7.9998   20.3946   -1.8583 C   0  0  0  0  0  0  0  0  0  0  0  0
    9.1795   20.6971   -2.5013 C   0  0  0  0  0  0  0  0  0  0  0  0
   10.0727   21.5720   -1.9451 C   0  0  0  0  0  0  0  0  0  0  0  0
    9.8602   22.2024   -0.7155 C   0  0  0  0  0  0  0  0  0  0  0  0
    8.6729   21.8904   -0.0827 C   0  0  0  0  0  0  0  0  0  0  0  0
    7.0318   19.4450   -2.4746 C   0  0  0  0  0  0  0  0  0  0  0  0
    6.2966   20.0136   -3.4610 F   0  0  0  0  0  0  0  0  0  0  0  0
    6.2314   18.9440   -1.4627 F   0  0  0  0  0  0  0  0  0  0  0  0
    7.7638   18.3882   -2.9784 F   0  0  0  0  0  0  0  0  0  0  0  0
   12.9819   23.2288   -1.5272 C   0  0  0  0  0  0  0  0  0  0  0  0
   12.7257   24.5148   -2.0272 C   0  0  0  0  0  0  0  0  0  0  0  0
   13.3814   25.0397   -3.1120 C   0  0  0  0  0  0  0  0  0  0  0  0
   14.3418   24.2634   -3.7336 C   0  0  0  0  0  0  0  0  0  0  0  0
   14.6421   22.9849   -3.2856 C   0  0  0  0  0  0  0  0  0  0  0  0
   13.9419   22.4987   -2.1778 C   0  0  0  0  0  0  0  0  0  0  0  0
   15.0145   24.8174   -4.8685 C   0  0  0  0  0  0  0  0  0  0  0  0
   15.5509   25.2659   -5.7859 N   0  0  0  0  0  0  0  0  0  0  0  0
   14.3470   23.1584    0.9881 C   0  0  0  0  0  0  0  0  0  0  0  0
   15.3160   22.1914    1.2086 C   0  0  0  0  0  0  0  0  0  0  0  0
   16.6754   22.4515    1.2168 C   0  0  0  0  0  0  0  0  0  0  0  0
   17.1180   23.7438    0.9873 C   0  0  0  0  0  0  0  0  0  0  0  0
   16.1903   24.7481    0.7596 C   0  0  0  0  0  0  0  0  0  0  0  0
   14.8754   24.4374    0.7644 C   0  0  0  0  0  0  0  0  0  0  0  0
   18.5059   24.1085    0.9638 C   0  0  0  0  0  0  0  0  0  0  0  0
   19.6329   24.4047    0.9210 N   0  0  0  0  0  0  0  0  0  0  0  0
 10 11  2  0  0  0
 11 16  1  0  0  0
 16 17  1  0  0  0
 16 18  1  0  0  0
 16 19  1  0  0  0
 11 12  1  0  0  0
 12 13  2  0  0  0
 13 14  1  0  0  0
 14  1  1  0  0  0
  1  2  1  0  0  0
  2 20  1  0  0  0
 20 21  2  0  0  0
 21 22  1  0  0  0
 22 23  2  0  0  0
 23 26  1  0  0  0
 26 27  3  0  0  0
 23 24  1  0  0  0
 24 25  2  0  0  0
  2  3  1  0  0  0
  3 28  1  0  0  0
 28 29  2  0  0  0
 29 30  1  0  0  0
 30 31  2  0  0  0
 31 34  1  0  0  0
 34 35  3  0  0  0
 31 32  1  0  0  0
 32 33  2  0  0  0
  3  4  1  0  0  0
  4  5  1  0  0  0
  4  6  1  0  0  0
  6  7  1  0  0  0
 14 15  2  0  0  0
 15 10  1  0  0  0
  6  1  1  0  0  0
 25 20  1  0  0  0
 33 28  1  0  0  0
  5  8  1  0  0  0
  7  9  1  0  0  0
M  END
> <minimizedAffinity>
0.78778

> <CNNscore>
0.4432697296

> <CNNaffinity>
7.0884866714

> <CNN_VS>
3.1421115398

> <CNNaffinity_variance>
1.2773627043

$$$$
[H]O[C@]1([H])[C@]([H])(c2c([H])c([H])c(C#N)c([H])c2[H])[C@]([H])(c2c([H])c([H])c(C#N)c([H])c2[H])[C@@]([H])(c2c([H])c([H])c(C(F)(F)F)c([H])c2[H])[C@@]1([H])O[H]


 35 38  0  0  0  0  0  0  0  0999 V2000
   14.9367   24.9380   -1.0115 C   0  0  0  0  0  0  0  0  0  0  0  0
   13.5707   24.3584   -0.8727 C   0  0  0  0  0  0  0  0  0  0  0  0
   13.1719   24.7745    0.5127 C   0  0  0  0  0  0  0  0  0  0  0  0
   14.3911   25.1475    1.2695 C   0  0  0  0  0  0  0  0  0  0  0  0
   15.2137   24.1486    1.6727 O   0  0  0  0  0  0  0  0  0  0  0  0
   15.1335   25.9249    0.1576 C   0  0  0  0  0  0  0  0  0  0  0  0
   14.4759   27.1044   -0.0572 O   0  0  0  0  0  0  0  0  0  0  0  0
   16.0938   24.0983    1.2113 H   0  0  0  0  0  0  0  0  0  0  0  0
   14.9482   27.7376   -0.6052 H   0  0  0  0  0  0  0  0  0  0  0  0
   16.5506   26.8938   -3.8379 C   0  0  0  0  0  0  0  0  0  0  0  0
   15.5389   26.9665   -4.7790 C   0  0  0  0  0  0  0  0  0  0  0  0
   14.3403   26.3663   -4.4633 C   0  0  0  0  0  0  0  0  0  0  0  0
   14.1748   25.7262   -3.2651 C   0  0  0  0  0  0  0  0  0  0  0  0
   15.1818   25.6405   -2.2992 C   0  0  0  0  0  0  0  0  0  0  0  0
   16.3784   26.2459   -2.6298 C   0  0  0  0  0  0  0  0  0  0  0  0
   15.7104   27.6563   -6.0880 C   0  0  0  0  0  0  0  0  0  0  0  0
   15.9535   28.9827   -5.9526 F   0  0  0  0  0  0  0  0  0  0  0  0
   14.5743   27.4178   -6.8415 F   0  0  0  0  0  0  0  0  0  0  0  0
   16.7661   27.0448   -6.7345 F   0  0  0  0  0  0  0  0  0  0  0  0
   13.3794   22.9781   -1.2410 C   0  0  0  0  0  0  0  0  0  0  0  0
   14.4656   22.1085   -1.4237 C   0  0  0  0  0  0  0  0  0  0  0  0
   14.3169   20.7858   -1.7562 C   0  0  0  0  0  0  0  0  0  0  0  0
   13.0353   20.2911   -1.9117 C   0  0  0  0  0  0  0  0  0  0  0  0
   11.9205   21.0998   -1.7427 C   0  0  0  0  0  0  0  0  0  0  0  0
   12.1298   22.4404   -1.4067 C   0  0  0  0  0  0  0  0  0  0  0  0
   12.8915   18.9122   -2.2658 C   0  0  0  0  0  0  0  0  0  0  0  0
   12.7706   17.8022   -2.5553 N   0  0  0  0  0  0  0  0  0  0  0  0
   12.1718   23.9461    1.1672 C   0  0  0  0  0  0  0  0  0  0  0  0
   12.3881   22.6957    1.7261 C   0  0  0  0  0  0  0  0  0  0  0  0
   11.3990   21.9428    2.3348 C   0  0  0  0  0  0  0  0  0  0  0  0
   10.1120   22.4498    2.4079 C   0  0  0  0  0  0  0  0  0  0  0  0
    9.8422   23.6966    1.8659 C   0  0  0  0  0  0  0  0  0  0  0  0
   10.8461   24.3872    1.2821 C   0  0  0  0  0  0  0  0  0  0  0  0
    9.0240   21.7500    3.0296 C   0  0  0  0  0  0  0  0  0  0  0  0
    8.1527   21.1613    3.5335 N   0  0  0  0  0  0  0  0  0  0  0  0
 10 11  2  0  0  0
 11 16  1  0  0  0
 16 17  1  0  0  0
 16 18  1  0  0  0
 16 19  1  0  0  0
 11 12  1  0  0  0
 12 13  2  0  0  0
 13 14  1  0  0  0
 14  1  1  0  0  0
  1  2  1  0  0  0
  2 20  1  0  0  0
 20 21  2  0  0  0
 21 22  1  0  0  0
 22 23  2  0  0  0
 23 26  1  0  0  0
 26 27  3  0  0  0
 23 24  1  0  0  0
 24 25  2  0  0  0
  2  3  1  0  0  0
  3 28  1  0  0  0
 28 29  2  0  0  0
 29 30  1  0  0  0
 30 31  2  0  0  0
 31 34  1  0  0  0
 34 35  3  0  0  0
 31 32  1  0  0  0
 32 33  2  0  0  0
  3  4  1  0  0  0
  4  5  1  0  0  0
  4  6  1  0  0  0
  6  7  1  0  0  0
 14 15  2  0  0  0
 15 10  1  0  0  0
  6  1  1  0  0  0
 25 20  1  0  0  0
 33 28  1  0  0  0
  5  8  1  0  0  0
  7  9  1  0  0  0
M  END
> <minimizedAffinity>
7.32444

> <CNNscore>
0.4055296183

> <CNNaffinity>
7.1723985672

> <CNN_VS>
2.9086201191

> <CNNaffinity_variance>
0.8812922239

$$$$
[H]O[C@]1([H])[C@]([H])(c2c([H])c([H])c(C#N)c([H])c2[H])[C@]([H])(c2c([H])c([H])c(C#N)c([H])c2[H])[C@@]([H])(c2c([H])c([H])c(C(F)(F)F)c([H])c2[H])[C@@]1([H])O[H]


 35 38  0  0  0  0  0  0  0  0999 V2000
   15.7714   25.6914   -2.0279 C   0  0  0  0  0  0  0  0  0  0  0  0
   16.2164   25.2394   -3.3765 C   0  0  0  0  0  0  0  0  0  0  0  0
   16.0140   26.4630   -4.2212 C   0  0  0  0  0  0  0  0  0  0  0  0
   15.0869   27.3816   -3.5176 C   0  0  0  0  0  0  0  0  0  0  0  0
   13.7752   27.0432   -3.4746 O   0  0  0  0  0  0  0  0  0  0  0  0
   15.6420   27.2276   -2.0824 C   0  0  0  0  0  0  0  0  0  0  0  0
   16.8620   27.8425   -2.0231 O   0  0  0  0  0  0  0  0  0  0  0  0
   13.4254   26.7746   -2.5827 H   0  0  0  0  0  0  0  0  0  0  0  0
   17.2167   27.9540   -1.1364 H   0  0  0  0  0  0  0  0  0  0  0  0
   18.7081   24.3468   -0.0312 C   0  0  0  0  0  0  0  0  0  0  0  0
   18.3402   24.6143    1.2755 C   0  0  0  0  0  0  0  0  0  0  0  0
   17.1275   25.2360    1.4741 C   0  0  0  0  0  0  0  0  0  0  0  0
   16.3330   25.5710    0.4115 C   0  0  0  0  0  0  0  0  0  0  0  0
   16.6833   25.3104   -0.9166 C   0  0  0  0  0  0  0  0  0  0  0  0
   17.9023   24.6876   -1.1006 C   0  0  0  0  0  0  0  0  0  0  0  0
   19.1999   24.2584    2.4386 C   0  0  0  0  0  0  0  0  0  0  0  0
   19.3537   25.2854    3.3095 F   0  0  0  0  0  0  0  0  0  0  0  0
   20.4158   23.8191    1.9445 F   0  0  0  0  0  0  0  0  0  0  0  0
   18.6039   23.1857    3.0716 F   0  0  0  0  0  0  0  0  0  0  0  0
   15.7051   23.9871   -3.8745 C   0  0  0  0  0  0  0  0  0  0  0  0
   15.9718   23.5518   -5.1818 C   0  0  0  0  0  0  0  0  0  0  0  0
   15.5155   22.3577   -5.6800 C   0  0  0  0  0  0  0  0  0  0  0  0
   14.7636   21.5476   -4.8496 C   0  0  0  0  0  0  0  0  0  0  0  0
   14.4676   21.9210   -3.5463 C   0  0  0  0  0  0  0  0  0  0  0  0
   14.9556   23.1491   -3.0909 C   0  0  0  0  0  0  0  0  0  0  0  0
   14.2865   20.3078   -5.3813 C   0  0  0  0  0  0  0  0  0  0  0  0
   13.9025   19.3055   -5.8039 N   0  0  0  0  0  0  0  0  0  0  0  0
   15.8215   26.2341   -5.6443 C   0  0  0  0  0  0  0  0  0  0  0  0
   14.6017   26.1152   -6.2930 C   0  0  0  0  0  0  0  0  0  0  0  0
   14.4715   25.8918   -7.6528 C   0  0  0  0  0  0  0  0  0  0  0  0
   15.6112   25.7838   -8.4325 C   0  0  0  0  0  0  0  0  0  0  0  0
   16.8560   25.8966   -7.8336 C   0  0  0  0  0  0  0  0  0  0  0  0
   16.9240   26.1131   -6.5017 C   0  0  0  0  0  0  0  0  0  0  0  0
   15.5774   25.5652   -9.8506 C   0  0  0  0  0  0  0  0  0  0  0  0
   15.5512   25.3641  -10.9989 N   0  0  0  0  0  0  0  0  0  0  0  0
 10 11  2  0  0  0
 11 16  1  0  0  0
 16 17  1  0  0  0
 16 18  1  0  0  0
 16 19  1  0  0  0
 11 12  1  0  0  0
 12 13  2  0  0  0
 13 14  1  0  0  0
 14  1  1  0  0  0
  1  2  1  0  0  0
  2 20  1  0  0  0
 20 21  2  0  0  0
 21 22  1  0  0  0
 22 23  2  0  0  0
 23 26  1  0  0  0
 26 27  3  0  0  0
 23 24  1  0  0  0
 24 25  2  0  0  0
  2  3  1  0  0  0
  3 28  1  0  0  0
 28 29  2  0  0  0
 29 30  1  0  0  0
 30 31  2  0  0  0
 31 34  1  0  0  0
 34 35  3  0  0  0
 31 32  1  0  0  0
 32 33  2  0  0  0
  3  4  1  0  0  0
  4  5  1  0  0  0
  4  6  1  0  0  0
  6  7  1  0  0  0
 14 15  2  0  0  0
 15 10  1  0  0  0
  6  1  1  0  0  0
 25 20  1  0  0  0
 33 28  1  0  0  0
  5  8  1  0  0  0
  7  9  1  0  0  0
M  END
> <minimizedAffinity>
37.04835

> <CNNscore>
0.4024453759

> <CNNaffinity>
6.7186355591

> <CNN_VS>
2.7038838863

> <CNNaffinity_variance>
1.1383258104

$$$$
[H]O[C@]1([H])[C@]([H])(c2c([H])c([H])c(C#N)c([H])c2[H])[C@]([H])(c2c([H])c([H])c(C#N)c([H])c2[H])[C@@]([H])(c2c([H])c([H])c(C(F)(F)F)c([H])c2[H])[C@@]1([H])O[H]


 35 38  0  0  0  0  0  0  0  0999 V2000
   11.6451   21.0075    0.4903 C   0  0  0  0  0  0  0  0  0  0  0  0
   12.3767   22.0334   -0.3055 C   0  0  0  0  0  0  0  0  0  0  0  0
   12.3139   21.4806   -1.6991 C   0  0  0  0  0  0  0  0  0  0  0  0
   11.9921   20.0351   -1.6259 C   0  0  0  0  0  0  0  0  0  0  0  0
   12.9658   19.1925   -1.2029 O   0  0  0  0  0  0  0  0  0  0  0  0
   10.9206   20.0853   -0.5118 C   0  0  0  0  0  0  0  0  0  0  0  0
    9.7957   20.6728   -1.0209 O   0  0  0  0  0  0  0  0  0  0  0  0
   12.8251   18.7813   -0.3078 H   0  0  0  0  0  0  0  0  0  0  0  0
    9.0140   20.6000   -0.4659 H   0  0  0  0  0  0  0  0  0  0  0  0
    9.2904   21.4457    3.4368 C   0  0  0  0  0  0  0  0  0  0  0  0
    8.7633   22.7073    3.2247 C   0  0  0  0  0  0  0  0  0  0  0  0
    9.1965   23.3923    2.1113 C   0  0  0  0  0  0  0  0  0  0  0  0
   10.1131   22.8345    1.2619 C   0  0  0  0  0  0  0  0  0  0  0  0
   10.6588   21.5620    1.4554 C   0  0  0  0  0  0  0  0  0  0  0  0
   10.2160   20.8873    2.5763 C   0  0  0  0  0  0  0  0  0  0  0  0
    7.7691   23.3253    4.1458 C   0  0  0  0  0  0  0  0  0  0  0  0
    7.8599   22.8474    5.4107 F   0  0  0  0  0  0  0  0  0  0  0  0
    6.5109   23.1169    3.6082 F   0  0  0  0  0  0  0  0  0  0  0  0
    7.9977   24.6870    4.1363 F   0  0  0  0  0  0  0  0  0  0  0  0
   13.6564   22.4835    0.1817 C   0  0  0  0  0  0  0  0  0  0  0  0
   13.9408   23.8474    0.3502 C   0  0  0  0  0  0  0  0  0  0  0  0
   15.1415   24.3074    0.8285 C   0  0  0  0  0  0  0  0  0  0  0  0
   16.1102   23.3796    1.1636 C   0  0  0  0  0  0  0  0  0  0  0  0
   15.8891   22.0171    1.0217 C   0  0  0  0  0  0  0  0  0  0  0  0
   14.6487   21.6037    0.5274 C   0  0  0  0  0  0  0  0  0  0  0  0
   17.3615   23.8702    1.6546 C   0  0  0  0  0  0  0  0  0  0  0  0
   18.3733   24.2630    2.0451 N   0  0  0  0  0  0  0  0  0  0  0  0
   13.3618   21.9159   -2.6086 C   0  0  0  0  0  0  0  0  0  0  0  0
   14.4080   22.7710   -2.2971 C   0  0  0  0  0  0  0  0  0  0  0  0
   15.3799   23.1602   -3.2025 C   0  0  0  0  0  0  0  0  0  0  0  0
   15.3293   22.6752   -4.4990 C   0  0  0  0  0  0  0  0  0  0  0  0
   14.3045   21.8156   -4.8621 C   0  0  0  0  0  0  0  0  0  0  0  0
   13.3817   21.4703   -3.9376 C   0  0  0  0  0  0  0  0  0  0  0  0
   16.2973   23.0112   -5.5039 C   0  0  0  0  0  0  0  0  0  0  0  0
   17.0801   23.3072   -6.3159 N   0  0  0  0  0  0  0  0  0  0  0  0
 10 11  2  0  0  0
 11 16  1  0  0  0
 16 17  1  0  0  0
 16 18  1  0  0  0
 16 19  1  0  0  0
 11 12  1  0  0  0
 12 13  2  0  0  0
 13 14  1  0  0  0
 14  1  1  0  0  0
  1  2  1  0  0  0
  2 20  1  0  0  0
 20 21  2  0  0  0
 21 22  1  0  0  0
 22 23  2  0  0  0
 23 26  1  0  0  0
 26 27  3  0  0  0
 23 24  1  0  0  0
 24 25  2  0  0  0
  2  3  1  0  0  0
  3 28  1  0  0  0
 28 29  2  0  0  0
 29 30  1  0  0  0
 30 31  2  0  0  0
 31 34  1  0  0  0
 34 35  3  0  0  0
 31 32  1  0  0  0
 32 33  2  0  0  0
  3  4  1  0  0  0
  4  5  1  0  0  0
  4  6  1  0  0  0
  6  7  1  0  0  0
 14 15  2  0  0  0
 15 10  1  0  0  0
  6  1  1  0  0  0
 25 20  1  0  0  0
 33 28  1  0  0  0
  5  8  1  0  0  0
  7  9  1  0  0  0
M  END
> <minimizedAffinity>
13.09180

> <CNNscore>
0.4005143046

> <CNNaffinity>
6.8253965378

> <CNN_VS>
2.7336690426

> <CNNaffinity_variance>
2.0317473412

$$$$
[H]O[C@]1([H])[C@]([H])(c2c([H])c([H])c(C#N)c([H])c2[H])[C@]([H])(c2c([H])c([H])c(C#N)c([H])c2[H])[C@@]([H])(c2c([H])c([H])c(C(F)(F)F)c([H])c2[H])[C@@]1([H])O[H]


 35 38  0  0  0  0  0  0  0  0999 V2000
   11.8566   23.3208   -0.2569 C   0  0  0  0  0  0  0  0  0  0  0  0
   13.2606   23.6692   -0.6155 C   0  0  0  0  0  0  0  0  0  0  0  0
   13.2109   25.1637   -0.7413 C   0  0  0  0  0  0  0  0  0  0  0  0
   11.7986   25.5826   -0.9094 C   0  0  0  0  0  0  0  0  0  0  0  0
   11.2060   25.3385   -2.1037 O   0  0  0  0  0  0  0  0  0  0  0  0
   11.1442   24.6352    0.1231 C   0  0  0  0  0  0  0  0  0  0  0  0
   11.4914   25.0570    1.3767 O   0  0  0  0  0  0  0  0  0  0  0  0
   10.4989   24.6385   -2.1023 H   0  0  0  0  0  0  0  0  0  0  0  0
   11.0020   24.6432    2.0934 H   0  0  0  0  0  0  0  0  0  0  0  0
   12.5829   20.6457    2.3382 C   0  0  0  0  0  0  0  0  0  0  0  0
   11.3700   20.5121    2.9905 C   0  0  0  0  0  0  0  0  0  0  0  0
   10.3327   21.3101    2.5618 C   0  0  0  0  0  0  0  0  0  0  0  0
   10.5123   22.1951    1.5336 C   0  0  0  0  0  0  0  0  0  0  0  0
   11.7276   22.3470    0.8596 C   0  0  0  0  0  0  0  0  0  0  0  0
   12.7590   21.5412    1.3009 C   0  0  0  0  0  0  0  0  0  0  0  0
   11.1656   19.5556    4.1138 C   0  0  0  0  0  0  0  0  0  0  0  0
   11.6353   18.3149    3.8367 F   0  0  0  0  0  0  0  0  0  0  0  0
    9.8139   19.5374    4.4105 F   0  0  0  0  0  0  0  0  0  0  0  0
   11.8190   20.0747    5.2139 F   0  0  0  0  0  0  0  0  0  0  0  0
   13.8936   22.9264   -1.6762 C   0  0  0  0  0  0  0  0  0  0  0  0
   14.4369   23.5675   -2.8001 C   0  0  0  0  0  0  0  0  0  0  0  0
   15.0615   22.8915   -3.8175 C   0  0  0  0  0  0  0  0  0  0  0  0
   15.1622   21.5159   -3.7230 C   0  0  0  0  0  0  0  0  0  0  0  0
   14.6469   20.8242   -2.6360 C   0  0  0  0  0  0  0  0  0  0  0  0
   14.0183   21.5624   -1.6292 C   0  0  0  0  0  0  0  0  0  0  0  0
   15.8090   20.8198   -4.7928 C   0  0  0  0  0  0  0  0  0  0  0  0
   16.3353   20.2569   -5.6511 N   0  0  0  0  0  0  0  0  0  0  0  0
   14.2231   25.7687   -1.5922 C   0  0  0  0  0  0  0  0  0  0  0  0
   14.0018   26.3652   -2.8242 C   0  0  0  0  0  0  0  0  0  0  0  0
   15.0027   26.9238   -3.6001 C   0  0  0  0  0  0  0  0  0  0  0  0
   16.3080   26.9037   -3.1369 C   0  0  0  0  0  0  0  0  0  0  0  0
   16.5835   26.3206   -1.9101 C   0  0  0  0  0  0  0  0  0  0  0  0
   15.5675   25.7890   -1.1955 C   0  0  0  0  0  0  0  0  0  0  0  0
   17.4100   27.4677   -3.8630 C   0  0  0  0  0  0  0  0  0  0  0  0
   18.3019   27.9101   -4.4701 N   0  0  0  0  0  0  0  0  0  0  0  0
 10 11  2  0  0  0
 11 16  1  0  0  0
 16 17  1  0  0  0
 16 18  1  0  0  0
 16 19  1  0  0  0
 11 12  1  0  0  0
 12 13  2  0  0  0
 13 14  1  0  0  0
 14  1  1  0  0  0
  1  2  1  0  0  0
  2 20  1  0  0  0
 20 21  2  0  0  0
 21 22  1  0  0  0
 22 23  2  0  0  0
 23 26  1  0  0  0
 26 27  3  0  0  0
 23 24  1  0  0  0
 24 25  2  0  0  0
  2  3  1  0  0  0
  3 28  1  0  0  0
 28 29  2  0  0  0
 29 30  1  0  0  0
 30 31  2  0  0  0
 31 34  1  0  0  0
 34 35  3  0  0  0
 31 32  1  0  0  0
 32 33  2  0  0  0
  3  4  1  0  0  0
  4  5  1  0  0  0
  4  6  1  0  0  0
  6  7  1  0  0  0
 14 15  2  0  0  0
 15 10  1  0  0  0
  6  1  1  0  0  0
 25 20  1  0  0  0
 33 28  1  0  0  0
  5  8  1  0  0  0
  7  9  1  0  0  0
M  END
> <minimizedAffinity>
2.16975

> <CNNscore>
0.3981349766

> <CNNaffinity>
7.2270545959

> <CNN_VS>
2.8773431778

> <CNNaffinity_variance>
1.5926830769

$$$$
[H]O[C@]1([H])[C@]([H])(c2c([H])c([H])c(C#N)c([H])c2[H])[C@]([H])(c2c([H])c([H])c(C#N)c([H])c2[H])[C@@]([H])(c2c([H])c([H])c(C(F)(F)F)c([H])c2[H])[C@@]1([H])O[H]


 35 38  0  0  0  0  0  0  0  0999 V2000
   12.8612   25.6234   -2.2564 C   0  0  0  0  0  0  0  0  0  0  0  0
   13.3799   24.9253   -1.0461 C   0  0  0  0  0  0  0  0  0  0  0  0
   12.6232   23.6296   -1.0594 C   0  0  0  0  0  0  0  0  0  0  0  0
   11.4328   23.7800   -1.9304 C   0  0  0  0  0  0  0  0  0  0  0  0
   10.3990   24.5217   -1.4633 O   0  0  0  0  0  0  0  0  0  0  0  0
   12.0807   24.5812   -3.0836 C   0  0  0  0  0  0  0  0  0  0  0  0
   12.9187   23.7475   -3.7709 O   0  0  0  0  0  0  0  0  0  0  0  0
   10.2500   25.3938   -1.9186 H   0  0  0  0  0  0  0  0  0  0  0  0
   13.2407   24.0960   -4.6071 H   0  0  0  0  0  0  0  0  0  0  0  0
   14.7088   27.2380   -5.1543 C   0  0  0  0  0  0  0  0  0  0  0  0
   15.9849   27.4104   -4.6480 C   0  0  0  0  0  0  0  0  0  0  0  0
   16.2125   26.9907   -3.3563 C   0  0  0  0  0  0  0  0  0  0  0  0
   15.2059   26.4311   -2.6171 C   0  0  0  0  0  0  0  0  0  0  0  0
   13.9098   26.2464   -3.1072 C   0  0  0  0  0  0  0  0  0  0  0  0
   13.6960   26.6728   -4.4034 C   0  0  0  0  0  0  0  0  0  0  0  0
   17.0859   28.0228   -5.4425 C   0  0  0  0  0  0  0  0  0  0  0  0
   17.6250   27.1621   -6.3400 F   0  0  0  0  0  0  0  0  0  0  0  0
   18.0344   28.4959   -4.5526 F   0  0  0  0  0  0  0  0  0  0  0  0
   16.5557   29.1177   -6.0957 F   0  0  0  0  0  0  0  0  0  0  0  0
   13.4296   25.6617    0.1920 C   0  0  0  0  0  0  0  0  0  0  0  0
   14.2222   25.2361    1.2692 C   0  0  0  0  0  0  0  0  0  0  0  0
   14.3055   25.9235    2.4536 C   0  0  0  0  0  0  0  0  0  0  0  0
   13.5773   27.0914    2.5841 C   0  0  0  0  0  0  0  0  0  0  0  0
   12.7767   27.5656    1.5546 C   0  0  0  0  0  0  0  0  0  0  0  0
   12.7267   26.8244    0.3706 C   0  0  0  0  0  0  0  0  0  0  0  0
   13.6655   27.7967    3.8260 C   0  0  0  0  0  0  0  0  0  0  0  0
   13.7423   28.3682    4.8250 N   0  0  0  0  0  0  0  0  0  0  0  0
   12.4673   22.9658    0.2251 C   0  0  0  0  0  0  0  0  0  0  0  0
   13.3155   23.0900    1.3150 C   0  0  0  0  0  0  0  0  0  0  0  0
   13.1258   22.4311    2.5173 C   0  0  0  0  0  0  0  0  0  0  0  0
   12.0284   21.5991    2.6665 C   0  0  0  0  0  0  0  0  0  0  0  0
   11.1481   21.4410    1.6077 C   0  0  0  0  0  0  0  0  0  0  0  0
   11.3832   22.1076    0.4563 C   0  0  0  0  0  0  0  0  0  0  0  0
   11.7409   20.8844    3.8774 C   0  0  0  0  0  0  0  0  0  0  0  0
   11.5200   20.2852    4.8531 N   0  0  0  0  0  0  0  0  0  0  0  0
 10 11  2  0  0  0
 11 16  1  0  0  0
 16 17  1  0  0  0
 16 18  1  0  0  0
 16 19  1  0  0  0
 11 12  1  0  0  0
 12 13  2  0  0  0
 13 14  1  0  0  0
 14  1  1  0  0  0
  1  2  1  0  0  0
  2 20  1  0  0  0
 20 21  2  0  0  0
 21 22  1  0  0  0
 22 23  2  0  0  0
 23 26  1  0  0  0
 26 27  3  0  0  0
 23 24  1  0  0  0
 24 25  2  0  0  0
  2  3  1  0  0  0
  3 28  1  0  0  0
 28 29  2  0  0  0
 29 30  1  0  0  0
 30 31  2  0  0  0
 31 34  1  0  0  0
 34 35  3  0  0  0
 31 32  1  0  0  0
 32 33  2  0  0  0
  3  4  1  0  0  0
  4  5  1  0  0  0
  4  6  1  0  0  0
  6  7  1  0  0  0
 14 15  2  0  0  0
 15 10  1  0  0  0
  6  1  1  0  0  0
 25 20  1  0  0  0
 33 28  1  0  0  0
  5  8  1  0  0  0
  7  9  1  0  0  0
M  END
> <minimizedAffinity>
27.68935

> <CNNscore>
0.3972246051

> <CNNaffinity>
6.5030913353

> <CNN_VS>
2.5831878185

> <CNNaffinity_variance>
1.1290719509

$$$$
[H]O[C@]1([H])[C@]([H])(c2c([H])c([H])c(C#N)c([H])c2[H])[C@]([H])(c2c([H])c([H])c(C#N)c([H])c2[H])[C@@]([H])(c2c([H])c([H])c(C(F)(F)F)c([H])c2[H])[C@@]1([H])O[H]


 35 38  0  0  0  0  0  0  0  0999 V2000
   12.2199   23.1864   -0.4489 C   0  0  0  0  0  0  0  0  0  0  0  0
   13.6186   23.5619   -0.8008 C   0  0  0  0  0  0  0  0  0  0  0  0
   13.5568   25.0601   -0.8571 C   0  0  0  0  0  0  0  0  0  0  0  0
   12.1402   25.4753   -0.9958 C   0  0  0  0  0  0  0  0  0  0  0  0
   11.5407   25.2820   -2.1959 O   0  0  0  0  0  0  0  0  0  0  0  0
   11.5005   24.4763   -0.0036 C   0  0  0  0  0  0  0  0  0  0  0  0
   11.8538   24.8425    1.2657 O   0  0  0  0  0  0  0  0  0  0  0  0
   10.8389   24.5772   -2.2219 H   0  0  0  0  0  0  0  0  0  0  0  0
   11.3727   24.3923    1.9659 H   0  0  0  0  0  0  0  0  0  0  0  0
   12.6984   21.2052    2.7549 C   0  0  0  0  0  0  0  0  0  0  0  0
   11.8226   20.1459    2.5956 C   0  0  0  0  0  0  0  0  0  0  0  0
   11.0876   20.1055    1.4316 C   0  0  0  0  0  0  0  0  0  0  0  0
   11.2280   21.0824    0.4837 C   0  0  0  0  0  0  0  0  0  0  0  0
   12.1064   22.1611    0.6223 C   0  0  0  0  0  0  0  0  0  0  0  0
   12.8360   22.1892    1.7948 C   0  0  0  0  0  0  0  0  0  0  0  0
   11.6587   19.0805    3.6234 C   0  0  0  0  0  0  0  0  0  0  0  0
   12.6345   19.1059    4.5637 F   0  0  0  0  0  0  0  0  0  0  0  0
   11.6131   17.8639    2.9651 F   0  0  0  0  0  0  0  0  0  0  0  0
   10.4259   19.2722    4.2148 F   0  0  0  0  0  0  0  0  0  0  0  0
   14.2493   22.8737   -1.8991 C   0  0  0  0  0  0  0  0  0  0  0  0
   14.2914   21.4724   -1.9618 C   0  0  0  0  0  0  0  0  0  0  0  0
   14.8676   20.7874   -3.0016 C   0  0  0  0  0  0  0  0  0  0  0  0
   15.4259   21.5166   -4.0350 C   0  0  0  0  0  0  0  0  0  0  0  0
   15.4143   22.9042   -4.0321 C   0  0  0  0  0  0  0  0  0  0  0  0
   14.8163   23.5510   -2.9469 C   0  0  0  0  0  0  0  0  0  0  0  0
   16.0307   20.7926   -5.1108 C   0  0  0  0  0  0  0  0  0  0  0  0
   16.5210   20.2146   -5.9804 N   0  0  0  0  0  0  0  0  0  0  0  0
   14.5581   25.7117   -1.6863 C   0  0  0  0  0  0  0  0  0  0  0  0
   14.3332   26.3122   -2.9157 C   0  0  0  0  0  0  0  0  0  0  0  0
   15.3238   26.9160   -3.6704 C   0  0  0  0  0  0  0  0  0  0  0  0
   16.6217   26.9403   -3.1873 C   0  0  0  0  0  0  0  0  0  0  0  0
   16.9006   26.3554   -1.9621 C   0  0  0  0  0  0  0  0  0  0  0  0
   15.8946   25.7786   -1.2685 C   0  0  0  0  0  0  0  0  0  0  0  0
   17.7126   27.5530   -3.8905 C   0  0  0  0  0  0  0  0  0  0  0  0
   18.6137   28.0347   -4.4525 N   0  0  0  0  0  0  0  0  0  0  0  0
 10 11  2  0  0  0
 11 16  1  0  0  0
 16 17  1  0  0  0
 16 18  1  0  0  0
 16 19  1  0  0  0
 11 12  1  0  0  0
 12 13  2  0  0  0
 13 14  1  0  0  0
 14  1  1  0  0  0
  1  2  1  0  0  0
  2 20  1  0  0  0
 20 21  2  0  0  0
 21 22  1  0  0  0
 22 23  2  0  0  0
 23 26  1  0  0  0
 26 27  3  0  0  0
 23 24  1  0  0  0
 24 25  2  0  0  0
  2  3  1  0  0  0
  3 28  1  0  0  0
 28 29  2  0  0  0
 29 30  1  0  0  0
 30 31  2  0  0  0
 31 34  1  0  0  0
 34 35  3  0  0  0
 31 32  1  0  0  0
 32 33  2  0  0  0
  3  4  1  0  0  0
  4  5  1  0  0  0
  4  6  1  0  0  0
  6  7  1  0  0  0
 14 15  2  0  0  0
 15 10  1  0  0  0
  6  1  1  0  0  0
 25 20  1  0  0  0
 33 28  1  0  0  0
  5  8  1  0  0  0
  7  9  1  0  0  0
M  END
> <minimizedAffinity>
4.66750

> <CNNscore>
0.3949591517

> <CNNaffinity>
7.0986318588

> <CNN_VS>
2.8036696911

> <CNNaffinity_variance>
1.2022451162

$$$$
[H]c1nc(N([H])c2c([H])c([H])c([H])c(-n3c([H])nc4c([H])c([H])c([H])c([H])c43)c2[H])nc(N([H])c2c([H])c([H])c([H])c([H])c2S(=O)(=O)N([H])[H])c1[H]


 37 41  0  0  0  0  0  0  0  0999 V2000
   15.3061   24.4152   -1.6529 C   0  0  0  0  0  0  0  0  0  0  0  0
   15.8096   24.8706   -0.4797 C   0  0  0  0  0  0  0  0  0  0  0  0
   15.4351   24.2310    0.7114 C   0  0  0  0  0  0  0  0  0  0  0  0
   14.5979   23.1976    0.6280 N   0  0  0  0  0  0  0  0  0  0  0  0
   14.0899   22.7273   -0.5066 C   0  0  0  0  0  0  0  0  0  0  0  0
   14.4574   23.3543   -1.6586 N   0  0  0  0  0  0  0  0  0  0  0  0
   15.5639   25.0343   -2.9019 N   0  0  0  0  0  0  0  0  0  0  0  0
   15.1150   24.5226   -3.7338 H   0  0  0  0  0  0  0  0  0  0  0  0
   15.8783   26.8818   -4.3655 C   0  0  0  0  0  0  0  0  0  0  0  0
   16.5402   28.0359   -4.7266 C   0  0  0  0  0  0  0  0  0  0  0  0
   17.6050   28.5253   -4.0042 C   0  0  0  0  0  0  0  0  0  0  0  0
   18.0019   27.8213   -2.8877 C   0  0  0  0  0  0  0  0  0  0  0  0
   17.3607   26.6665   -2.5025 C   0  0  0  0  0  0  0  0  0  0  0  0
   16.2959   26.1728   -3.2268 C   0  0  0  0  0  0  0  0  0  0  0  0
   13.0222   26.7583   -4.5153 N   0  0  0  0  0  0  0  0  0  0  0  0
   14.4857   26.3722   -5.3291 S   0  0  0  0  0  0  0  0  0  0  0  0
   14.4972   27.0929   -6.6229 O   0  0  0  0  0  0  0  0  0  0  0  0
   14.5678   24.8995   -5.6232 O   0  0  0  0  0  0  0  0  0  0  0  0
   12.4266   25.9411   -4.2865 H   0  0  0  0  0  0  0  0  0  0  0  0
   13.2566   27.2499   -3.6303 H   0  0  0  0  0  0  0  0  0  0  0  0
   13.2190   21.6385   -0.5111 N   0  0  0  0  0  0  0  0  0  0  0  0
   13.6077   20.7380   -0.9310 H   0  0  0  0  0  0  0  0  0  0  0  0
   11.9184   21.6333   -0.0162 C   0  0  0  0  0  0  0  0  0  0  0  0
   10.9424   21.1600   -0.9191 C   0  0  0  0  0  0  0  0  0  0  0  0
    9.6331   21.0753   -0.5741 C   0  0  0  0  0  0  0  0  0  0  0  0
    9.2243   21.4526    0.6748 C   0  0  0  0  0  0  0  0  0  0  0  0
   10.1379   21.9174    1.5829 C   0  0  0  0  0  0  0  0  0  0  0  0
   11.4661   21.9952    1.2113 C   0  0  0  0  0  0  0  0  0  0  0  0
    9.7308   22.3226    2.9104 N   0  0  0  0  0  0  0  0  0  0  0  0
    9.5633   21.5113    3.9683 C   0  0  0  0  0  0  0  0  0  0  0  0
    9.1773   22.2331    5.0507 N   0  0  0  0  0  0  0  0  0  0  0  0
    9.0958   23.5301    4.6812 C   0  0  0  0  0  0  0  0  0  0  0  0
    8.7517   24.6547    5.3945 C   0  0  0  0  0  0  0  0  0  0  0  0
    8.7548   25.8690    4.7482 C   0  0  0  0  0  0  0  0  0  0  0  0
    9.1022   25.9232    3.4057 C   0  0  0  0  0  0  0  0  0  0  0  0
    9.4409   24.7802    2.7227 C   0  0  0  0  0  0  0  0  0  0  0  0
    9.4438   23.5610    3.3489 C   0  0  0  0  0  0  0  0  0  0  0  0
 15 16  1  0  0  0
 16 17  2  0  0  0
 16 18  2  0  0  0
 16  9  1  0  0  0
  9 10  2  0  0  0
 10 11  1  0  0  0
 11 12  2  0  0  0
 12 13  1  0  0  0
 13 14  2  0  0  0
 14  7  1  0  0  0
  7  1  1  0  0  0
  1  2  2  0  0  0
  2  3  1  0  0  0
  3  4  2  0  0  0
  4  5  1  0  0  0
  5 21  1  0  0  0
 21 23  1  0  0  0
 23 24  2  0  0  0
 24 25  1  0  0  0
 25 26  2  0  0  0
 26 27  1  0  0  0
 27 28  2  0  0  0
 27 29  1  0  0  0
 29 30  1  0  0  0
 30 31  2  0  0  0
 31 32  1  0  0  0
 32 33  2  0  0  0
 33 34  1  0  0  0
 34 35  2  0  0  0
 35 36  1  0  0  0
 36 37  2  0  0  0
  5  6  2  0  0  0
 14  9  1  0  0  0
  6  1  1  0  0  0
 28 23  1  0  0  0
 37 29  1  0  0  0
 37 32  1  0  0  0
 15 19  1  0  0  0
 15 20  1  0  0  0
  7  8  1  0  0  0
 21 22  1  0  0  0
M  END
> <minimizedAffinity>
-8.19609

> <CNNscore>
0.3041198552

> <CNNaffinity>
7.5044059753

> <CNN_VS>
2.2822389603

> <CNNaffinity_variance>
0.2175349742

$$$$
[H]c1nc(N([H])c2c([H])c([H])c([H])c(-n3c([H])nc4c([H])c([H])c([H])c([H])c43)c2[H])nc(N([H])c2c([H])c([H])c([H])c([H])c2S(=O)(=O)N([H])[H])c1[H]


 37 41  0  0  0  0  0  0  0  0999 V2000
   15.3088   24.4529   -1.6519 C   0  0  0  0  0  0  0  0  0  0  0  0
   15.8766   24.8710   -0.4943 C   0  0  0  0  0  0  0  0  0  0  0  0
   15.6011   24.1673    0.6876 C   0  0  0  0  0  0  0  0  0  0  0  0
   14.7899   23.1129    0.6112 N   0  0  0  0  0  0  0  0  0  0  0  0
   14.2207   22.6780   -0.5084 C   0  0  0  0  0  0  0  0  0  0  0  0
   14.4921   23.3671   -1.6514 N   0  0  0  0  0  0  0  0  0  0  0  0
   15.4646   25.1350   -2.8849 N   0  0  0  0  0  0  0  0  0  0  0  0
   14.8841   24.7118   -3.6843 H   0  0  0  0  0  0  0  0  0  0  0  0
   15.8534   26.9360   -4.3881 C   0  0  0  0  0  0  0  0  0  0  0  0
   16.5570   28.0583   -4.7699 C   0  0  0  0  0  0  0  0  0  0  0  0
   17.6320   28.5283   -4.0497 C   0  0  0  0  0  0  0  0  0  0  0  0
   17.9958   27.8376   -2.9137 C   0  0  0  0  0  0  0  0  0  0  0  0
   17.3126   26.7145   -2.5076 C   0  0  0  0  0  0  0  0  0  0  0  0
   16.2375   26.2403   -3.2296 C   0  0  0  0  0  0  0  0  0  0  0  0
   12.9980   26.7576   -4.4886 N   0  0  0  0  0  0  0  0  0  0  0  0
   14.4521   26.4513   -5.3518 S   0  0  0  0  0  0  0  0  0  0  0  0
   14.4214   27.2447   -6.6020 O   0  0  0  0  0  0  0  0  0  0  0  0
   14.5591   25.0000   -5.7316 O   0  0  0  0  0  0  0  0  0  0  0  0
   12.4248   25.9157   -4.2956 H   0  0  0  0  0  0  0  0  0  0  0  0
   13.2404   27.2031   -3.5817 H   0  0  0  0  0  0  0  0  0  0  0  0
   13.3827   21.5636   -0.5066 N   0  0  0  0  0  0  0  0  0  0  0  0
   13.5801   20.8362   -1.2616 H   0  0  0  0  0  0  0  0  0  0  0  0
   12.3408   21.3290    0.3855 C   0  0  0  0  0  0  0  0  0  0  0  0
   12.7440   20.9086    1.6709 C   0  0  0  0  0  0  0  0  0  0  0  0
   11.8441   20.6614    2.6555 C   0  0  0  0  0  0  0  0  0  0  0  0
   10.5063   20.8164    2.4202 C   0  0  0  0  0  0  0  0  0  0  0  0
   10.0705   21.2231    1.1873 C   0  0  0  0  0  0  0  0  0  0  0  0
   11.0036   21.4698    0.1991 C   0  0  0  0  0  0  0  0  0  0  0  0
    8.6607   21.3946    0.9132 N   0  0  0  0  0  0  0  0  0  0  0  0
    7.7944   22.1140    1.6462 C   0  0  0  0  0  0  0  0  0  0  0  0
    6.5562   22.0528    1.0944 N   0  0  0  0  0  0  0  0  0  0  0  0
    6.6289   21.2807   -0.0120 C   0  0  0  0  0  0  0  0  0  0  0  0
    5.6658   20.9069   -0.9200 C   0  0  0  0  0  0  0  0  0  0  0  0
    6.0320   20.0982   -1.9707 C   0  0  0  0  0  0  0  0  0  0  0  0
    7.3526   19.6863   -2.0827 C   0  0  0  0  0  0  0  0  0  0  0  0
    8.2899   20.0782   -1.1578 C   0  0  0  0  0  0  0  0  0  0  0  0
    7.9446   20.8837   -0.1040 C   0  0  0  0  0  0  0  0  0  0  0  0
 15 16  1  0  0  0
 16 17  2  0  0  0
 16 18  2  0  0  0
 16  9  1  0  0  0
  9 10  2  0  0  0
 10 11  1  0  0  0
 11 12  2  0  0  0
 12 13  1  0  0  0
 13 14  2  0  0  0
 14  7  1  0  0  0
  7  1  1  0  0  0
  1  2  2  0  0  0
  2  3  1  0  0  0
  3  4  2  0  0  0
  4  5  1  0  0  0
  5 21  1  0  0  0
 21 23  1  0  0  0
 23 24  2  0  0  0
 24 25  1  0  0  0
 25 26  2  0  0  0
 26 27  1  0  0  0
 27 28  2  0  0  0
 27 29  1  0  0  0
 29 30  1  0  0  0
 30 31  2  0  0  0
 31 32  1  0  0  0
 32 33  2  0  0  0
 33 34  1  0  0  0
 34 35  2  0  0  0
 35 36  1  0  0  0
 36 37  2  0  0  0
  5  6  2  0  0  0
 14  9  1  0  0  0
  6  1  1  0  0  0
 28 23  1  0  0  0
 37 29  1  0  0  0
 37 32  1  0  0  0
 15 19  1  0  0  0
 15 20  1  0  0  0
  7  8  1  0  0  0
 21 22  1  0  0  0
M  END
> <minimizedAffinity>
-8.20389

> <CNNscore>
0.2873528600

> <CNNaffinity>
7.5744028091

> <CNN_VS>
2.1765263081

> <CNNaffinity_variance>
0.2313703001

$$$$
[H]c1nc(N([H])c2c([H])c([H])c([H])c(-n3c([H])nc4c([H])c([H])c([H])c([H])c43)c2[H])nc(N([H])c2c([H])c([H])c([H])c([H])c2S(=O)(=O)N([H])[H])c1[H]


 37 41  0  0  0  0  0  0  0  0999 V2000
   14.3313   22.5054   -0.3357 C   0  0  0  0  0  0  0  0  0  0  0  0
   14.9443   21.2967   -0.3560 C   0  0  0  0  0  0  0  0  0  0  0  0
   14.5439   20.3190    0.5670 C   0  0  0  0  0  0  0  0  0  0  0  0
   13.5711   20.6303    1.4228 N   0  0  0  0  0  0  0  0  0  0  0  0
   12.9503   21.8048    1.4654 C   0  0  0  0  0  0  0  0  0  0  0  0
   13.3455   22.7491    0.5669 N   0  0  0  0  0  0  0  0  0  0  0  0
   14.7097   23.5831   -1.1755 N   0  0  0  0  0  0  0  0  0  0  0  0
   15.7719   23.6591   -1.3216 H   0  0  0  0  0  0  0  0  0  0  0  0
   14.6514   25.4774   -2.6117 C   0  0  0  0  0  0  0  0  0  0  0  0
   13.9556   26.4420   -3.3086 C   0  0  0  0  0  0  0  0  0  0  0  0
   12.5824   26.5287   -3.2651 C   0  0  0  0  0  0  0  0  0  0  0  0
   11.9046   25.6092   -2.4937 C   0  0  0  0  0  0  0  0  0  0  0  0
   12.5716   24.6350   -1.7873 C   0  0  0  0  0  0  0  0  0  0  0  0
   13.9475   24.5486   -1.8270 C   0  0  0  0  0  0  0  0  0  0  0  0
   16.9878   26.8558   -3.5264 N   0  0  0  0  0  0  0  0  0  0  0  0
   16.4105   25.4178   -2.7832 S   0  0  0  0  0  0  0  0  0  0  0  0
   17.0287   25.3127   -1.4415 O   0  0  0  0  0  0  0  0  0  0  0  0
   16.8152   24.2026   -3.5716 O   0  0  0  0  0  0  0  0  0  0  0  0
   17.4777   26.7093   -4.4282 H   0  0  0  0  0  0  0  0  0  0  0  0
   16.1803   27.4886   -3.6920 H   0  0  0  0  0  0  0  0  0  0  0  0
   11.9387   22.0536    2.3921 N   0  0  0  0  0  0  0  0  0  0  0  0
   12.2265   21.9920    3.4175 H   0  0  0  0  0  0  0  0  0  0  0  0
   10.6188   22.3753    2.0909 C   0  0  0  0  0  0  0  0  0  0  0  0
   10.3449   23.7584    2.0291 C   0  0  0  0  0  0  0  0  0  0  0  0
    9.1090   24.2279    1.7251 C   0  0  0  0  0  0  0  0  0  0  0  0
    8.0860   23.3580    1.4681 C   0  0  0  0  0  0  0  0  0  0  0  0
    8.3073   22.0074    1.5166 C   0  0  0  0  0  0  0  0  0  0  0  0
    9.5733   21.5506    1.8276 C   0  0  0  0  0  0  0  0  0  0  0  0
    7.2419   21.0665    1.2487 N   0  0  0  0  0  0  0  0  0  0  0  0
    6.2577   20.7238    2.0968 C   0  0  0  0  0  0  0  0  0  0  0  0
    5.4356   19.8162    1.5121 N   0  0  0  0  0  0  0  0  0  0  0  0
    5.9000   19.5724    0.2669 C   0  0  0  0  0  0  0  0  0  0  0  0
    5.4355   18.7414   -0.7259 C   0  0  0  0  0  0  0  0  0  0  0  0
    6.1223   18.6930   -1.9168 C   0  0  0  0  0  0  0  0  0  0  0  0
    7.2551   19.4780   -2.0801 C   0  0  0  0  0  0  0  0  0  0  0  0
    7.6920   20.2974   -1.0675 C   0  0  0  0  0  0  0  0  0  0  0  0
    7.0214   20.3595    0.1262 C   0  0  0  0  0  0  0  0  0  0  0  0
 15 16  1  0  0  0
 16 17  2  0  0  0
 16 18  2  0  0  0
 16  9  1  0  0  0
  9 10  2  0  0  0
 10 11  1  0  0  0
 11 12  2  0  0  0
 12 13  1  0  0  0
 13 14  2  0  0  0
 14  7  1  0  0  0
  7  1  1  0  0  0
  1  2  2  0  0  0
  2  3  1  0  0  0
  3  4  2  0  0  0
  4  5  1  0  0  0
  5 21  1  0  0  0
 21 23  1  0  0  0
 23 24  2  0  0  0
 24 25  1  0  0  0
 25 26  2  0  0  0
 26 27  1  0  0  0
 27 28  2  0  0  0
 27 29  1  0  0  0
 29 30  1  0  0  0
 30 31  2  0  0  0
 31 32  1  0  0  0
 32 33  2  0  0  0
 33 34  1  0  0  0
 34 35  2  0  0  0
 35 36  1  0  0  0
 36 37  2  0  0  0
  5  6  2  0  0  0
 14  9  1  0  0  0
  6  1  1  0  0  0
 28 23  1  0  0  0
 37 29  1  0  0  0
 37 32  1  0  0  0
 15 19  1  0  0  0
 15 20  1  0  0  0
  7  8  1  0  0  0
 21 22  1  0  0  0
M  END
> <minimizedAffinity>
-7.84357

> <CNNscore>
0.2151035070

> <CNNaffinity>
7.2176489830

> <CNN_VS>
1.5525416136

> <CNNaffinity_variance>
0.1161699146

$$$$
[H]c1nc(N([H])c2c([H])c([H])c([H])c(-n3c([H])nc4c([H])c([H])c([H])c([H])c43)c2[H])nc(N([H])c2c([H])c([H])c([H])c([H])c2S(=O)(=O)N([H])[H])c1[H]


 37 41  0  0  0  0  0  0  0  0999 V2000
   10.1814   21.9363    2.2175 C   0  0  0  0  0  0  0  0  0  0  0  0
   10.7733   20.7750    2.5889 C   0  0  0  0  0  0  0  0  0  0  0  0
   12.1459   20.6085    2.3512 C   0  0  0  0  0  0  0  0  0  0  0  0
   12.8042   21.6103    1.7694 N   0  0  0  0  0  0  0  0  0  0  0  0
   12.2522   22.7605    1.3963 C   0  0  0  0  0  0  0  0  0  0  0  0
   10.9191   22.9140    1.6294 N   0  0  0  0  0  0  0  0  0  0  0  0
    8.7900   22.1758    2.3469 N   0  0  0  0  0  0  0  0  0  0  0  0
    8.4277   22.9534    1.6994 H   0  0  0  0  0  0  0  0  0  0  0  0
    6.7655   20.9399    2.5154 C   0  0  0  0  0  0  0  0  0  0  0  0
    5.7964   20.3083    3.2653 C   0  0  0  0  0  0  0  0  0  0  0  0
    5.8352   20.2853    4.6412 C   0  0  0  0  0  0  0  0  0  0  0  0
    6.8875   20.9203    5.2651 C   0  0  0  0  0  0  0  0  0  0  0  0
    7.8696   21.5588    4.5434 C   0  0  0  0  0  0  0  0  0  0  0  0
    7.8307   21.5857    3.1650 C   0  0  0  0  0  0  0  0  0  0  0  0
    8.0148   20.0379    0.1027 N   0  0  0  0  0  0  0  0  0  0  0  0
    6.6525   20.8597    0.7524 S   0  0  0  0  0  0  0  0  0  0  0  0
    5.4359   20.1042    0.3750 O   0  0  0  0  0  0  0  0  0  0  0  0
    6.5310   22.2434    0.1756 O   0  0  0  0  0  0  0  0  0  0  0  0
    8.5950   20.6060   -0.5419 H   0  0  0  0  0  0  0  0  0  0  0  0
    8.6151   19.7212    0.8896 H   0  0  0  0  0  0  0  0  0  0  0  0
   13.0104   23.7630    0.7930 N   0  0  0  0  0  0  0  0  0  0  0  0
   13.1430   24.6514    1.3686 H   0  0  0  0  0  0  0  0  0  0  0  0
   13.5989   23.6934   -0.4661 C   0  0  0  0  0  0  0  0  0  0  0  0
   13.9853   22.3973   -0.8692 C   0  0  0  0  0  0  0  0  0  0  0  0
   14.5527   22.1663   -2.0796 C   0  0  0  0  0  0  0  0  0  0  0  0
   14.7660   23.1999   -2.9486 C   0  0  0  0  0  0  0  0  0  0  0  0
   14.4059   24.4740   -2.5986 C   0  0  0  0  0  0  0  0  0  0  0  0
   13.8293   24.6871   -1.3616 C   0  0  0  0  0  0  0  0  0  0  0  0
   14.6208   25.5845   -3.5002 N   0  0  0  0  0  0  0  0  0  0  0  0
   13.7924   25.9775   -4.4823 C   0  0  0  0  0  0  0  0  0  0  0  0
   14.3126   27.0527   -5.1263 N   0  0  0  0  0  0  0  0  0  0  0  0
   15.4953   27.3553   -4.5474 C   0  0  0  0  0  0  0  0  0  0  0  0
   16.4100   28.3454   -4.8209 C   0  0  0  0  0  0  0  0  0  0  0  0
   17.5496   28.4171   -4.0537 C   0  0  0  0  0  0  0  0  0  0  0  0
   17.7412   27.4952   -3.0341 C   0  0  0  0  0  0  0  0  0  0  0  0
   16.8070   26.5185   -2.7876 C   0  0  0  0  0  0  0  0  0  0  0  0
   15.6653   26.4305   -3.5410 C   0  0  0  0  0  0  0  0  0  0  0  0
 15 16  1  0  0  0
 16 17  2  0  0  0
 16 18  2  0  0  0
 16  9  1  0  0  0
  9 10  2  0  0  0
 10 11  1  0  0  0
 11 12  2  0  0  0
 12 13  1  0  0  0
 13 14  2  0  0  0
 14  7  1  0  0  0
  7  1  1  0  0  0
  1  2  2  0  0  0
  2  3  1  0  0  0
  3  4  2  0  0  0
  4  5  1  0  0  0
  5 21  1  0  0  0
 21 23  1  0  0  0
 23 24  2  0  0  0
 24 25  1  0  0  0
 25 26  2  0  0  0
 26 27  1  0  0  0
 27 28  2  0  0  0
 27 29  1  0  0  0
 29 30  1  0  0  0
 30 31  2  0  0  0
 31 32  1  0  0  0
 32 33  2  0  0  0
 33 34  1  0  0  0
 34 35  2  0  0  0
 35 36  1  0  0  0
 36 37  2  0  0  0
  5  6  2  0  0  0
 14  9  1  0  0  0
  6  1  1  0  0  0
 28 23  1  0  0  0
 37 29  1  0  0  0
 37 32  1  0  0  0
 15 19  1  0  0  0
 15 20  1  0  0  0
  7  8  1  0  0  0
 21 22  1  0  0  0
M  END
> <minimizedAffinity>
-8.68184

> <CNNscore>
0.2033817619

> <CNNaffinity>
6.9556794167

> <CNN_VS>
1.4146583080

> <CNNaffinity_variance>
0.3883748651

$$$$
[H]c1nc(N([H])c2c([H])c([H])c([H])c(-n3c([H])nc4c([H])c([H])c([H])c([H])c43)c2[H])nc(N([H])c2c([H])c([H])c([H])c([H])c2S(=O)(=O)N([H])[H])c1[H]


 37 41  0  0  0  0  0  0  0  0999 V2000
   14.2017   22.7298    0.0478 C   0  0  0  0  0  0  0  0  0  0  0  0
   14.8223   21.5364   -0.1194 C   0  0  0  0  0  0  0  0  0  0  0  0
   14.3984   20.4399    0.6461 C   0  0  0  0  0  0  0  0  0  0  0  0
   13.3969   20.6283    1.5046 N   0  0  0  0  0  0  0  0  0  0  0  0
   12.7680   21.7846    1.6888 C   0  0  0  0  0  0  0  0  0  0  0  0
   13.1860   22.8447    0.9428 N   0  0  0  0  0  0  0  0  0  0  0  0
   14.6002   23.9138   -0.6223 N   0  0  0  0  0  0  0  0  0  0  0  0
   15.6060   24.2167   -0.3942 H   0  0  0  0  0  0  0  0  0  0  0  0
   14.7005   25.5092   -2.3828 C   0  0  0  0  0  0  0  0  0  0  0  0
   14.0851   26.3271   -3.3062 C   0  0  0  0  0  0  0  0  0  0  0  0
   12.7151   26.4186   -3.4046 C   0  0  0  0  0  0  0  0  0  0  0  0
   11.9566   25.6571   -2.5417 C   0  0  0  0  0  0  0  0  0  0  0  0
   12.5423   24.8315   -1.6098 C   0  0  0  0  0  0  0  0  0  0  0  0
   13.9147   24.7410   -1.5075 C   0  0  0  0  0  0  0  0  0  0  0  0
   17.1376   26.8449   -3.0696 N   0  0  0  0  0  0  0  0  0  0  0  0
   16.4668   25.4211   -2.3796 S   0  0  0  0  0  0  0  0  0  0  0  0
   16.9478   25.3155   -0.9829 O   0  0  0  0  0  0  0  0  0  0  0  0
   16.9275   24.1944   -3.1178 O   0  0  0  0  0  0  0  0  0  0  0  0
   17.7116   26.6847   -3.9179 H   0  0  0  0  0  0  0  0  0  0  0  0
   16.3607   27.4890   -3.3175 H   0  0  0  0  0  0  0  0  0  0  0  0
   11.7257   21.9013    2.6076 N   0  0  0  0  0  0  0  0  0  0  0  0
   11.9774   21.6848    3.6214 H   0  0  0  0  0  0  0  0  0  0  0  0
   10.4182   22.2760    2.3133 C   0  0  0  0  0  0  0  0  0  0  0  0
    9.9668   21.8962    1.0312 C   0  0  0  0  0  0  0  0  0  0  0  0
    8.7078   22.1718    0.6077 C   0  0  0  0  0  0  0  0  0  0  0  0
    7.8355   22.8339    1.4262 C   0  0  0  0  0  0  0  0  0  0  0  0
    8.2314   23.2207    2.6788 C   0  0  0  0  0  0  0  0  0  0  0  0
    9.5175   22.9297    3.0904 C   0  0  0  0  0  0  0  0  0  0  0  0
    7.3275   23.9221    3.5637 N   0  0  0  0  0  0  0  0  0  0  0  0
    6.5292   23.3597    4.4867 C   0  0  0  0  0  0  0  0  0  0  0  0
    5.8191   24.3186    5.1331 N   0  0  0  0  0  0  0  0  0  0  0  0
    6.1678   25.5173    4.6162 C   0  0  0  0  0  0  0  0  0  0  0  0
    5.7445   26.7908    4.9177 C   0  0  0  0  0  0  0  0  0  0  0  0
    6.2817   27.8449    4.2160 C   0  0  0  0  0  0  0  0  0  0  0  0
    7.2277   27.5943    3.2320 C   0  0  0  0  0  0  0  0  0  0  0  0
    7.6285   26.3094    2.9560 C   0  0  0  0  0  0  0  0  0  0  0  0
    7.1050   25.2459    3.6441 C   0  0  0  0  0  0  0  0  0  0  0  0
 15 16  1  0  0  0
 16 17  2  0  0  0
 16 18  2  0  0  0
 16  9  1  0  0  0
  9 10  2  0  0  0
 10 11  1  0  0  0
 11 12  2  0  0  0
 12 13  1  0  0  0
 13 14  2  0  0  0
 14  7  1  0  0  0
  7  1  1  0  0  0
  1  2  2  0  0  0
  2  3  1  0  0  0
  3  4  2  0  0  0
  4  5  1  0  0  0
  5 21  1  0  0  0
 21 23  1  0  0  0
 23 24  2  0  0  0
 24 25  1  0  0  0
 25 26  2  0  0  0
 26 27  1  0  0  0
 27 28  2  0  0  0
 27 29  1  0  0  0
 29 30  1  0  0  0
 30 31  2  0  0  0
 31 32  1  0  0  0
 32 33  2  0  0  0
 33 34  1  0  0  0
 34 35  2  0  0  0
 35 36  1  0  0  0
 36 37  2  0  0  0
  5  6  2  0  0  0
 14  9  1  0  0  0
  6  1  1  0  0  0
 28 23  1  0  0  0
 37 29  1  0  0  0
 37 32  1  0  0  0
 15 19  1  0  0  0
 15 20  1  0  0  0
  7  8  1  0  0  0
 21 22  1  0  0  0
M  END
> <minimizedAffinity>
-8.40541

> <CNNscore>
0.1862145960

> <CNNaffinity>
6.9098305702

> <CNN_VS>
1.2867113352

> <CNNaffinity_variance>
0.0757800490

$$$$
[H]c1nc(N([H])c2c([H])c([H])c([H])c(-n3c([H])nc4c([H])c([H])c([H])c([H])c43)c2[H])nc(N([H])c2c([H])c([H])c([H])c([H])c2S(=O)(=O)N([H])[H])c1[H]


 37 41  0  0  0  0  0  0  0  0999 V2000
   12.0835   23.4885   -0.7934 C   0  0  0  0  0  0  0  0  0  0  0  0
   11.3149   22.9196   -1.7539 C   0  0  0  0  0  0  0  0  0  0  0  0
   10.6534   21.7162   -1.4669 C   0  0  0  0  0  0  0  0  0  0  0  0
   10.8139   21.1902   -0.2531 N   0  0  0  0  0  0  0  0  0  0  0  0
   11.5584   21.7254    0.7091 C   0  0  0  0  0  0  0  0  0  0  0  0
   12.1983   22.8930    0.4224 N   0  0  0  0  0  0  0  0  0  0  0  0
   12.8492   24.6628   -1.0048 N   0  0  0  0  0  0  0  0  0  0  0  0
   12.5783   25.4733   -0.3528 H   0  0  0  0  0  0  0  0  0  0  0  0
   15.1851   24.8281   -1.4177 C   0  0  0  0  0  0  0  0  0  0  0  0
   16.2469   25.0585   -2.2661 C   0  0  0  0  0  0  0  0  0  0  0  0
   16.0671   25.3955   -3.5886 C   0  0  0  0  0  0  0  0  0  0  0  0
   14.7743   25.4983   -4.0555 C   0  0  0  0  0  0  0  0  0  0  0  0
   13.6947   25.2740   -3.2327 C   0  0  0  0  0  0  0  0  0  0  0  0
   13.8728   24.9396   -1.9066 C   0  0  0  0  0  0  0  0  0  0  0  0
   15.1408   22.6852    0.4800 N   0  0  0  0  0  0  0  0  0  0  0  0
   15.5271   24.3437    0.2484 S   0  0  0  0  0  0  0  0  0  0  0  0
   16.9716   24.5227    0.5222 O   0  0  0  0  0  0  0  0  0  0  0  0
   14.7662   25.2147    1.2098 O   0  0  0  0  0  0  0  0  0  0  0  0
   14.4102   22.5074    1.1937 H   0  0  0  0  0  0  0  0  0  0  0  0
   14.8156   22.2926   -0.4255 H   0  0  0  0  0  0  0  0  0  0  0  0
   11.6753   21.1133    1.9564 N   0  0  0  0  0  0  0  0  0  0  0  0
   12.4866   20.4284    2.0604 H   0  0  0  0  0  0  0  0  0  0  0  0
   10.8419   21.3268    3.0502 C   0  0  0  0  0  0  0  0  0  0  0  0
   11.1576   20.5630    4.1942 C   0  0  0  0  0  0  0  0  0  0  0  0
   10.4492   20.6769    5.3455 C   0  0  0  0  0  0  0  0  0  0  0  0
    9.3978   21.5472    5.4238 C   0  0  0  0  0  0  0  0  0  0  0  0
    9.0568   22.3084    4.3377 C   0  0  0  0  0  0  0  0  0  0  0  0
    9.7915   22.1773    3.1754 C   0  0  0  0  0  0  0  0  0  0  0  0
    7.9488   23.2365    4.3951 N   0  0  0  0  0  0  0  0  0  0  0  0
    6.6639   22.9206    4.6287 C   0  0  0  0  0  0  0  0  0  0  0  0
    5.8993   24.0415    4.6107 N   0  0  0  0  0  0  0  0  0  0  0  0
    6.7075   25.0952    4.3615 C   0  0  0  0  0  0  0  0  0  0  0  0
    6.4336   26.4378    4.2422 C   0  0  0  0  0  0  0  0  0  0  0  0
    7.4733   27.2997    3.9805 C   0  0  0  0  0  0  0  0  0  0  0  0
    8.7582   26.7929    3.8456 C   0  0  0  0  0  0  0  0  0  0  0  0
    8.9970   25.4457    3.9708 C   0  0  0  0  0  0  0  0  0  0  0  0
    7.9744   24.5710    4.2313 C   0  0  0  0  0  0  0  0  0  0  0  0
 15 16  1  0  0  0
 16 17  2  0  0  0
 16 18  2  0  0  0
 16  9  1  0  0  0
  9 10  2  0  0  0
 10 11  1  0  0  0
 11 12  2  0  0  0
 12 13  1  0  0  0
 13 14  2  0  0  0
 14  7  1  0  0  0
  7  1  1  0  0  0
  1  2  2  0  0  0
  2  3  1  0  0  0
  3  4  2  0  0  0
  4  5  1  0  0  0
  5 21  1  0  0  0
 21 23  1  0  0  0
 23 24  2  0  0  0
 24 25  1  0  0  0
 25 26  2  0  0  0
 26 27  1  0  0  0
 27 28  2  0  0  0
 27 29  1  0  0  0
 29 30  1  0  0  0
 30 31  2  0  0  0
 31 32  1  0  0  0
 32 33  2  0  0  0
 33 34  1  0  0  0
 34 35  2  0  0  0
 35 36  1  0  0  0
 36 37  2  0  0  0
  5  6  2  0  0  0
 14  9  1  0  0  0
  6  1  1  0  0  0
 28 23  1  0  0  0
 37 29  1  0  0  0
 37 32  1  0  0  0
 15 19  1  0  0  0
 15 20  1  0  0  0
  7  8  1  0  0  0
 21 22  1  0  0  0
M  END
> <minimizedAffinity>
-8.65357

> <CNNscore>
0.1700160354

> <CNNaffinity>
7.1265230179

> <CNN_VS>
1.2116231918

> <CNNaffinity_variance>
0.2198851556

$$$$
[H]c1nc(N([H])c2c([H])c([H])c([H])c(-n3c([H])nc4c([H])c([H])c([H])c([H])c43)c2[H])nc(N([H])c2c([H])c([H])c([H])c([H])c2S(=O)(=O)N([H])[H])c1[H]


 37 41  0  0  0  0  0  0  0  0999 V2000
   13.1362   22.3982   -0.7317 C   0  0  0  0  0  0  0  0  0  0  0  0
   12.4587   21.4680   -1.4479 C   0  0  0  0  0  0  0  0  0  0  0  0
   11.7783   20.4500   -0.7633 C   0  0  0  0  0  0  0  0  0  0  0  0
   11.8311   20.4505    0.5682 N   0  0  0  0  0  0  0  0  0  0  0  0
   12.4845   21.3494    1.2974 C   0  0  0  0  0  0  0  0  0  0  0  0
   13.1435   22.3339    0.6254 N   0  0  0  0  0  0  0  0  0  0  0  0
   13.9136   23.4232   -1.3273 N   0  0  0  0  0  0  0  0  0  0  0  0
   14.9711   23.2973   -1.1821 H   0  0  0  0  0  0  0  0  0  0  0  0
   14.2742   24.8151   -3.2212 C   0  0  0  0  0  0  0  0  0  0  0  0
   13.9384   25.9002   -4.0024 C   0  0  0  0  0  0  0  0  0  0  0  0
   12.8999   26.7432   -3.6765 C   0  0  0  0  0  0  0  0  0  0  0  0
   12.1879   26.4714   -2.5281 C   0  0  0  0  0  0  0  0  0  0  0  0
   12.4994   25.3959   -1.7286 C   0  0  0  0  0  0  0  0  0  0  0  0
   13.5415   24.5522   -2.0517 C   0  0  0  0  0  0  0  0  0  0  0  0
   15.1190   22.1129   -3.6444 N   0  0  0  0  0  0  0  0  0  0  0  0
   15.5881   23.7620   -3.7614 S   0  0  0  0  0  0  0  0  0  0  0  0
   15.8957   24.0537   -5.1805 O   0  0  0  0  0  0  0  0  0  0  0  0
   16.8314   24.0280   -2.9581 O   0  0  0  0  0  0  0  0  0  0  0  0
   15.7037   21.5416   -3.0068 H   0  0  0  0  0  0  0  0  0  0  0  0
   14.1358   22.0724   -3.3106 H   0  0  0  0  0  0  0  0  0  0  0  0
   12.4913   21.2823    2.6901 N   0  0  0  0  0  0  0  0  0  0  0  0
   13.4538   21.2094    3.1442 H   0  0  0  0  0  0  0  0  0  0  0  0
   11.3691   21.3101    3.5126 C   0  0  0  0  0  0  0  0  0  0  0  0
   11.3532   20.3291    4.5271 C   0  0  0  0  0  0  0  0  0  0  0  0
   10.3360   20.2437    5.4206 C   0  0  0  0  0  0  0  0  0  0  0  0
    9.2880   21.1192    5.3567 C   0  0  0  0  0  0  0  0  0  0  0  0
    9.2628   22.0873    4.3885 C   0  0  0  0  0  0  0  0  0  0  0  0
   10.3088   22.1571    3.4889 C   0  0  0  0  0  0  0  0  0  0  0  0
    8.1655   23.0256    4.2996 N   0  0  0  0  0  0  0  0  0  0  0  0
    6.8613   22.7324    4.4361 C   0  0  0  0  0  0  0  0  0  0  0  0
    6.1150   23.8565    4.2922 N   0  0  0  0  0  0  0  0  0  0  0  0
    6.9546   24.8892    4.0596 C   0  0  0  0  0  0  0  0  0  0  0  0
    6.7086   26.2256    3.8462 C   0  0  0  0  0  0  0  0  0  0  0  0
    7.7776   27.0643    3.6317 C   0  0  0  0  0  0  0  0  0  0  0  0
    9.0631   26.5412    3.6367 C   0  0  0  0  0  0  0  0  0  0  0  0
    9.2736   25.2008    3.8530 C   0  0  0  0  0  0  0  0  0  0  0  0
    8.2216   24.3492    4.0687 C   0  0  0  0  0  0  0  0  0  0  0  0
 15 16  1  0  0  0
 16 17  2  0  0  0
 16 18  2  0  0  0
 16  9  1  0  0  0
  9 10  2  0  0  0
 10 11  1  0  0  0
 11 12  2  0  0  0
 12 13  1  0  0  0
 13 14  2  0  0  0
 14  7  1  0  0  0
  7  1  1  0  0  0
  1  2  2  0  0  0
  2  3  1  0  0  0
  3  4  2  0  0  0
  4  5  1  0  0  0
  5 21  1  0  0  0
 21 23  1  0  0  0
 23 24  2  0  0  0
 24 25  1  0  0  0
 25 26  2  0  0  0
 26 27  1  0  0  0
 27 28  2  0  0  0
 27 29  1  0  0  0
 29 30  1  0  0  0
 30 31  2  0  0  0
 31 32  1  0  0  0
 32 33  2  0  0  0
 33 34  1  0  0  0
 34 35  2  0  0  0
 35 36  1  0  0  0
 36 37  2  0  0  0
  5  6  2  0  0  0
 14  9  1  0  0  0
  6  1  1  0  0  0
 28 23  1  0  0  0
 37 29  1  0  0  0
 37 32  1  0  0  0
 15 19  1  0  0  0
 15 20  1  0  0  0
  7  8  1  0  0  0
 21 22  1  0  0  0
M  END
> <minimizedAffinity>
-8.63125

> <CNNscore>
0.1695635766

> <CNNaffinity>
6.9839477539

> <CNN_VS>
1.1842231750

> <CNNaffinity_variance>
0.0336327553

$$$$
[H]c1nc(N([H])c2c([H])c([H])c([H])c(-n3c([H])nc4c([H])c([H])c([H])c([H])c43)c2[H])nc(N([H])c2c([H])c([H])c([H])c([H])c2S(=O)(=O)N([H])[H])c1[H]


 37 41  0  0  0  0  0  0  0  0999 V2000
   14.2971   22.6540   -0.3371 C   0  0  0  0  0  0  0  0  0  0  0  0
   14.3779   21.6615   -1.2567 C   0  0  0  0  0  0  0  0  0  0  0  0
   13.8383   20.4045   -0.9454 C   0  0  0  0  0  0  0  0  0  0  0  0
   13.2666   20.2495    0.2482 N   0  0  0  0  0  0  0  0  0  0  0  0
   13.1703   21.2034    1.1688 C   0  0  0  0  0  0  0  0  0  0  0  0
   13.6976   22.4205    0.8595 N   0  0  0  0  0  0  0  0  0  0  0  0
   14.8731   23.9358   -0.5242 N   0  0  0  0  0  0  0  0  0  0  0  0
   15.2778   24.3587    0.3773 H   0  0  0  0  0  0  0  0  0  0  0  0
   13.7959   25.1664   -2.2503 C   0  0  0  0  0  0  0  0  0  0  0  0
   13.8437   25.9806   -3.3617 C   0  0  0  0  0  0  0  0  0  0  0  0
   15.0344   26.3865   -3.9207 C   0  0  0  0  0  0  0  0  0  0  0  0
   16.2022   25.9525   -3.3310 C   0  0  0  0  0  0  0  0  0  0  0  0
   16.1861   25.1396   -2.2211 C   0  0  0  0  0  0  0  0  0  0  0  0
   14.9942   24.7291   -1.6616 C   0  0  0  0  0  0  0  0  0  0  0  0
   12.1414   25.1793    0.0859 N   0  0  0  0  0  0  0  0  0  0  0  0
   12.2142   24.7514   -1.5769 S   0  0  0  0  0  0  0  0  0  0  0  0
   11.1638   25.5103   -2.2941 O   0  0  0  0  0  0  0  0  0  0  0  0
   11.9349   23.2862   -1.7702 O   0  0  0  0  0  0  0  0  0  0  0  0
   11.9760   24.3838    0.7298 H   0  0  0  0  0  0  0  0  0  0  0  0
   13.0387   25.6321    0.3496 H   0  0  0  0  0  0  0  0  0  0  0  0
   12.5547   20.9625    2.3965 N   0  0  0  0  0  0  0  0  0  0  0  0
   13.1723   20.5164    3.1431 H   0  0  0  0  0  0  0  0  0  0  0  0
   11.2333   21.2584    2.7173 C   0  0  0  0  0  0  0  0  0  0  0  0
   11.0452   21.8161    4.0001 C   0  0  0  0  0  0  0  0  0  0  0  0
    9.8165   22.1769    4.4478 C   0  0  0  0  0  0  0  0  0  0  0  0
    8.7167   22.0052    3.6540 C   0  0  0  0  0  0  0  0  0  0  0  0
    8.8532   21.4679    2.4018 C   0  0  0  0  0  0  0  0  0  0  0  0
   10.1134   21.1078    1.9653 C   0  0  0  0  0  0  0  0  0  0  0  0
    7.7054   21.2762    1.5427 N   0  0  0  0  0  0  0  0  0  0  0  0
    6.4241   21.5133    1.8704 C   0  0  0  0  0  0  0  0  0  0  0  0
    5.6148   21.2225    0.8207 N   0  0  0  0  0  0  0  0  0  0  0  0
    6.3901   20.7915   -0.1985 C   0  0  0  0  0  0  0  0  0  0  0  0
    6.0665   20.3768   -1.4694 C   0  0  0  0  0  0  0  0  0  0  0  0
    7.0816   19.9851   -2.3110 C   0  0  0  0  0  0  0  0  0  0  0  0
    8.3924   20.0194   -1.8563 C   0  0  0  0  0  0  0  0  0  0  0  0
    8.6808   20.4392   -0.5803 C   0  0  0  0  0  0  0  0  0  0  0  0
    7.6834   20.8334    0.2732 C   0  0  0  0  0  0  0  0  0  0  0  0
 15 16  1  0  0  0
 16 17  2  0  0  0
 16 18  2  0  0  0
 16  9  1  0  0  0
  9 10  2  0  0  0
 10 11  1  0  0  0
 11 12  2  0  0  0
 12 13  1  0  0  0
 13 14  2  0  0  0
 14  7  1  0  0  0
  7  1  1  0  0  0
  1  2  2  0  0  0
  2  3  1  0  0  0
  3  4  2  0  0  0
  4  5  1  0  0  0
  5 21  1  0  0  0
 21 23  1  0  0  0
 23 24  2  0  0  0
 24 25  1  0  0  0
 25 26  2  0  0  0
 26 27  1  0  0  0
 27 28  2  0  0  0
 27 29  1  0  0  0
 29 30  1  0  0  0
 30 31  2  0  0  0
 31 32  1  0  0  0
 32 33  2  0  0  0
 33 34  1  0  0  0
 34 35  2  0  0  0
 35 36  1  0  0  0
 36 37  2  0  0  0
  5  6  2  0  0  0
 14  9  1  0  0  0
  6  1  1  0  0  0
 28 23  1  0  0  0
 37 29  1  0  0  0
 37 32  1  0  0  0
 15 19  1  0  0  0
 15 20  1  0  0  0
  7  8  1  0  0  0
 21 22  1  0  0  0
M  END
> <minimizedAffinity>
-7.90960

> <CNNscore>
0.1682770401

> <CNNaffinity>
6.7074494362

> <CNN_VS>
1.1287097931

> <CNNaffinity_variance>
0.1097448021

$$$$
[H]c1nc(N([H])c2c([H])c([H])c([H])c(-n3c([H])nc4c([H])c([H])c([H])c([H])c43)c2[H])nc(N([H])c2c([H])c([H])c([H])c([H])c2S(=O)(=O)N([H])[H])c1[H]


 37 41  0  0  0  0  0  0  0  0999 V2000
   12.5855   24.2059   -1.7490 C   0  0  0  0  0  0  0  0  0  0  0  0
   11.3047   24.5852   -1.9790 C   0  0  0  0  0  0  0  0  0  0  0  0
   10.3013   24.1476   -1.1016 C   0  0  0  0  0  0  0  0  0  0  0  0
   10.6618   23.3765   -0.0764 N   0  0  0  0  0  0  0  0  0  0  0  0
   11.9084   22.9904    0.1760 C   0  0  0  0  0  0  0  0  0  0  0  0
   12.8767   23.4183   -0.6810 N   0  0  0  0  0  0  0  0  0  0  0  0
   13.6603   24.5333   -2.6137 N   0  0  0  0  0  0  0  0  0  0  0  0
   13.4423   24.3597   -3.6518 H   0  0  0  0  0  0  0  0  0  0  0  0
   15.4252   26.0025   -3.2306 C   0  0  0  0  0  0  0  0  0  0  0  0
   16.6674   26.5570   -3.0068 C   0  0  0  0  0  0  0  0  0  0  0  0
   17.4512   26.1883   -1.9369 C   0  0  0  0  0  0  0  0  0  0  0  0
   16.9552   25.2331   -1.0758 C   0  0  0  0  0  0  0  0  0  0  0  0
   15.7191   24.6621   -1.2732 C   0  0  0  0  0  0  0  0  0  0  0  0
   14.9338   25.0277   -2.3464 C   0  0  0  0  0  0  0  0  0  0  0  0
   12.8701   26.9524   -4.1051 N   0  0  0  0  0  0  0  0  0  0  0  0
   14.4749   26.5895   -4.6017 S   0  0  0  0  0  0  0  0  0  0  0  0
   15.0875   27.8326   -5.1239 O   0  0  0  0  0  0  0  0  0  0  0  0
   14.4803   25.5739   -5.7109 O   0  0  0  0  0  0  0  0  0  0  0  0
   12.1349   26.3975   -4.5808 H   0  0  0  0  0  0  0  0  0  0  0  0
   12.7955   26.7850   -3.0823 H   0  0  0  0  0  0  0  0  0  0  0  0
   12.2058   22.1821    1.2725 N   0  0  0  0  0  0  0  0  0  0  0  0
   13.1451   21.6778    1.2331 H   0  0  0  0  0  0  0  0  0  0  0  0
   11.3968   21.9932    2.3888 C   0  0  0  0  0  0  0  0  0  0  0  0
   11.8531   21.0095    3.2922 C   0  0  0  0  0  0  0  0  0  0  0  0
   11.1830   20.7271    4.4374 C   0  0  0  0  0  0  0  0  0  0  0  0
   10.0332   21.3993    4.7460 C   0  0  0  0  0  0  0  0  0  0  0  0
    9.5544   22.3621    3.8980 C   0  0  0  0  0  0  0  0  0  0  0  0
   10.2524   22.6345    2.7375 C   0  0  0  0  0  0  0  0  0  0  0  0
    8.3404   23.0875    4.2018 N   0  0  0  0  0  0  0  0  0  0  0  0
    7.1556   22.5445    4.5285 C   0  0  0  0  0  0  0  0  0  0  0  0
    6.2408   23.5227    4.7470 N   0  0  0  0  0  0  0  0  0  0  0  0
    6.8491   24.7142    4.5576 C   0  0  0  0  0  0  0  0  0  0  0  0
    6.3706   26.0002    4.6533 C   0  0  0  0  0  0  0  0  0  0  0  0
    7.2323   27.0422    4.4003 C   0  0  0  0  0  0  0  0  0  0  0  0
    8.5490   26.7673    4.0585 C   0  0  0  0  0  0  0  0  0  0  0  0
    8.9944   25.4704    3.9717 C   0  0  0  0  0  0  0  0  0  0  0  0
    8.1513   24.4187    4.2200 C   0  0  0  0  0  0  0  0  0  0  0  0
 15 16  1  0  0  0
 16 17  2  0  0  0
 16 18  2  0  0  0
 16  9  1  0  0  0
  9 10  2  0  0  0
 10 11  1  0  0  0
 11 12  2  0  0  0
 12 13  1  0  0  0
 13 14  2  0  0  0
 14  7  1  0  0  0
  7  1  1  0  0  0
  1  2  2  0  0  0
  2  3  1  0  0  0
  3  4  2  0  0  0
  4  5  1  0  0  0
  5 21  1  0  0  0
 21 23  1  0  0  0
 23 24  2  0  0  0
 24 25  1  0  0  0
 25 26  2  0  0  0
 26 27  1  0  0  0
 27 28  2  0  0  0
 27 29  1  0  0  0
 29 30  1  0  0  0
 30 31  2  0  0  0
 31 32  1  0  0  0
 32 33  2  0  0  0
 33 34  1  0  0  0
 34 35  2  0  0  0
 35 36  1  0  0  0
 36 37  2  0  0  0
  5  6  2  0  0  0
 14  9  1  0  0  0
  6  1  1  0  0  0
 28 23  1  0  0  0
 37 29  1  0  0  0
 37 32  1  0  0  0
 15 19  1  0  0  0
 15 20  1  0  0  0
  7  8  1  0  0  0
 21 22  1  0  0  0
M  END
> <minimizedAffinity>
-7.82364

> <CNNscore>
0.1573526263

> <CNNaffinity>
7.0194635391

> <CNN_VS>
1.1045310497

> <CNNaffinity_variance>
0.1151605248

$$$$
[H]ON([H])C(=O)[C@@]([H])(O[H])[C@]([H])(C(=O)N([H])[C@]([H])(C(=O)N([H])C([H])([H])[H])C([H])([H])c1c([H])c([H])c([H])c([H])c1[H])C([H])([H])C([H])(C([H])([H])[H])C([H])([H])[H]


 31 31  0  0  0  0  0  0  0  0999 V2000
   12.0814   23.3745    0.8651 N   0  0  0  0  0  0  0  0  0  0  0  0
   11.9001   23.9673   -0.4472 C   0  0  0  0  0  0  0  0  0  0  0  0
   10.6983   24.1442   -0.7361 O   0  0  0  0  0  0  0  0  0  0  0  0
   13.0486   23.1921    1.1855 H   0  0  0  0  0  0  0  0  0  0  0  0
   10.9068   23.0491    1.7016 C   0  0  0  0  0  0  0  0  0  0  0  0
    8.3942   20.8135   -0.2657 C   0  0  0  0  0  0  0  0  0  0  0  0
    9.0635   21.9927    0.2773 N   0  0  0  0  0  0  0  0  0  0  0  0
   10.1774   21.9118    1.1237 C   0  0  0  0  0  0  0  0  0  0  0  0
   10.5947   20.7357    1.4235 O   0  0  0  0  0  0  0  0  0  0  0  0
    8.6349   22.8995    0.0010 H   0  0  0  0  0  0  0  0  0  0  0  0
   10.0907   24.3247    1.6902 C   0  0  0  0  0  0  0  0  0  0  0  0
    9.5609   24.7697    2.9645 C   0  0  0  0  0  0  0  0  0  0  0  0
    9.2184   26.0964    3.2249 C   0  0  0  0  0  0  0  0  0  0  0  0
    8.6881   26.5200    4.4100 C   0  0  0  0  0  0  0  0  0  0  0  0
    8.4648   25.6241    5.4245 C   0  0  0  0  0  0  0  0  0  0  0  0
    8.7921   24.2983    5.2039 C   0  0  0  0  0  0  0  0  0  0  0  0
    9.3248   23.8734    4.0129 C   0  0  0  0  0  0  0  0  0  0  0  0
   13.0821   24.2874   -1.2671 C   0  0  0  0  0  0  0  0  0  0  0  0
   14.2926   23.4771   -1.1812 C   0  0  0  0  0  0  0  0  0  0  0  0
   14.1125   22.4532   -2.1872 O   0  0  0  0  0  0  0  0  0  0  0  0
   15.0086   22.1011   -2.3651 H   0  0  0  0  0  0  0  0  0  0  0  0
   14.8050   22.8962    0.0270 C   0  0  0  0  0  0  0  0  0  0  0  0
   15.3631   23.5371    0.9293 O   0  0  0  0  0  0  0  0  0  0  0  0
   14.6923   21.4932    0.2511 N   0  0  0  0  0  0  0  0  0  0  0  0
   15.1533   20.8650    1.3659 O   0  0  0  0  0  0  0  0  0  0  0  0
   14.2396   20.8868   -0.4529 H   0  0  0  0  0  0  0  0  0  0  0  0
   14.4833   20.8780    2.0949 H   0  0  0  0  0  0  0  0  0  0  0  0
   12.7454   24.9607   -2.5579 C   0  0  0  0  0  0  0  0  0  0  0  0
   13.6325   25.9669   -3.1280 C   0  0  0  0  0  0  0  0  0  0  0  0
   12.9885   27.0742   -3.9101 C   0  0  0  0  0  0  0  0  0  0  0  0
   14.6121   25.2950   -4.1141 C   0  0  0  0  0  0  0  0  0  0  0  0
  6  7  1  0  0  0
  7  8  1  0  0  0
  8  9  2  0  0  0
  8  5  1  0  0  0
  5 11  1  0  0  0
 11 12  1  0  0  0
 12 13  2  0  0  0
 13 14  1  0  0  0
 14 15  2  0  0  0
 15 16  1  0  0  0
 16 17  2  0  0  0
  5  1  1  0  0  0
  1  2  1  0  0  0
  2  3  2  0  0  0
  2 18  1  0  0  0
 18 28  1  0  0  0
 28 29  1  0  0  0
 29 30  1  0  0  0
 29 31  1  0  0  0
 18 19  1  0  0  0
 19 20  1  0  0  0
 19 22  1  0  0  0
 22 23  2  0  0  0
 22 24  1  0  0  0
 24 25  1  0  0  0
 17 12  1  0  0  0
  7 10  1  0  0  0
  1  4  1  0  0  0
 20 21  1  0  0  0
 24 26  1  0  0  0
 25 27  1  0  0  0
M  END
> <minimizedAffinity>
-7.81120

> <CNNscore>
0.3745705485

> <CNNaffinity>
6.3975424767

> <CNN_VS>
2.3963310719

> <CNNaffinity_variance>
0.4452369213

$$$$
[H]ON([H])C(=O)[C@@]([H])(O[H])[C@]([H])(C(=O)N([H])[C@]([H])(C(=O)N([H])C([H])([H])[H])C([H])([H])c1c([H])c([H])c([H])c([H])c1[H])C([H])([H])C([H])(C([H])([H])[H])C([H])([H])[H]


 31 31  0  0  0  0  0  0  0  0999 V2000
   12.9661   24.1692   -1.5486 N   0  0  0  0  0  0  0  0  0  0  0  0
   13.3277   25.2782   -2.4122 C   0  0  0  0  0  0  0  0  0  0  0  0
   12.3365   25.9262   -2.8079 O   0  0  0  0  0  0  0  0  0  0  0  0
   13.7283   23.5770   -1.1749 H   0  0  0  0  0  0  0  0  0  0  0  0
   11.5466   23.9116   -1.2261 C   0  0  0  0  0  0  0  0  0  0  0  0
    9.9397   24.5977    2.2564 C   0  0  0  0  0  0  0  0  0  0  0  0
   10.1919   24.0152    0.9409 N   0  0  0  0  0  0  0  0  0  0  0  0
   11.2268   24.4513    0.1027 C   0  0  0  0  0  0  0  0  0  0  0  0
   11.9587   25.4127    0.5355 O   0  0  0  0  0  0  0  0  0  0  0  0
    9.5285   23.2624    0.6664 H   0  0  0  0  0  0  0  0  0  0  0  0
   11.4322   22.4024   -1.2797 C   0  0  0  0  0  0  0  0  0  0  0  0
   12.5083   21.6462   -0.6693 C   0  0  0  0  0  0  0  0  0  0  0  0
   13.6156   21.1870   -1.3823 C   0  0  0  0  0  0  0  0  0  0  0  0
   14.6501   20.5026   -0.8109 C   0  0  0  0  0  0  0  0  0  0  0  0
   14.6379   20.2317    0.5338 C   0  0  0  0  0  0  0  0  0  0  0  0
   13.5557   20.6712    1.2750 C   0  0  0  0  0  0  0  0  0  0  0  0
   12.5167   21.3588    0.7002 C   0  0  0  0  0  0  0  0  0  0  0  0
   14.7478   25.5221   -2.7218 C   0  0  0  0  0  0  0  0  0  0  0  0
   15.7719   25.3806   -1.6920 C   0  0  0  0  0  0  0  0  0  0  0  0
   16.8482   24.6723   -2.3497 O   0  0  0  0  0  0  0  0  0  0  0  0
   17.6427   24.8367   -1.8017 H   0  0  0  0  0  0  0  0  0  0  0  0
   15.5481   24.8331   -0.3845 C   0  0  0  0  0  0  0  0  0  0  0  0
   14.8275   25.3549    0.4785 O   0  0  0  0  0  0  0  0  0  0  0  0
   16.1754   23.6116   -0.0025 N   0  0  0  0  0  0  0  0  0  0  0  0
   16.0179   23.0283    1.2162 O   0  0  0  0  0  0  0  0  0  0  0  0
   16.7925   23.1124   -0.6644 H   0  0  0  0  0  0  0  0  0  0  0  0
   15.2184   22.4445    1.2400 H   0  0  0  0  0  0  0  0  0  0  0  0
   15.1022   25.2419   -4.1461 C   0  0  0  0  0  0  0  0  0  0  0  0
   14.9869   26.2808   -5.1618 C   0  0  0  0  0  0  0  0  0  0  0  0
   15.3937   25.9120   -6.5587 C   0  0  0  0  0  0  0  0  0  0  0  0
   15.8861   27.4774   -4.7837 C   0  0  0  0  0  0  0  0  0  0  0  0
  6  7  1  0  0  0
  7  8  1  0  0  0
  8  9  2  0  0  0
  8  5  1  0  0  0
  5 11  1  0  0  0
 11 12  1  0  0  0
 12 13  2  0  0  0
 13 14  1  0  0  0
 14 15  2  0  0  0
 15 16  1  0  0  0
 16 17  2  0  0  0
  5  1  1  0  0  0
  1  2  1  0  0  0
  2  3  2  0  0  0
  2 18  1  0  0  0
 18 28  1  0  0  0
 28 29  1  0  0  0
 29 30  1  0  0  0
 29 31  1  0  0  0
 18 19  1  0  0  0
 19 20  1  0  0  0
 19 22  1  0  0  0
 22 23  2  0  0  0
 22 24  1  0  0  0
 24 25  1  0  0  0
 17 12  1  0  0  0
  7 10  1  0  0  0
  1  4  1  0  0  0
 20 21  1  0  0  0
 24 26  1  0  0  0
 25 27  1  0  0  0
M  END
> <minimizedAffinity>
-6.74988

> <CNNscore>
0.3283244371

> <CNNaffinity>
6.6762580872

> <CNN_VS>
2.1919786930

> <CNNaffinity_variance>
0.0856261477

$$$$
[H]ON([H])C(=O)[C@@]([H])(O[H])[C@]([H])(C(=O)N([H])[C@]([H])(C(=O)N([H])C([H])([H])[H])C([H])([H])c1c([H])c([H])c([H])c([H])c1[H])C([H])([H])C([H])(C([H])([H])[H])C([H])([H])[H]


 31 31  0  0  0  0  0  0  0  0999 V2000
   11.9596   23.4785   -0.7067 N   0  0  0  0  0  0  0  0  0  0  0  0
   13.1996   24.1108   -0.2953 C   0  0  0  0  0  0  0  0  0  0  0  0
   13.3978   24.0319    0.9349 O   0  0  0  0  0  0  0  0  0  0  0  0
   11.7157   23.4978   -1.7124 H   0  0  0  0  0  0  0  0  0  0  0  0
   11.0870   22.8328    0.2968 C   0  0  0  0  0  0  0  0  0  0  0  0
    8.7230   20.2888   -1.4698 C   0  0  0  0  0  0  0  0  0  0  0  0
    9.2523   21.5372   -0.9270 N   0  0  0  0  0  0  0  0  0  0  0  0
   10.4863   21.6162   -0.2675 C   0  0  0  0  0  0  0  0  0  0  0  0
   11.1490   20.5242   -0.1426 O   0  0  0  0  0  0  0  0  0  0  0  0
    8.6304   22.3617   -1.0518 H   0  0  0  0  0  0  0  0  0  0  0  0
   10.0540   23.8939    0.6134 C   0  0  0  0  0  0  0  0  0  0  0  0
    9.4380   23.8317    1.9246 C   0  0  0  0  0  0  0  0  0  0  0  0
    9.9957   23.1332    2.9951 C   0  0  0  0  0  0  0  0  0  0  0  0
    9.4409   23.0955    4.2425 C   0  0  0  0  0  0  0  0  0  0  0  0
    8.2724   23.7673    4.4976 C   0  0  0  0  0  0  0  0  0  0  0  0
    7.6886   24.4719    3.4602 C   0  0  0  0  0  0  0  0  0  0  0  0
    8.2467   24.5094    2.2072 C   0  0  0  0  0  0  0  0  0  0  0  0
   14.0588   24.7481   -1.3090 C   0  0  0  0  0  0  0  0  0  0  0  0
   15.5001   24.5203   -1.3166 C   0  0  0  0  0  0  0  0  0  0  0  0
   15.9253   24.8606    0.0236 O   0  0  0  0  0  0  0  0  0  0  0  0
   16.7981   24.4319    0.1377 H   0  0  0  0  0  0  0  0  0  0  0  0
   16.4113   25.0728   -2.2780 C   0  0  0  0  0  0  0  0  0  0  0  0
   16.8314   24.4652   -3.2733 O   0  0  0  0  0  0  0  0  0  0  0  0
   16.8976   26.4034   -2.1216 N   0  0  0  0  0  0  0  0  0  0  0  0
   17.7637   26.9993   -2.9847 O   0  0  0  0  0  0  0  0  0  0  0  0
   16.5958   26.9784   -1.3176 H   0  0  0  0  0  0  0  0  0  0  0  0
   17.2883   27.4277   -3.7403 H   0  0  0  0  0  0  0  0  0  0  0  0
   13.3561   25.0163   -2.6001 C   0  0  0  0  0  0  0  0  0  0  0  0
   13.6414   26.2217   -3.3683 C   0  0  0  0  0  0  0  0  0  0  0  0
   12.4650   27.0578   -3.7804 C   0  0  0  0  0  0  0  0  0  0  0  0
   14.3459   25.8405   -4.6880 C   0  0  0  0  0  0  0  0  0  0  0  0
  6  7  1  0  0  0
  7  8  1  0  0  0
  8  9  2  0  0  0
  8  5  1  0  0  0
  5 11  1  0  0  0
 11 12  1  0  0  0
 12 13  2  0  0  0
 13 14  1  0  0  0
 14 15  2  0  0  0
 15 16  1  0  0  0
 16 17  2  0  0  0
  5  1  1  0  0  0
  1  2  1  0  0  0
  2  3  2  0  0  0
  2 18  1  0  0  0
 18 28  1  0  0  0
 28 29  1  0  0  0
 29 30  1  0  0  0
 29 31  1  0  0  0
 18 19  1  0  0  0
 19 20  1  0  0  0
 19 22  1  0  0  0
 22 23  2  0  0  0
 22 24  1  0  0  0
 24 25  1  0  0  0
 17 12  1  0  0  0
  7 10  1  0  0  0
  1  4  1  0  0  0
 20 21  1  0  0  0
 24 26  1  0  0  0
 25 27  1  0  0  0
M  END
> <minimizedAffinity>
-6.80971

> <CNNscore>
0.3148080409

> <CNNaffinity>
6.3262853622

> <CNN_VS>
1.9915654659

> <CNNaffinity_variance>
0.2569025755

$$$$
[H]ON([H])C(=O)[C@@]([H])(O[H])[C@]([H])(C(=O)N([H])[C@]([H])(C(=O)N([H])C([H])([H])[H])C([H])([H])c1c([H])c([H])c([H])c([H])c1[H])C([H])([H])C([H])(C([H])([H])[H])C([H])([H])[H]


 31 31  0  0  0  0  0  0  0  0999 V2000
   10.7066   23.8262    0.4882 N   0  0  0  0  0  0  0  0  0  0  0  0
   11.1831   24.1702   -0.8389 C   0  0  0  0  0  0  0  0  0  0  0  0
   10.2702   24.1905   -1.6904 O   0  0  0  0  0  0  0  0  0  0  0  0
   11.3987   23.7855    1.2567 H   0  0  0  0  0  0  0  0  0  0  0  0
    9.2725   23.5461    0.7126 C   0  0  0  0  0  0  0  0  0  0  0  0
    9.0409   25.7476    3.9190 C   0  0  0  0  0  0  0  0  0  0  0  0
    9.5765   25.0863    2.7318 N   0  0  0  0  0  0  0  0  0  0  0  0
    8.8081   24.2388    1.9225 C   0  0  0  0  0  0  0  0  0  0  0  0
    7.5886   24.0484    2.2742 O   0  0  0  0  0  0  0  0  0  0  0  0
   10.5816   25.2792    2.5451 H   0  0  0  0  0  0  0  0  0  0  0  0
    9.2163   22.0392    0.8520 C   0  0  0  0  0  0  0  0  0  0  0  0
   10.0477   21.4496    1.8834 C   0  0  0  0  0  0  0  0  0  0  0  0
    9.6629   21.3770    3.2220 C   0  0  0  0  0  0  0  0  0  0  0  0
   10.4236   20.7947    4.1952 C   0  0  0  0  0  0  0  0  0  0  0  0
   11.6382   20.2397    3.8809 C   0  0  0  0  0  0  0  0  0  0  0  0
   12.0545   20.2923    2.5627 C   0  0  0  0  0  0  0  0  0  0  0  0
   11.2895   20.8776    1.5854 C   0  0  0  0  0  0  0  0  0  0  0  0
   12.6156   24.4485   -1.0446 C   0  0  0  0  0  0  0  0  0  0  0  0
   13.5954   23.3672   -1.0367 C   0  0  0  0  0  0  0  0  0  0  0  0
   12.8564   22.2087   -1.4888 O   0  0  0  0  0  0  0  0  0  0  0  0
   13.5330   21.5667   -1.7866 H   0  0  0  0  0  0  0  0  0  0  0  0
   14.4211   23.0186    0.0841 C   0  0  0  0  0  0  0  0  0  0  0  0
   14.9044   23.8380    0.8787 O   0  0  0  0  0  0  0  0  0  0  0  0
   14.7386   21.6533    0.3427 N   0  0  0  0  0  0  0  0  0  0  0  0
   15.5152   21.2400    1.3801 O   0  0  0  0  0  0  0  0  0  0  0  0
   14.3749   20.9072   -0.2730 H   0  0  0  0  0  0  0  0  0  0  0  0
   14.9827   21.1107    2.2049 H   0  0  0  0  0  0  0  0  0  0  0  0
   12.8716   25.6584   -1.8833 C   0  0  0  0  0  0  0  0  0  0  0  0
   13.6030   25.5540   -3.1396 C   0  0  0  0  0  0  0  0  0  0  0  0
   15.1013   25.5876   -3.0572 C   0  0  0  0  0  0  0  0  0  0  0  0
   13.2243   26.7347   -4.0593 C   0  0  0  0  0  0  0  0  0  0  0  0
  6  7  1  0  0  0
  7  8  1  0  0  0
  8  9  2  0  0  0
  8  5  1  0  0  0
  5 11  1  0  0  0
 11 12  1  0  0  0
 12 13  2  0  0  0
 13 14  1  0  0  0
 14 15  2  0  0  0
 15 16  1  0  0  0
 16 17  2  0  0  0
  5  1  1  0  0  0
  1  2  1  0  0  0
  2  3  2  0  0  0
  2 18  1  0  0  0
 18 28  1  0  0  0
 28 29  1  0  0  0
 29 30  1  0  0  0
 29 31  1  0  0  0
 18 19  1  0  0  0
 19 20  1  0  0  0
 19 22  1  0  0  0
 22 23  2  0  0  0
 22 24  1  0  0  0
 24 25  1  0  0  0
 17 12  1  0  0  0
  7 10  1  0  0  0
  1  4  1  0  0  0
 20 21  1  0  0  0
 24 26  1  0  0  0
 25 27  1  0  0  0
M  END
> <minimizedAffinity>
-7.59143

> <CNNscore>
0.2829840481

> <CNNaffinity>
6.0070509911

> <CNN_VS>
1.6998995543

> <CNNaffinity_variance>
0.1236765608

$$$$
[H]ON([H])C(=O)[C@@]([H])(O[H])[C@]([H])(C(=O)N([H])[C@]([H])(C(=O)N([H])C([H])([H])[H])C([H])([H])c1c([H])c([H])c([H])c([H])c1[H])C([H])([H])C([H])(C([H])([H])[H])C([H])([H])[H]


 31 31  0  0  0  0  0  0  0  0999 V2000
   13.2932   23.9406   -1.6136 N   0  0  0  0  0  0  0  0  0  0  0  0
   13.0436   22.5303   -1.3782 C   0  0  0  0  0  0  0  0  0  0  0  0
   13.8496   21.7897   -1.9789 O   0  0  0  0  0  0  0  0  0  0  0  0
   12.6699   24.6269   -1.1534 H   0  0  0  0  0  0  0  0  0  0  0  0
   14.4087   24.3614   -2.4876 C   0  0  0  0  0  0  0  0  0  0  0  0
   16.9430   24.7660    0.4440 C   0  0  0  0  0  0  0  0  0  0  0  0
   15.7027   24.5198   -0.2871 N   0  0  0  0  0  0  0  0  0  0  0  0
   15.6147   24.6018   -1.6833 C   0  0  0  0  0  0  0  0  0  0  0  0
   16.6857   24.9200   -2.3150 O   0  0  0  0  0  0  0  0  0  0  0  0
   14.8830   24.2973    0.3135 H   0  0  0  0  0  0  0  0  0  0  0  0
   13.8938   25.6231   -3.1483 C   0  0  0  0  0  0  0  0  0  0  0  0
   14.6310   26.1010   -4.3018 C   0  0  0  0  0  0  0  0  0  0  0  0
   14.8208   25.3377   -5.4535 C   0  0  0  0  0  0  0  0  0  0  0  0
   15.4849   25.7902   -6.5577 C   0  0  0  0  0  0  0  0  0  0  0  0
   16.0089   27.0579   -6.5754 C   0  0  0  0  0  0  0  0  0  0  0  0
   15.8410   27.8457   -5.4507 C   0  0  0  0  0  0  0  0  0  0  0  0
   15.1735   27.3904   -4.3417 C   0  0  0  0  0  0  0  0  0  0  0  0
   11.9286   22.1283   -0.5024 C   0  0  0  0  0  0  0  0  0  0  0  0
   12.1669   21.7614    0.8897 C   0  0  0  0  0  0  0  0  0  0  0  0
   13.6026   21.8484    1.0441 O   0  0  0  0  0  0  0  0  0  0  0  0
   13.7583   21.9158    2.0084 H   0  0  0  0  0  0  0  0  0  0  0  0
   11.6751   20.5683    1.5177 C   0  0  0  0  0  0  0  0  0  0  0  0
   10.8271   19.8141    1.0193 O   0  0  0  0  0  0  0  0  0  0  0  0
   12.1597   20.1827    2.8014 N   0  0  0  0  0  0  0  0  0  0  0  0
   11.7439   19.0704    3.4649 O   0  0  0  0  0  0  0  0  0  0  0  0
   12.8688   20.7576    3.2860 H   0  0  0  0  0  0  0  0  0  0  0  0
   12.2657   18.2717    3.1998 H   0  0  0  0  0  0  0  0  0  0  0  0
   10.6229   22.7491   -0.8796 C   0  0  0  0  0  0  0  0  0  0  0  0
   10.0342   23.8028   -0.0626 C   0  0  0  0  0  0  0  0  0  0  0  0
   10.9286   24.4550    0.9511 C   0  0  0  0  0  0  0  0  0  0  0  0
    8.8547   23.2292    0.7517 C   0  0  0  0  0  0  0  0  0  0  0  0
  6  7  1  0  0  0
  7  8  1  0  0  0
  8  9  2  0  0  0
  8  5  1  0  0  0
  5 11  1  0  0  0
 11 12  1  0  0  0
 12 13  2  0  0  0
 13 14  1  0  0  0
 14 15  2  0  0  0
 15 16  1  0  0  0
 16 17  2  0  0  0
  5  1  1  0  0  0
  1  2  1  0  0  0
  2  3  2  0  0  0
  2 18  1  0  0  0
 18 28  1  0  0  0
 28 29  1  0  0  0
 29 30  1  0  0  0
 29 31  1  0  0  0
 18 19  1  0  0  0
 19 20  1  0  0  0
 19 22  1  0  0  0
 22 23  2  0  0  0
 22 24  1  0  0  0
 24 25  1  0  0  0
 17 12  1  0  0  0
  7 10  1  0  0  0
  1  4  1  0  0  0
 20 21  1  0  0  0
 24 26  1  0  0  0
 25 27  1  0  0  0
M  END
> <minimizedAffinity>
-7.82676

> <CNNscore>
0.2720777094

> <CNNaffinity>
6.6628303528

> <CNN_VS>
1.8128076792

> <CNNaffinity_variance>
0.1666053832

$$$$
[H]ON([H])C(=O)[C@@]([H])(O[H])[C@]([H])(C(=O)N([H])[C@]([H])(C(=O)N([H])C([H])([H])[H])C([H])([H])c1c([H])c([H])c([H])c([H])c1[H])C([H])([H])C([H])(C([H])([H])[H])C([H])([H])[H]


 31 31  0  0  0  0  0  0  0  0999 V2000
   13.4700   23.5778   -1.9411 N   0  0  0  0  0  0  0  0  0  0  0  0
   13.5979   24.9370   -2.4337 C   0  0  0  0  0  0  0  0  0  0  0  0
   12.9129   25.7536   -1.7833 O   0  0  0  0  0  0  0  0  0  0  0  0
   14.0047   22.8346   -2.4239 H   0  0  0  0  0  0  0  0  0  0  0  0
   12.5973   23.2865   -0.7841 C   0  0  0  0  0  0  0  0  0  0  0  0
   14.9793   20.6544    0.8220 C   0  0  0  0  0  0  0  0  0  0  0  0
   14.3377   21.5166   -0.1672 N   0  0  0  0  0  0  0  0  0  0  0  0
   13.2858   22.3860    0.1511 C   0  0  0  0  0  0  0  0  0  0  0  0
   12.8859   22.3919    1.3707 O   0  0  0  0  0  0  0  0  0  0  0  0
   14.7113   21.4198   -1.1332 H   0  0  0  0  0  0  0  0  0  0  0  0
   11.3736   22.6472   -1.4066 C   0  0  0  0  0  0  0  0  0  0  0  0
   10.1983   22.5356   -0.5648 C   0  0  0  0  0  0  0  0  0  0  0  0
    9.6090   23.6297    0.0685 C   0  0  0  0  0  0  0  0  0  0  0  0
    8.4832   23.5406    0.8365 C   0  0  0  0  0  0  0  0  0  0  0  0
    7.8684   22.3281    1.0201 C   0  0  0  0  0  0  0  0  0  0  0  0
    8.4238   21.2190    0.4077 C   0  0  0  0  0  0  0  0  0  0  0  0
    9.5549   21.3093   -0.3638 C   0  0  0  0  0  0  0  0  0  0  0  0
   14.4739   25.2102   -3.5869 C   0  0  0  0  0  0  0  0  0  0  0  0
   14.2687   26.3923   -4.4175 C   0  0  0  0  0  0  0  0  0  0  0  0
   12.8947   26.7715   -4.1706 O   0  0  0  0  0  0  0  0  0  0  0  0
   12.8262   27.7059   -4.4550 H   0  0  0  0  0  0  0  0  0  0  0  0
   14.5556   26.4661   -5.8218 C   0  0  0  0  0  0  0  0  0  0  0  0
   13.9921   27.2378   -6.6113 O   0  0  0  0  0  0  0  0  0  0  0  0
   15.5434   25.6146   -6.3967 N   0  0  0  0  0  0  0  0  0  0  0  0
   15.8724   25.6200   -7.7165 O   0  0  0  0  0  0  0  0  0  0  0  0
   16.0600   24.9415   -5.8065 H   0  0  0  0  0  0  0  0  0  0  0  0
   16.5647   26.2991   -7.9167 H   0  0  0  0  0  0  0  0  0  0  0  0
   15.8547   24.6618   -3.4275 C   0  0  0  0  0  0  0  0  0  0  0  0
   16.7937   25.2659   -2.4906 C   0  0  0  0  0  0  0  0  0  0  0  0
   16.4618   25.1551   -1.0311 C   0  0  0  0  0  0  0  0  0  0  0  0
   16.8974   26.7815   -2.7655 C   0  0  0  0  0  0  0  0  0  0  0  0
  6  7  1  0  0  0
  7  8  1  0  0  0
  8  9  2  0  0  0
  8  5  1  0  0  0
  5 11  1  0  0  0
 11 12  1  0  0  0
 12 13  2  0  0  0
 13 14  1  0  0  0
 14 15  2  0  0  0
 15 16  1  0  0  0
 16 17  2  0  0  0
  5  1  1  0  0  0
  1  2  1  0  0  0
  2  3  2  0  0  0
  2 18  1  0  0  0
 18 28  1  0  0  0
 28 29  1  0  0  0
 29 30  1  0  0  0
 29 31  1  0  0  0
 18 19  1  0  0  0
 19 20  1  0  0  0
 19 22  1  0  0  0
 22 23  2  0  0  0
 22 24  1  0  0  0
 24 25  1  0  0  0
 17 12  1  0  0  0
  7 10  1  0  0  0
  1  4  1  0  0  0
 20 21  1  0  0  0
 24 26  1  0  0  0
 25 27  1  0  0  0
M  END
> <minimizedAffinity>
-7.64081

> <CNNscore>
0.2563734949

> <CNNaffinity>
6.4539670944

> <CNN_VS>
1.6546261311

> <CNNaffinity_variance>
0.1782404333

$$$$
[H]ON([H])C(=O)[C@@]([H])(O[H])[C@]([H])(C(=O)N([H])[C@]([H])(C(=O)N([H])C([H])([H])[H])C([H])([H])c1c([H])c([H])c([H])c([H])c1[H])C([H])([H])C([H])(C([H])([H])[H])C([H])([H])[H]


 31 31  0  0  0  0  0  0  0  0999 V2000
   12.7741   23.8261   -1.3737 N   0  0  0  0  0  0  0  0  0  0  0  0
   13.9452   24.6829   -1.4040 C   0  0  0  0  0  0  0  0  0  0  0  0
   14.4304   24.8790   -0.2704 O   0  0  0  0  0  0  0  0  0  0  0  0
   12.3068   23.6114   -2.2720 H   0  0  0  0  0  0  0  0  0  0  0  0
   12.2810   23.2879   -0.0882 C   0  0  0  0  0  0  0  0  0  0  0  0
   14.8792   20.4600    0.5701 C   0  0  0  0  0  0  0  0  0  0  0  0
   14.3088   21.7709    0.2708 N   0  0  0  0  0  0  0  0  0  0  0  0
   12.9282   22.0003    0.1992 C   0  0  0  0  0  0  0  0  0  0  0  0
   12.1606   20.9913    0.3995 O   0  0  0  0  0  0  0  0  0  0  0  0
   15.0105   22.5185    0.0952 H   0  0  0  0  0  0  0  0  0  0  0  0
   10.7884   23.1490   -0.3036 C   0  0  0  0  0  0  0  0  0  0  0  0
    9.9326   23.5390    0.8001 C   0  0  0  0  0  0  0  0  0  0  0  0
   10.2973   24.4993    1.7434 C   0  0  0  0  0  0  0  0  0  0  0  0
    9.4859   24.8975    2.7672 C   0  0  0  0  0  0  0  0  0  0  0  0
    8.2373   24.3477    2.9108 C   0  0  0  0  0  0  0  0  0  0  0  0
    7.8396   23.3912    1.9941 C   0  0  0  0  0  0  0  0  0  0  0  0
    8.6554   22.9916    0.9656 C   0  0  0  0  0  0  0  0  0  0  0  0
   14.4246   25.2092   -2.6944 C   0  0  0  0  0  0  0  0  0  0  0  0
   13.9375   26.4852   -3.2082 C   0  0  0  0  0  0  0  0  0  0  0  0
   12.4980   26.3420   -3.2213 O   0  0  0  0  0  0  0  0  0  0  0  0
   12.1448   27.2544   -3.2573 H   0  0  0  0  0  0  0  0  0  0  0  0
   14.3826   27.1014   -4.4255 C   0  0  0  0  0  0  0  0  0  0  0  0
   13.8171   26.9747   -5.5211 O   0  0  0  0  0  0  0  0  0  0  0  0
   15.5491   27.9204   -4.4288 N   0  0  0  0  0  0  0  0  0  0  0  0
   16.0382   28.5370   -5.5381 O   0  0  0  0  0  0  0  0  0  0  0  0
   16.0793   28.0773   -3.5556 H   0  0  0  0  0  0  0  0  0  0  0  0
   15.6089   29.4172   -5.6849 H   0  0  0  0  0  0  0  0  0  0  0  0
   15.8082   24.7641   -3.0407 C   0  0  0  0  0  0  0  0  0  0  0  0
   16.0326   23.7619   -4.0749 C   0  0  0  0  0  0  0  0  0  0  0  0
   15.6739   24.1459   -5.4809 C   0  0  0  0  0  0  0  0  0  0  0  0
   15.1863   22.5067   -3.7725 C   0  0  0  0  0  0  0  0  0  0  0  0
  6  7  1  0  0  0
  7  8  1  0  0  0
  8  9  2  0  0  0
  8  5  1  0  0  0
  5 11  1  0  0  0
 11 12  1  0  0  0
 12 13  2  0  0  0
 13 14  1  0  0  0
 14 15  2  0  0  0
 15 16  1  0  0  0
 16 17  2  0  0  0
  5  1  1  0  0  0
  1  2  1  0  0  0
  2  3  2  0  0  0
  2 18  1  0  0  0
 18 28  1  0  0  0
 28 29  1  0  0  0
 29 30  1  0  0  0
 29 31  1  0  0  0
 18 19  1  0  0  0
 19 20  1  0  0  0
 19 22  1  0  0  0
 22 23  2  0  0  0
 22 24  1  0  0  0
 24 25  1  0  0  0
 17 12  1  0  0  0
  7 10  1  0  0  0
  1  4  1  0  0  0
 20 21  1  0  0  0
 24 26  1  0  0  0
 25 27  1  0  0  0
M  END
> <minimizedAffinity>
-6.25829

> <CNNscore>
0.2540891469

> <CNNaffinity>
6.3100552559

> <CNN_VS>
1.6033165455

> <CNNaffinity_variance>
0.1238393784

$$$$
[H]ON([H])C(=O)[C@@]([H])(O[H])[C@]([H])(C(=O)N([H])[C@]([H])(C(=O)N([H])C([H])([H])[H])C([H])([H])c1c([H])c([H])c([H])c([H])c1[H])C([H])([H])C([H])(C([H])([H])[H])C([H])([H])[H]


 31 31  0  0  0  0  0  0  0  0999 V2000
   13.1513   24.1253   -1.5926 N   0  0  0  0  0  0  0  0  0  0  0  0
   12.8146   22.7422   -1.3095 C   0  0  0  0  0  0  0  0  0  0  0  0
   13.5433   21.9324   -1.9196 O   0  0  0  0  0  0  0  0  0  0  0  0
   12.5954   24.8647   -1.1282 H   0  0  0  0  0  0  0  0  0  0  0  0
   14.2579   24.4453   -2.5191 C   0  0  0  0  0  0  0  0  0  0  0  0
   16.9240   24.7657    0.3040 C   0  0  0  0  0  0  0  0  0  0  0  0
   15.6414   24.5921   -0.3729 N   0  0  0  0  0  0  0  0  0  0  0  0
   15.5086   24.6192   -1.7677 C   0  0  0  0  0  0  0  0  0  0  0  0
   16.5779   24.8181   -2.4491 O   0  0  0  0  0  0  0  0  0  0  0  0
   14.8290   24.4661    0.2646 H   0  0  0  0  0  0  0  0  0  0  0  0
   13.8062   25.7240   -3.1931 C   0  0  0  0  0  0  0  0  0  0  0  0
   14.5841   26.1685   -4.3333 C   0  0  0  0  0  0  0  0  0  0  0  0
   14.7698   25.3923   -5.4771 C   0  0  0  0  0  0  0  0  0  0  0  0
   15.4727   25.8143   -6.5693 C   0  0  0  0  0  0  0  0  0  0  0  0
   16.0427   27.0621   -6.5821 C   0  0  0  0  0  0  0  0  0  0  0  0
   15.8803   27.8617   -5.4651 C   0  0  0  0  0  0  0  0  0  0  0  0
   15.1739   27.4371   -4.3680 C   0  0  0  0  0  0  0  0  0  0  0  0
   11.7099   22.4409   -0.3817 C   0  0  0  0  0  0  0  0  0  0  0  0
   11.7050   22.9800    0.9743 C   0  0  0  0  0  0  0  0  0  0  0  0
   13.0343   23.5226    1.1506 O   0  0  0  0  0  0  0  0  0  0  0  0
   12.9641   24.1477    1.9010 H   0  0  0  0  0  0  0  0  0  0  0  0
   11.3119   22.2486    2.1448 C   0  0  0  0  0  0  0  0  0  0  0  0
   10.1957   22.3288    2.6778 O   0  0  0  0  0  0  0  0  0  0  0  0
   12.2302   21.3600    2.7762 N   0  0  0  0  0  0  0  0  0  0  0  0
   11.9378   20.6334    3.8882 O   0  0  0  0  0  0  0  0  0  0  0  0
   13.1825   21.2355    2.3942 H   0  0  0  0  0  0  0  0  0  0  0  0
   11.5043   19.7734    3.6578 H   0  0  0  0  0  0  0  0  0  0  0  0
   10.4083   22.1866   -1.0700 C   0  0  0  0  0  0  0  0  0  0  0  0
    9.7717   20.8772   -1.0019 C   0  0  0  0  0  0  0  0  0  0  0  0
    8.4852   20.7874   -0.2339 C   0  0  0  0  0  0  0  0  0  0  0  0
   10.7220   19.8742   -0.3133 C   0  0  0  0  0  0  0  0  0  0  0  0
  6  7  1  0  0  0
  7  8  1  0  0  0
  8  9  2  0  0  0
  8  5  1  0  0  0
  5 11  1  0  0  0
 11 12  1  0  0  0
 12 13  2  0  0  0
 13 14  1  0  0  0
 14 15  2  0  0  0
 15 16  1  0  0  0
 16 17  2  0  0  0
  5  1  1  0  0  0
  1  2  1  0  0  0
  2  3  2  0  0  0
  2 18  1  0  0  0
 18 28  1  0  0  0
 28 29  1  0  0  0
 29 30  1  0  0  0
 29 31  1  0  0  0
 18 19  1  0  0  0
 19 20  1  0  0  0
 19 22  1  0  0  0
 22 23  2  0  0  0
 22 24  1  0  0  0
 24 25  1  0  0  0
 17 12  1  0  0  0
  7 10  1  0  0  0
  1  4  1  0  0  0
 20 21  1  0  0  0
 24 26  1  0  0  0
 25 27  1  0  0  0
M  END
> <minimizedAffinity>
-7.44211

> <CNNscore>
0.2312668413

> <CNNaffinity>
6.4437012672

> <CNN_VS>
1.4902144670

> <CNNaffinity_variance>
0.0547685511

$$$$
[H]ON([H])C(=O)[C@@]([H])(O[H])[C@]([H])(C(=O)N([H])[C@]([H])(C(=O)N([H])C([H])([H])[H])C([H])([H])c1c([H])c([H])c([H])c([H])c1[H])C([H])([H])C([H])(C([H])([H])[H])C([H])([H])[H]


 31 31  0  0  0  0  0  0  0  0999 V2000
   13.2659   23.7513   -2.1185 N   0  0  0  0  0  0  0  0  0  0  0  0
   13.2100   22.3336   -1.8129 C   0  0  0  0  0  0  0  0  0  0  0  0
   14.2323   21.7187   -2.1813 O   0  0  0  0  0  0  0  0  0  0  0  0
   12.4574   24.3381   -1.8477 H   0  0  0  0  0  0  0  0  0  0  0  0
   14.4510   24.3185   -2.7963 C   0  0  0  0  0  0  0  0  0  0  0  0
   16.5304   24.6585    0.4811 C   0  0  0  0  0  0  0  0  0  0  0  0
   15.4214   24.3905   -0.4308 N   0  0  0  0  0  0  0  0  0  0  0  0
   15.5167   24.5729   -1.8170 C   0  0  0  0  0  0  0  0  0  0  0  0
   16.6368   25.0055   -2.2703 O   0  0  0  0  0  0  0  0  0  0  0  0
   14.5467   24.0715    0.0331 H   0  0  0  0  0  0  0  0  0  0  0  0
   13.9304   25.5927   -3.4278 C   0  0  0  0  0  0  0  0  0  0  0  0
   14.6898   26.1235   -4.5432 C   0  0  0  0  0  0  0  0  0  0  0  0
   14.8686   25.4309   -5.7405 C   0  0  0  0  0  0  0  0  0  0  0  0
   15.5539   25.9352   -6.8088 C   0  0  0  0  0  0  0  0  0  0  0  0
   16.1120   27.1865   -6.7412 C   0  0  0  0  0  0  0  0  0  0  0  0
   15.9560   27.9046   -5.5692 C   0  0  0  0  0  0  0  0  0  0  0  0
   15.2673   27.3973   -4.4962 C   0  0  0  0  0  0  0  0  0  0  0  0
   12.0220   21.7850   -1.1350 C   0  0  0  0  0  0  0  0  0  0  0  0
   12.1488   20.7023   -0.1649 C   0  0  0  0  0  0  0  0  0  0  0  0
   10.8555   20.0543   -0.1777 O   0  0  0  0  0  0  0  0  0  0  0  0
   11.0036   19.1673    0.2096 H   0  0  0  0  0  0  0  0  0  0  0  0
   12.6064   20.8626    1.1859 C   0  0  0  0  0  0  0  0  0  0  0  0
   13.7318   21.2773    1.4987 O   0  0  0  0  0  0  0  0  0  0  0  0
   11.7491   20.5343    2.2763 N   0  0  0  0  0  0  0  0  0  0  0  0
   12.1064   20.6547    3.5831 O   0  0  0  0  0  0  0  0  0  0  0  0
   10.7936   20.1816    2.1012 H   0  0  0  0  0  0  0  0  0  0  0  0
   11.9345   21.5679    3.9252 H   0  0  0  0  0  0  0  0  0  0  0  0
   10.9150   22.7766   -0.9804 C   0  0  0  0  0  0  0  0  0  0  0  0
   10.5526   23.2914    0.3341 C   0  0  0  0  0  0  0  0  0  0  0  0
    9.1084   23.6364    0.5531 C   0  0  0  0  0  0  0  0  0  0  0  0
   11.3248   24.5995    0.6092 C   0  0  0  0  0  0  0  0  0  0  0  0
  6  7  1  0  0  0
  7  8  1  0  0  0
  8  9  2  0  0  0
  8  5  1  0  0  0
  5 11  1  0  0  0
 11 12  1  0  0  0
 12 13  2  0  0  0
 13 14  1  0  0  0
 14 15  2  0  0  0
 15 16  1  0  0  0
 16 17  2  0  0  0
  5  1  1  0  0  0
  1  2  1  0  0  0
  2  3  2  0  0  0
  2 18  1  0  0  0
 18 28  1  0  0  0
 28 29  1  0  0  0
 29 30  1  0  0  0
 29 31  1  0  0  0
 18 19  1  0  0  0
 19 20  1  0  0  0
 19 22  1  0  0  0
 22 23  2  0  0  0
 22 24  1  0  0  0
 24 25  1  0  0  0
 17 12  1  0  0  0
  7 10  1  0  0  0
  1  4  1  0  0  0
 20 21  1  0  0  0
 24 26  1  0  0  0
 25 27  1  0  0  0
M  END
> <minimizedAffinity>
-8.00199

> <CNNscore>
0.2204239517

> <CNNaffinity>
6.5256872177

> <CNN_VS>
1.4384177923

> <CNNaffinity_variance>
0.0732348710

$$$$
[H]OC([H])([H])[C@]1([H])O[C@]([H])(C([H])([H])O[H])[C@]([H])(O[H])[C@]([H])(O[H])[C@]1([H])O[H]


 18 18  0  0  0  0  0  0  0  0999 V2000
   12.0707   21.8049   -0.9236 C   0  0  0  0  0  0  0  0  0  0  0  0
   12.8608   22.8357   -0.4606 O   0  0  0  0  0  0  0  0  0  0  0  0
   14.1782   22.4183   -0.4326 C   0  0  0  0  0  0  0  0  0  0  0  0
   14.3777   21.2055    0.4431 C   0  0  0  0  0  0  0  0  0  0  0  0
   15.3462   21.4591    1.4103 O   0  0  0  0  0  0  0  0  0  0  0  0
   13.0970   20.8312    1.1400 C   0  0  0  0  0  0  0  0  0  0  0  0
   12.8357   21.6955    2.1924 O   0  0  0  0  0  0  0  0  0  0  0  0
   11.9297   20.7761    0.1739 C   0  0  0  0  0  0  0  0  0  0  0  0
   10.7535   21.0042    0.8877 O   0  0  0  0  0  0  0  0  0  0  0  0
   16.1034   20.8523    1.3697 H   0  0  0  0  0  0  0  0  0  0  0  0
   12.1858   21.2274    2.8005 H   0  0  0  0  0  0  0  0  0  0  0  0
   10.5866   20.1836    1.4368 H   0  0  0  0  0  0  0  0  0  0  0  0
    9.9294   21.4623   -1.9517 O   0  0  0  0  0  0  0  0  0  0  0  0
   10.7312   22.3938   -1.3123 C   0  0  0  0  0  0  0  0  0  0  0  0
    9.2800   21.0435   -1.3105 H   0  0  0  0  0  0  0  0  0  0  0  0
   15.0382   23.5805    0.0186 C   0  0  0  0  0  0  0  0  0  0  0  0
   14.3985   24.2000    1.0898 O   0  0  0  0  0  0  0  0  0  0  0  0
   13.5020   24.5406    0.8310 H   0  0  0  0  0  0  0  0  0  0  0  0
 13 14  1  0  0  0
 14  1  1  0  0  0
  1  2  1  0  0  0
  2  3  1  0  0  0
  3 16  1  0  0  0
 16 17  1  0  0  0
  3  4  1  0  0  0
  4  5  1  0  0  0
  4  6  1  0  0  0
  6  7  1  0  0  0
  6  8  1  0  0  0
  8  9  1  0  0  0
  8  1  1  0  0  0
 13 15  1  0  0  0
 17 18  1  0  0  0
  5 10  1  0  0  0
  7 11  1  0  0  0
  9 12  1  0  0  0
M  END
> <minimizedAffinity>
-5.48184

> <CNNscore>
0.5026057959

> <CNNaffinity>
3.8249859810

> <CNN_VS>
1.9224600792

> <CNNaffinity_variance>
0.1520917416

$$$$
[H]OC([H])([H])[C@]1([H])O[C@]([H])(C([H])([H])O[H])[C@]([H])(O[H])[C@]([H])(O[H])[C@]1([H])O[H]


 18 18  0  0  0  0  0  0  0  0999 V2000
   12.6218   24.3788   -1.6571 C   0  0  0  0  0  0  0  0  0  0  0  0
   13.0838   25.6041   -2.0887 O   0  0  0  0  0  0  0  0  0  0  0  0
   13.5678   25.4767   -3.3772 C   0  0  0  0  0  0  0  0  0  0  0  0
   14.6807   24.4620   -3.4746 C   0  0  0  0  0  0  0  0  0  0  0  0
   15.8168   25.0399   -4.0342 O   0  0  0  0  0  0  0  0  0  0  0  0
   15.0403   23.9286   -2.1138 C   0  0  0  0  0  0  0  0  0  0  0  0
   15.7864   24.8547   -1.4007 O   0  0  0  0  0  0  0  0  0  0  0  0
   13.8099   23.5019   -1.3370 C   0  0  0  0  0  0  0  0  0  0  0  0
   14.0991   23.5760    0.0253 O   0  0  0  0  0  0  0  0  0  0  0  0
   16.1125   24.6035   -4.8499 H   0  0  0  0  0  0  0  0  0  0  0  0
   16.2614   24.3490   -0.6727 H   0  0  0  0  0  0  0  0  0  0  0  0
   14.7249   22.8210    0.2280 H   0  0  0  0  0  0  0  0  0  0  0  0
   12.2878   25.6098    0.3758 O   0  0  0  0  0  0  0  0  0  0  0  0
   11.7599   24.6188   -0.4357 C   0  0  0  0  0  0  0  0  0  0  0  0
   11.8482   26.4949    0.1980 H   0  0  0  0  0  0  0  0  0  0  0  0
   14.0134   26.8422   -3.8575 C   0  0  0  0  0  0  0  0  0  0  0  0
   13.8971   26.8703   -5.2453 O   0  0  0  0  0  0  0  0  0  0  0  0
   14.4636   26.1750   -5.6724 H   0  0  0  0  0  0  0  0  0  0  0  0
 13 14  1  0  0  0
 14  1  1  0  0  0
  1  2  1  0  0  0
  2  3  1  0  0  0
  3 16  1  0  0  0
 16 17  1  0  0  0
  3  4  1  0  0  0
  4  5  1  0  0  0
  4  6  1  0  0  0
  6  7  1  0  0  0
  6  8  1  0  0  0
  8  9  1  0  0  0
  8  1  1  0  0  0
 13 15  1  0  0  0
 17 18  1  0  0  0
  5 10  1  0  0  0
  7 11  1  0  0  0
  9 12  1  0  0  0
M  END
> <minimizedAffinity>
-4.82261

> <CNNscore>
0.4994058907

> <CNNaffinity>
3.8288002014

> <CNN_VS>
1.9121253490

> <CNNaffinity_variance>
0.2615801692

$$$$
[H]OC([H])([H])[C@]1([H])O[C@]([H])(C([H])([H])O[H])[C@]([H])(O[H])[C@]([H])(O[H])[C@]1([H])O[H]


 18 18  0  0  0  0  0  0  0  0999 V2000
   13.8661   23.2013   -1.8241 C   0  0  0  0  0  0  0  0  0  0  0  0
   14.6439   22.5593   -0.8839 O   0  0  0  0  0  0  0  0  0  0  0  0
   14.0991   21.3171   -0.6182 C   0  0  0  0  0  0  0  0  0  0  0  0
   12.6802   21.4087   -0.1125 C   0  0  0  0  0  0  0  0  0  0  0  0
   12.5589   20.7604    1.1134 O   0  0  0  0  0  0  0  0  0  0  0  0
   12.2669   22.8450    0.0668 C   0  0  0  0  0  0  0  0  0  0  0  0
   12.8354   23.3842    1.2109 O   0  0  0  0  0  0  0  0  0  0  0  0
   12.5985   23.6794   -1.1550 C   0  0  0  0  0  0  0  0  0  0  0  0
   12.7460   25.0079   -0.7567 O   0  0  0  0  0  0  0  0  0  0  0  0
   11.9102   20.0377    1.1076 H   0  0  0  0  0  0  0  0  0  0  0  0
   12.2904   24.1935    1.4545 H   0  0  0  0  0  0  0  0  0  0  0  0
   11.8294   25.3457   -0.5371 H   0  0  0  0  0  0  0  0  0  0  0  0
   13.9880   25.0311   -3.3721 O   0  0  0  0  0  0  0  0  0  0  0  0
   14.6751   24.3555   -2.3768 C   0  0  0  0  0  0  0  0  0  0  0  0
   13.5337   25.8487   -3.0067 H   0  0  0  0  0  0  0  0  0  0  0  0
   14.9986   20.6020    0.3684 C   0  0  0  0  0  0  0  0  0  0  0  0
   15.3246   21.4988    1.3832 O   0  0  0  0  0  0  0  0  0  0  0  0
   15.8010   22.2943    1.0271 H   0  0  0  0  0  0  0  0  0  0  0  0
 13 14  1  0  0  0
 14  1  1  0  0  0
  1  2  1  0  0  0
  2  3  1  0  0  0
  3 16  1  0  0  0
 16 17  1  0  0  0
  3  4  1  0  0  0
  4  5  1  0  0  0
  4  6  1  0  0  0
  6  7  1  0  0  0
  6  8  1  0  0  0
  8  9  1  0  0  0
  8  1  1  0  0  0
 13 15  1  0  0  0
 17 18  1  0  0  0
  5 10  1  0  0  0
  7 11  1  0  0  0
  9 12  1  0  0  0
M  END
> <minimizedAffinity>
-4.92767

> <CNNscore>
0.4431743920

> <CNNaffinity>
3.8103663921

> <CNN_VS>
1.6886568069

> <CNNaffinity_variance>
0.3355143666

$$$$
[H]OC([H])([H])[C@]1([H])O[C@]([H])(C([H])([H])O[H])[C@]([H])(O[H])[C@]([H])(O[H])[C@]1([H])O[H]


 18 18  0  0  0  0  0  0  0  0999 V2000
   12.0771   22.4697   -0.6669 C   0  0  0  0  0  0  0  0  0  0  0  0
   12.9960   23.2614   -0.0111 O   0  0  0  0  0  0  0  0  0  0  0  0
   14.2526   22.7015   -0.1450 C   0  0  0  0  0  0  0  0  0  0  0  0
   14.3181   21.2990    0.4085 C   0  0  0  0  0  0  0  0  0  0  0  0
   15.3282   21.1999    1.3613 O   0  0  0  0  0  0  0  0  0  0  0  0
   13.0144   20.9173    1.0569 C   0  0  0  0  0  0  0  0  0  0  0  0
   12.8805   21.5271    2.2950 O   0  0  0  0  0  0  0  0  0  0  0  0
   11.8314   21.2302    0.1615 C   0  0  0  0  0  0  0  0  0  0  0  0
   10.7054   21.4131    0.9639 O   0  0  0  0  0  0  0  0  0  0  0  0
   16.0045   20.5381    1.1425 H   0  0  0  0  0  0  0  0  0  0  0  0
   12.1895   21.0040    2.8052 H   0  0  0  0  0  0  0  0  0  0  0  0
   10.4495   20.5092    1.3105 H   0  0  0  0  0  0  0  0  0  0  0  0
   10.6326   24.1781    0.2015 O   0  0  0  0  0  0  0  0  0  0  0  0
   10.8128   23.2842   -0.8414 C   0  0  0  0  0  0  0  0  0  0  0  0
   10.9610   25.0941   -0.0466 H   0  0  0  0  0  0  0  0  0  0  0  0
   15.2567   23.6146    0.5271 C   0  0  0  0  0  0  0  0  0  0  0  0
   14.9314   24.9289    0.1995 O   0  0  0  0  0  0  0  0  0  0  0  0
   14.9629   25.0780   -0.7820 H   0  0  0  0  0  0  0  0  0  0  0  0
 13 14  1  0  0  0
 14  1  1  0  0  0
  1  2  1  0  0  0
  2  3  1  0  0  0
  3 16  1  0  0  0
 16 17  1  0  0  0
  3  4  1  0  0  0
  4  5  1  0  0  0
  4  6  1  0  0  0
  6  7  1  0  0  0
  6  8  1  0  0  0
  8  9  1  0  0  0
  8  1  1  0  0  0
 13 15  1  0  0  0
 17 18  1  0  0  0
  5 10  1  0  0  0
  7 11  1  0  0  0
  9 12  1  0  0  0
M  END
> <minimizedAffinity>
-4.86847

> <CNNscore>
0.4416141510

> <CNNaffinity>
3.7414307594

> <CNN_VS>
1.6522687674

> <CNNaffinity_variance>
0.1845878810

$$$$
[H]OC([H])([H])[C@]1([H])O[C@]([H])(C([H])([H])O[H])[C@]([H])(O[H])[C@]([H])(O[H])[C@]1([H])O[H]


 18 18  0  0  0  0  0  0  0  0999 V2000
   15.3671   24.5337   -3.7323 C   0  0  0  0  0  0  0  0  0  0  0  0
   15.0044   24.6699   -5.0555 O   0  0  0  0  0  0  0  0  0  0  0  0
   15.7755   25.6591   -5.6364 C   0  0  0  0  0  0  0  0  0  0  0  0
   15.6242   26.9888   -4.9388 C   0  0  0  0  0  0  0  0  0  0  0  0
   15.2342   27.9708   -5.8451 O   0  0  0  0  0  0  0  0  0  0  0  0
   14.5874   26.9082   -3.8505 C   0  0  0  0  0  0  0  0  0  0  0  0
   13.3079   26.9087   -4.3852 O   0  0  0  0  0  0  0  0  0  0  0  0
   14.8069   25.7032   -2.9567 C   0  0  0  0  0  0  0  0  0  0  0  0
   13.5857   25.3492   -2.3836 O   0  0  0  0  0  0  0  0  0  0  0  0
   15.8574   28.7133   -5.9048 H   0  0  0  0  0  0  0  0  0  0  0  0
   12.6824   27.1796   -3.6459 H   0  0  0  0  0  0  0  0  0  0  0  0
   13.3712   26.0541   -1.7055 H   0  0  0  0  0  0  0  0  0  0  0  0
   14.9554   23.0814   -1.8666 O   0  0  0  0  0  0  0  0  0  0  0  0
   14.8081   23.2165   -3.2375 C   0  0  0  0  0  0  0  0  0  0  0  0
   14.1116   23.3361   -1.3855 H   0  0  0  0  0  0  0  0  0  0  0  0
   15.4077   25.7526   -7.1026 C   0  0  0  0  0  0  0  0  0  0  0  0
   16.4128   26.4629   -7.7549 O   0  0  0  0  0  0  0  0  0  0  0  0
   16.5095   27.3798   -7.3853 H   0  0  0  0  0  0  0  0  0  0  0  0
 13 14  1  0  0  0
 14  1  1  0  0  0
  1  2  1  0  0  0
  2  3  1  0  0  0
  3 16  1  0  0  0
 16 17  1  0  0  0
  3  4  1  0  0  0
  4  5  1  0  0  0
  4  6  1  0  0  0
  6  7  1  0  0  0
  6  8  1  0  0  0
  8  9  1  0  0  0
  8  1  1  0  0  0
 13 15  1  0  0  0
 17 18  1  0  0  0
  5 10  1  0  0  0
  7 11  1  0  0  0
  9 12  1  0  0  0
M  END
> <minimizedAffinity>
-4.88347

> <CNNscore>
0.4101285636

> <CNNaffinity>
3.7542643547

> <CNN_VS>
1.5397310257

> <CNNaffinity_variance>
0.1678404361

$$$$
[H]OC([H])([H])[C@]1([H])O[C@]([H])(C([H])([H])O[H])[C@]([H])(O[H])[C@]([H])(O[H])[C@]1([H])O[H]


 18 18  0  0  0  0  0  0  0  0999 V2000
   13.4890   21.7035   -0.5383 C   0  0  0  0  0  0  0  0  0  0  0  0
   12.3566   21.0840   -0.0533 O   0  0  0  0  0  0  0  0  0  0  0  0
   11.3014   21.3351   -0.9101 C   0  0  0  0  0  0  0  0  0  0  0  0
   11.0317   22.8111   -1.0714 C   0  0  0  0  0  0  0  0  0  0  0  0
    9.7076   23.1001   -0.7533 O   0  0  0  0  0  0  0  0  0  0  0  0
   11.9244   23.6208   -0.1695 C   0  0  0  0  0  0  0  0  0  0  0  0
   11.4841   23.5628    1.1441 O   0  0  0  0  0  0  0  0  0  0  0  0
   13.3732   23.1878   -0.2811 C   0  0  0  0  0  0  0  0  0  0  0  0
   14.0253   23.5141    0.9078 O   0  0  0  0  0  0  0  0  0  0  0  0
    9.2130   23.5067   -1.4836 H   0  0  0  0  0  0  0  0  0  0  0  0
   11.8914   24.3472    1.6237 H   0  0  0  0  0  0  0  0  0  0  0  0
   14.1234   24.5105    0.9179 H   0  0  0  0  0  0  0  0  0  0  0  0
   14.3813   20.7865    1.4920 O   0  0  0  0  0  0  0  0  0  0  0  0
   14.6810   21.1041    0.1772 C   0  0  0  0  0  0  0  0  0  0  0  0
   14.1501   19.8137    1.5853 H   0  0  0  0  0  0  0  0  0  0  0  0
   10.0827   20.5974   -0.3962 C   0  0  0  0  0  0  0  0  0  0  0  0
   10.0263   20.7674    0.9852 O   0  0  0  0  0  0  0  0  0  0  0  0
   10.8369   20.4048    1.4302 H   0  0  0  0  0  0  0  0  0  0  0  0
 13 14  1  0  0  0
 14  1  1  0  0  0
  1  2  1  0  0  0
  2  3  1  0  0  0
  3 16  1  0  0  0
 16 17  1  0  0  0
  3  4  1  0  0  0
  4  5  1  0  0  0
  4  6  1  0  0  0
  6  7  1  0  0  0
  6  8  1  0  0  0
  8  9  1  0  0  0
  8  1  1  0  0  0
 13 15  1  0  0  0
 17 18  1  0  0  0
  5 10  1  0  0  0
  7 11  1  0  0  0
  9 12  1  0  0  0
M  END
> <minimizedAffinity>
-4.99195

> <CNNscore>
0.3913864791

> <CNNaffinity>
3.7573809624

> <CNN_VS>
1.4705880880

> <CNNaffinity_variance>
0.3039911091

$$$$
[H]OC([H])([H])[C@]1([H])O[C@]([H])(C([H])([H])O[H])[C@]([H])(O[H])[C@]([H])(O[H])[C@]1([H])O[H]


 18 18  0  0  0  0  0  0  0  0999 V2000
   15.7191   25.7908   -2.2495 C   0  0  0  0  0  0  0  0  0  0  0  0
   16.4648   26.3785   -3.2493 O   0  0  0  0  0  0  0  0  0  0  0  0
   15.6672   27.2671   -3.9456 C   0  0  0  0  0  0  0  0  0  0  0  0
   14.4580   26.5988   -4.5530 C   0  0  0  0  0  0  0  0  0  0  0  0
   14.4131   26.8308   -5.9248 O   0  0  0  0  0  0  0  0  0  0  0  0
   14.4959   25.1116   -4.3237 C   0  0  0  0  0  0  0  0  0  0  0  0
   15.4070   24.5031   -5.1737 O   0  0  0  0  0  0  0  0  0  0  0  0
   14.7904   24.7761   -2.8746 C   0  0  0  0  0  0  0  0  0  0  0  0
   15.3707   23.5089   -2.8229 O   0  0  0  0  0  0  0  0  0  0  0  0
   13.6046   27.2837   -6.2155 H   0  0  0  0  0  0  0  0  0  0  0  0
   15.1633   23.5283   -5.2139 H   0  0  0  0  0  0  0  0  0  0  0  0
   14.6439   22.8513   -3.0279 H   0  0  0  0  0  0  0  0  0  0  0  0
   16.0470   24.7385   -0.1177 O   0  0  0  0  0  0  0  0  0  0  0  0
   16.6840   25.1417   -1.2800 C   0  0  0  0  0  0  0  0  0  0  0  0
   15.8139   23.7624   -0.1532 H   0  0  0  0  0  0  0  0  0  0  0  0
   16.5167   27.9480   -4.9984 C   0  0  0  0  0  0  0  0  0  0  0  0
   15.8539   29.1033   -5.4064 O   0  0  0  0  0  0  0  0  0  0  0  0
   14.9630   28.8947   -5.7931 H   0  0  0  0  0  0  0  0  0  0  0  0
 13 14  1  0  0  0
 14  1  1  0  0  0
  1  2  1  0  0  0
  2  3  1  0  0  0
  3 16  1  0  0  0
 16 17  1  0  0  0
  3  4  1  0  0  0
  4  5  1  0  0  0
  4  6  1  0  0  0
  6  7  1  0  0  0
  6  8  1  0  0  0
  8  9  1  0  0  0
  8  1  1  0  0  0
 13 15  1  0  0  0
 17 18  1  0  0  0
  5 10  1  0  0  0
  7 11  1  0  0  0
  9 12  1  0  0  0
M  END
> <minimizedAffinity>
-5.21999

> <CNNscore>
0.3826368451

> <CNNaffinity>
3.5765252113

> <CNN_VS>
1.3685103655

> <CNNaffinity_variance>
0.2168130875

$$$$
[H]OC([H])([H])[C@]1([H])O[C@]([H])(C([H])([H])O[H])[C@]([H])(O[H])[C@]([H])(O[H])[C@]1([H])O[H]


 18 18  0  0  0  0  0  0  0  0999 V2000
   16.4019   26.2554   -3.3019 C   0  0  0  0  0  0  0  0  0  0  0  0
   15.9036   25.9224   -2.0601 O   0  0  0  0  0  0  0  0  0  0  0  0
   15.7001   24.5563   -2.0058 C   0  0  0  0  0  0  0  0  0  0  0  0
   14.7455   24.0753   -3.0712 C   0  0  0  0  0  0  0  0  0  0  0  0
   13.6861   23.3797   -2.4954 O   0  0  0  0  0  0  0  0  0  0  0  0
   14.1848   25.2342   -3.8511 C   0  0  0  0  0  0  0  0  0  0  0  0
   13.2163   25.9022   -3.1170 O   0  0  0  0  0  0  0  0  0  0  0  0
   15.2766   26.1822   -4.3075 C   0  0  0  0  0  0  0  0  0  0  0  0
   14.7181   27.4477   -4.4852 O   0  0  0  0  0  0  0  0  0  0  0  0
   13.6064   22.4642   -2.8099 H   0  0  0  0  0  0  0  0  0  0  0  0
   12.6650   26.4295   -3.7722 H   0  0  0  0  0  0  0  0  0  0  0  0
   14.1505   27.3985   -5.3087 H   0  0  0  0  0  0  0  0  0  0  0  0
   17.4052   28.1156   -4.4386 O   0  0  0  0  0  0  0  0  0  0  0  0
   16.9746   27.6536   -3.2056 C   0  0  0  0  0  0  0  0  0  0  0  0
   16.7097   28.6978   -4.8695 H   0  0  0  0  0  0  0  0  0  0  0  0
   15.2122   24.2006   -0.6169 C   0  0  0  0  0  0  0  0  0  0  0  0
   14.0827   24.9696   -0.3464 O   0  0  0  0  0  0  0  0  0  0  0  0
   14.2869   25.9411   -0.3800 H   0  0  0  0  0  0  0  0  0  0  0  0
 13 14  1  0  0  0
 14  1  1  0  0  0
  1  2  1  0  0  0
  2  3  1  0  0  0
  3 16  1  0  0  0
 16 17  1  0  0  0
  3  4  1  0  0  0
  4  5  1  0  0  0
  4  6  1  0  0  0
  6  7  1  0  0  0
  6  8  1  0  0  0
  8  9  1  0  0  0
  8  1  1  0  0  0
 13 15  1  0  0  0
 17 18  1  0  0  0
  5 10  1  0  0  0
  7 11  1  0  0  0
  9 12  1  0  0  0
M  END
> <minimizedAffinity>
-4.81216

> <CNNscore>
0.3799044192

> <CNNaffinity>
3.6005318165

> <CNN_VS>
1.3678579330

> <CNNaffinity_variance>
0.1015519127

$$$$
[H]OC([H])([H])[C@]1([H])O[C@]([H])(C([H])([H])O[H])[C@]([H])(O[H])[C@]([H])(O[H])[C@]1([H])O[H]


 18 18  0  0  0  0  0  0  0  0999 V2000
   15.0929   24.9789   -2.8541 C   0  0  0  0  0  0  0  0  0  0  0  0
   15.2316   24.7841   -1.4962 O   0  0  0  0  0  0  0  0  0  0  0  0
   14.6914   23.5577   -1.1577 C   0  0  0  0  0  0  0  0  0  0  0  0
   13.2329   23.4504   -1.5301 C   0  0  0  0  0  0  0  0  0  0  0  0
   12.4702   23.1182   -0.4140 O   0  0  0  0  0  0  0  0  0  0  0  0
   12.7234   24.7546   -2.0825 C   0  0  0  0  0  0  0  0  0  0  0  0
   12.5188   25.6759   -1.0666 O   0  0  0  0  0  0  0  0  0  0  0  0
   13.6483   25.3105   -3.1478 C   0  0  0  0  0  0  0  0  0  0  0  0
   13.4818   26.6942   -3.2001 O   0  0  0  0  0  0  0  0  0  0  0  0
   11.9734   22.2899   -0.5159 H   0  0  0  0  0  0  0  0  0  0  0  0
   11.8942   26.3761   -1.4284 H   0  0  0  0  0  0  0  0  0  0  0  0
   12.5870   26.8606   -3.6175 H   0  0  0  0  0  0  0  0  0  0  0  0
   17.1054   26.2046   -2.3990 O   0  0  0  0  0  0  0  0  0  0  0  0
   16.0172   26.1104   -3.2512 C   0  0  0  0  0  0  0  0  0  0  0  0
   17.9088   25.7431   -2.7862 H   0  0  0  0  0  0  0  0  0  0  0  0
   14.9075   23.3330    0.3244 C   0  0  0  0  0  0  0  0  0  0  0  0
   14.5324   24.4944    0.9958 O   0  0  0  0  0  0  0  0  0  0  0  0
   15.0729   25.2748    0.7035 H   0  0  0  0  0  0  0  0  0  0  0  0
 13 14  1  0  0  0
 14  1  1  0  0  0
  1  2  1  0  0  0
  2  3  1  0  0  0
  3 16  1  0  0  0
 16 17  1  0  0  0
  3  4  1  0  0  0
  4  5  1  0  0  0
  4  6  1  0  0  0
  6  7  1  0  0  0
  6  8  1  0  0  0
  8  9  1  0  0  0
  8  1  1  0  0  0
 13 15  1  0  0  0
 17 18  1  0  0  0
  5 10  1  0  0  0
  7 11  1  0  0  0
  9 12  1  0  0  0
M  END
> <minimizedAffinity>
-4.90735

> <CNNscore>
0.3656673729

> <CNNaffinity>
3.5783278942

> <CNN_VS>
1.3084777594

> <CNNaffinity_variance>
0.3467272520

$$$$
[H]OC(=O)C([H])([H])[C@@]([H])(C(=O)N([H])[C@]([H])(C(=O)N([H])[H])C([H])([H])c1c([H])c([H])c(O[H])c([H])c1[H])N([H])C(=O)[C@@]([H])(N([H])C(=O)[C@]([H])(N([H])C(=O)[C@]([H])(N([H])C(=O)c1c([H])c([H])c(O[H])c([H])c1[H])C([H])([H])c1c([H])c([H])c(O[H])c([H])c1[H])C([H])([H])[H])C([H])([H])c1c([H])c([H])c(O[H])c([H])c1[H]


 71 74  0  0  0  0  0  0  0  0999 V2000
   10.8762   23.9835   -0.8381 C   0  0  0  0  0  0  0  0  0  0  0  0
   10.4441   23.9847    1.6327 C   0  0  0  0  0  0  0  0  0  0  0  0
   11.4106   23.1870    1.7781 O   0  0  0  0  0  0  0  0  0  0  0  0
   10.1331   24.4009    0.3333 N   0  0  0  0  0  0  0  0  0  0  0  0
    9.3380   25.0394    0.1781 H   0  0  0  0  0  0  0  0  0  0  0  0
    8.6043   25.4220    2.5315 C   0  0  0  0  0  0  0  0  0  0  0  0
    9.7038   24.4295    2.8188 C   0  0  0  0  0  0  0  0  0  0  0  0
    9.1490   23.3220    3.5583 N   0  0  0  0  0  0  0  0  0  0  0  0
    7.7693   23.0049    3.6249 C   0  0  0  0  0  0  0  0  0  0  0  0
    6.8938   23.6769    3.0301 O   0  0  0  0  0  0  0  0  0  0  0  0
    9.8113   22.6879    4.0973 H   0  0  0  0  0  0  0  0  0  0  0  0
    7.3094   21.8247    4.4275 C   0  0  0  0  0  0  0  0  0  0  0  0
    6.3965   21.0070    3.6631 N   0  0  0  0  0  0  0  0  0  0  0  0
    6.1513   19.6576    3.9663 C   0  0  0  0  0  0  0  0  0  0  0  0
    6.7341   19.1224    4.9262 O   0  0  0  0  0  0  0  0  0  0  0  0
    5.9067   21.4468    2.8572 H   0  0  0  0  0  0  0  0  0  0  0  0
    5.2155   18.8496    3.1773 C   0  0  0  0  0  0  0  0  0  0  0  0
    5.6161   18.0712    2.1219 C   0  0  0  0  0  0  0  0  0  0  0  0
    4.6980   17.3352    1.3941 C   0  0  0  0  0  0  0  0  0  0  0  0
    3.3527   17.3458    1.6878 C   0  0  0  0  0  0  0  0  0  0  0  0
    2.4065   16.6038    0.9573 O   0  0  0  0  0  0  0  0  0  0  0  0
    2.9745   18.1350    2.7521 C   0  0  0  0  0  0  0  0  0  0  0  0
    3.8592   18.8732    3.4898 C   0  0  0  0  0  0  0  0  0  0  0  0
    1.4330   16.6562    1.2246 H   0  0  0  0  0  0  0  0  0  0  0  0
    6.7447   22.2941    5.7486 C   0  0  0  0  0  0  0  0  0  0  0  0
    7.7995   22.4475    6.7801 C   0  0  0  0  0  0  0  0  0  0  0  0
    7.8190   23.6501    7.4628 C   0  0  0  0  0  0  0  0  0  0  0  0
    8.7636   23.8681    8.4432 C   0  0  0  0  0  0  0  0  0  0  0  0
    9.7103   22.9192    8.7793 C   0  0  0  0  0  0  0  0  0  0  0  0
   10.6666   23.1417    9.7733 O   0  0  0  0  0  0  0  0  0  0  0  0
    9.6478   21.7326    8.0672 C   0  0  0  0  0  0  0  0  0  0  0  0
    8.7118   21.4864    7.0787 C   0  0  0  0  0  0  0  0  0  0  0  0
   10.4195   22.8754   10.7052 H   0  0  0  0  0  0  0  0  0  0  0  0
   10.7937   22.5713   -1.1594 C   0  0  0  0  0  0  0  0  0  0  0  0
   11.6811   21.9849   -1.8152 O   0  0  0  0  0  0  0  0  0  0  0  0
    9.6844   21.8131   -0.7263 N   0  0  0  0  0  0  0  0  0  0  0  0
    8.9296   22.2840   -0.1485 H   0  0  0  0  0  0  0  0  0  0  0  0
    9.4775   20.4090   -1.0043 C   0  0  0  0  0  0  0  0  0  0  0  0
    8.0181   20.1654   -0.9799 C   0  0  0  0  0  0  0  0  0  0  0  0
    7.6367   19.0075   -0.5505 O   0  0  0  0  0  0  0  0  0  0  0  0
    7.0254   21.0873   -1.3811 N   0  0  0  0  0  0  0  0  0  0  0  0
    7.3073   22.0220   -1.7188 H   0  0  0  0  0  0  0  0  0  0  0  0
    5.6092   20.6893   -1.3050 C   0  0  0  0  0  0  0  0  0  0  0  0
    5.0517   20.9715    0.0082 C   0  0  0  0  0  0  0  0  0  0  0  0
    3.7181   20.7445    0.4088 N   0  0  0  0  0  0  0  0  0  0  0  0
    5.8131   21.4749    0.9059 O   0  0  0  0  0  0  0  0  0  0  0  0
    3.5479   20.2058    1.2874 H   0  0  0  0  0  0  0  0  0  0  0  0
    2.8725   21.0887   -0.1237 H   0  0  0  0  0  0  0  0  0  0  0  0
    5.4571   19.2829   -1.8140 C   0  0  0  0  0  0  0  0  0  0  0  0
    4.2245   19.0031   -2.5600 C   0  0  0  0  0  0  0  0  0  0  0  0
    3.7489   19.6817   -3.6507 C   0  0  0  0  0  0  0  0  0  0  0  0
    2.5494   19.3239   -4.2847 C   0  0  0  0  0  0  0  0  0  0  0  0
    1.7994   18.2677   -3.8306 C   0  0  0  0  0  0  0  0  0  0  0  0
    0.6176   17.9296   -4.4720 O   0  0  0  0  0  0  0  0  0  0  0  0
    2.2630   17.5596   -2.7208 C   0  0  0  0  0  0  0  0  0  0  0  0
    3.4379   17.9240   -2.1138 C   0  0  0  0  0  0  0  0  0  0  0  0
    0.6166   17.2663   -5.2307 H   0  0  0  0  0  0  0  0  0  0  0  0
   10.1544   19.5233    0.0186 C   0  0  0  0  0  0  0  0  0  0  0  0
   10.6674   20.2396    1.1909 C   0  0  0  0  0  0  0  0  0  0  0  0
   12.0248   20.4625    1.3164 O   0  0  0  0  0  0  0  0  0  0  0  0
    9.8742   20.6470    2.0762 O   0  0  0  0  0  0  0  0  0  0  0  0
   12.4788   20.7130    2.2077 H   0  0  0  0  0  0  0  0  0  0  0  0
   12.3337   24.4150   -0.5933 C   0  0  0  0  0  0  0  0  0  0  0  0
   13.0028   24.8919   -1.8119 C   0  0  0  0  0  0  0  0  0  0  0  0
   14.0995   24.2339   -2.2895 C   0  0  0  0  0  0  0  0  0  0  0  0
   14.7410   24.6764   -3.4151 C   0  0  0  0  0  0  0  0  0  0  0  0
   14.3222   25.8021   -4.1275 C   0  0  0  0  0  0  0  0  0  0  0  0
   14.9739   26.2511   -5.2691 O   0  0  0  0  0  0  0  0  0  0  0  0
   13.2125   26.4308   -3.6073 C   0  0  0  0  0  0  0  0  0  0  0  0
   12.5474   26.0062   -2.4762 C   0  0  0  0  0  0  0  0  0  0  0  0
   15.7306   26.9302   -5.0829 H   0  0  0  0  0  0  0  0  0  0  0  0
  6  7  1  0  0  0
  7  8  1  0  0  0
  8  9  1  0  0  0
  9 10  2  0  0  0
  9 12  1  0  0  0
 12 25  1  0  0  0
 25 26  1  0  0  0
 26 27  2  0  0  0
 27 28  1  0  0  0
 28 29  2  0  0  0
 29 30  1  0  0  0
 29 31  1  0  0  0
 31 32  2  0  0  0
 12 13  1  0  0  0
 13 14  1  0  0  0
 14 15  2  0  0  0
 14 17  1  0  0  0
 17 18  2  0  0  0
 18 19  1  0  0  0
 19 20  2  0  0  0
 20 21  1  0  0  0
 20 22  1  0  0  0
 22 23  2  0  0  0
  7  2  1  0  0  0
  2  3  2  0  0  0
  2  4  1  0  0  0
  4  1  1  0  0  0
  1 63  1  0  0  0
 63 64  1  0  0  0
 64 65  2  0  0  0
 65 66  1  0  0  0
 66 67  2  0  0  0
 67 68  1  0  0  0
 67 69  1  0  0  0
 69 70  2  0  0  0
  1 34  1  0  0  0
 34 35  2  0  0  0
 34 36  1  0  0  0
 36 38  1  0  0  0
 38 58  1  0  0  0
 58 59  1  0  0  0
 59 60  1  0  0  0
 59 61  2  0  0  0
 38 39  1  0  0  0
 39 40  2  0  0  0
 39 41  1  0  0  0
 41 43  1  0  0  0
 43 49  1  0  0  0
 49 50  1  0  0  0
 50 51  2  0  0  0
 51 52  1  0  0  0
 52 53  2  0  0  0
 53 54  1  0  0  0
 53 55  1  0  0  0
 55 56  2  0  0  0
 43 44  1  0  0  0
 44 45  1  0  0  0
 44 46  2  0  0  0
 32 26  1  0  0  0
 23 17  1  0  0  0
 70 64  1  0  0  0
 56 50  1  0  0  0
  8 11  1  0  0  0
 30 33  1  0  0  0
 13 16  1  0  0  0
 21 24  1  0  0  0
  4  5  1  0  0  0
 68 71  1  0  0  0
 36 37  1  0  0  0
 60 62  1  0  0  0
 41 42  1  0  0  0
 54 57  1  0  0  0
 45 47  1  0  0  0
 45 48  1  0  0  0
M  END
> <minimizedAffinity>
-9.01759

> <CNNscore>
0.2577079535

> <CNNaffinity>
7.4542527199

> <CNN_VS>
1.9210202694

> <CNNaffinity_variance>
0.2276672572

$$$$
[H]OC(=O)C([H])([H])[C@@]([H])(C(=O)N([H])[C@]([H])(C(=O)N([H])[H])C([H])([H])c1c([H])c([H])c(O[H])c([H])c1[H])N([H])C(=O)[C@@]([H])(N([H])C(=O)[C@]([H])(N([H])C(=O)[C@]([H])(N([H])C(=O)c1c([H])c([H])c(O[H])c([H])c1[H])C([H])([H])c1c([H])c([H])c(O[H])c([H])c1[H])C([H])([H])[H])C([H])([H])c1c([H])c([H])c(O[H])c([H])c1[H]


 71 74  0  0  0  0  0  0  0  0999 V2000
    3.6290   19.9693    0.9529 C   0  0  0  0  0  0  0  0  0  0  0  0
    6.0528   19.9971    0.3076 C   0  0  0  0  0  0  0  0  0  0  0  0
    6.3544   19.9917    1.5326 O   0  0  0  0  0  0  0  0  0  0  0  0
    4.6943   19.9986   -0.0284 N   0  0  0  0  0  0  0  0  0  0  0  0
    4.4136   20.0203   -1.0208 H   0  0  0  0  0  0  0  0  0  0  0  0
    6.6509   20.0057   -2.1216 C   0  0  0  0  0  0  0  0  0  0  0  0
    7.1284   20.0020   -0.6903 C   0  0  0  0  0  0  0  0  0  0  0  0
    8.0384   21.1053   -0.5008 N   0  0  0  0  0  0  0  0  0  0  0  0
    9.4068   20.9742   -0.1564 C   0  0  0  0  0  0  0  0  0  0  0  0
    9.9550   19.8597    0.0149 O   0  0  0  0  0  0  0  0  0  0  0  0
    7.6700   22.0953   -0.6257 H   0  0  0  0  0  0  0  0  0  0  0  0
   10.2575   22.1974    0.0136 C   0  0  0  0  0  0  0  0  0  0  0  0
    9.6293   23.1404    0.9093 N   0  0  0  0  0  0  0  0  0  0  0  0
    9.7133   23.0304    2.3071 C   0  0  0  0  0  0  0  0  0  0  0  0
   10.3469   22.0894    2.8175 O   0  0  0  0  0  0  0  0  0  0  0  0
    9.0956   23.9292    0.4901 H   0  0  0  0  0  0  0  0  0  0  0  0
    9.0704   24.0042    3.1954 C   0  0  0  0  0  0  0  0  0  0  0  0
    9.1848   23.9503    4.5608 C   0  0  0  0  0  0  0  0  0  0  0  0
    8.5494   24.8809    5.3637 C   0  0  0  0  0  0  0  0  0  0  0  0
    7.7798   25.8960    4.8406 C   0  0  0  0  0  0  0  0  0  0  0  0
    7.1270   26.8495    5.6430 O   0  0  0  0  0  0  0  0  0  0  0  0
    7.6799   25.9295    3.4667 C   0  0  0  0  0  0  0  0  0  0  0  0
    8.2966   25.0236    2.6477 C   0  0  0  0  0  0  0  0  0  0  0  0
    6.5762   27.5694    5.1955 H   0  0  0  0  0  0  0  0  0  0  0  0
   10.5947   22.7773   -1.3408 C   0  0  0  0  0  0  0  0  0  0  0  0
   11.9368   23.4087   -1.3558 C   0  0  0  0  0  0  0  0  0  0  0  0
   13.0033   22.5898   -1.0323 C   0  0  0  0  0  0  0  0  0  0  0  0
   14.2846   23.0990   -1.0314 C   0  0  0  0  0  0  0  0  0  0  0  0
   14.5547   24.4174   -1.3451 C   0  0  0  0  0  0  0  0  0  0  0  0
   15.8538   24.9314   -1.3440 O   0  0  0  0  0  0  0  0  0  0  0  0
   13.4531   25.1951   -1.6622 C   0  0  0  0  0  0  0  0  0  0  0  0
   12.1569   24.7116   -1.6711 C   0  0  0  0  0  0  0  0  0  0  0  0
   16.3625   24.8746   -2.2032 H   0  0  0  0  0  0  0  0  0  0  0  0
    3.4188   18.6924    1.6082 C   0  0  0  0  0  0  0  0  0  0  0  0
    2.3399   18.0682    1.5193 O   0  0  0  0  0  0  0  0  0  0  0  0
    4.4533   18.1148    2.3759 N   0  0  0  0  0  0  0  0  0  0  0  0
    5.3859   18.6151    2.4471 H   0  0  0  0  0  0  0  0  0  0  0  0
    4.3560   16.8634    3.0944 C   0  0  0  0  0  0  0  0  0  0  0  0
    5.2329   16.9678    4.2817 C   0  0  0  0  0  0  0  0  0  0  0  0
    6.4110   17.4612    4.0835 O   0  0  0  0  0  0  0  0  0  0  0  0
    4.8861   16.5782    5.5948 N   0  0  0  0  0  0  0  0  0  0  0  0
    3.9464   16.1900    5.7777 H   0  0  0  0  0  0  0  0  0  0  0  0
    5.8778   16.7382    6.6722 C   0  0  0  0  0  0  0  0  0  0  0  0
    5.8663   15.5970    7.5735 C   0  0  0  0  0  0  0  0  0  0  0  0
    6.8235   15.3198    8.5722 N   0  0  0  0  0  0  0  0  0  0  0  0
    4.9158   14.7448    7.4771 O   0  0  0  0  0  0  0  0  0  0  0  0
    6.4881   15.1288    9.5428 H   0  0  0  0  0  0  0  0  0  0  0  0
    7.8662   15.2892    8.4018 H   0  0  0  0  0  0  0  0  0  0  0  0
    5.7190   18.0949    7.3003 C   0  0  0  0  0  0  0  0  0  0  0  0
    6.8855   18.9811    7.2105 C   0  0  0  0  0  0  0  0  0  0  0  0
    7.0478   20.0474    6.3662 C   0  0  0  0  0  0  0  0  0  0  0  0
    8.2149   20.8263    6.3672 C   0  0  0  0  0  0  0  0  0  0  0  0
    9.2494   20.5459    7.2248 C   0  0  0  0  0  0  0  0  0  0  0  0
   10.3937   21.3285    7.2107 O   0  0  0  0  0  0  0  0  0  0  0  0
    9.1081   19.4644    8.0957 C   0  0  0  0  0  0  0  0  0  0  0  0
    7.9600   18.7140    8.0803 C   0  0  0  0  0  0  0  0  0  0  0  0
   10.4678   22.1405    7.8030 H   0  0  0  0  0  0  0  0  0  0  0  0
    4.7915   15.6883    2.2467 C   0  0  0  0  0  0  0  0  0  0  0  0
    5.1859   16.0443    0.8798 C   0  0  0  0  0  0  0  0  0  0  0  0
    4.2562   15.9781   -0.1396 O   0  0  0  0  0  0  0  0  0  0  0  0
    6.3647   16.4069    0.6393 O   0  0  0  0  0  0  0  0  0  0  0  0
    4.5103   15.9541   -1.1387 H   0  0  0  0  0  0  0  0  0  0  0  0
    2.3592   20.4332    0.2161 C   0  0  0  0  0  0  0  0  0  0  0  0
    2.4383   20.2416   -1.2390 C   0  0  0  0  0  0  0  0  0  0  0  0
    2.0066   19.0728   -1.7971 C   0  0  0  0  0  0  0  0  0  0  0  0
    2.0884   18.8756   -3.1493 C   0  0  0  0  0  0  0  0  0  0  0  0
    2.6065   19.8360   -4.0208 C   0  0  0  0  0  0  0  0  0  0  0  0
    2.6901   19.6352   -5.3928 O   0  0  0  0  0  0  0  0  0  0  0  0
    3.0279   20.9970   -3.4109 C   0  0  0  0  0  0  0  0  0  0  0  0
    2.9565   21.2217   -2.0520 C   0  0  0  0  0  0  0  0  0  0  0  0
    3.5769   19.2038   -5.7023 H   0  0  0  0  0  0  0  0  0  0  0  0
  6  7  1  0  0  0
  7  8  1  0  0  0
  8  9  1  0  0  0
  9 10  2  0  0  0
  9 12  1  0  0  0
 12 25  1  0  0  0
 25 26  1  0  0  0
 26 27  2  0  0  0
 27 28  1  0  0  0
 28 29  2  0  0  0
 29 30  1  0  0  0
 29 31  1  0  0  0
 31 32  2  0  0  0
 12 13  1  0  0  0
 13 14  1  0  0  0
 14 15  2  0  0  0
 14 17  1  0  0  0
 17 18  2  0  0  0
 18 19  1  0  0  0
 19 20  2  0  0  0
 20 21  1  0  0  0
 20 22  1  0  0  0
 22 23  2  0  0  0
  7  2  1  0  0  0
  2  3  2  0  0  0
  2  4  1  0  0  0
  4  1  1  0  0  0
  1 63  1  0  0  0
 63 64  1  0  0  0
 64 65  2  0  0  0
 65 66  1  0  0  0
 66 67  2  0  0  0
 67 68  1  0  0  0
 67 69  1  0  0  0
 69 70  2  0  0  0
  1 34  1  0  0  0
 34 35  2  0  0  0
 34 36  1  0  0  0
 36 38  1  0  0  0
 38 58  1  0  0  0
 58 59  1  0  0  0
 59 60  1  0  0  0
 59 61  2  0  0  0
 38 39  1  0  0  0
 39 40  2  0  0  0
 39 41  1  0  0  0
 41 43  1  0  0  0
 43 49  1  0  0  0
 49 50  1  0  0  0
 50 51  2  0  0  0
 51 52  1  0  0  0
 52 53  2  0  0  0
 53 54  1  0  0  0
 53 55  1  0  0  0
 55 56  2  0  0  0
 43 44  1  0  0  0
 44 45  1  0  0  0
 44 46  2  0  0  0
 32 26  1  0  0  0
 23 17  1  0  0  0
 70 64  1  0  0  0
 56 50  1  0  0  0
  8 11  1  0  0  0
 30 33  1  0  0  0
 13 16  1  0  0  0
 21 24  1  0  0  0
  4  5  1  0  0  0
 68 71  1  0  0  0
 36 37  1  0  0  0
 60 62  1  0  0  0
 41 42  1  0  0  0
 54 57  1  0  0  0
 45 47  1  0  0  0
 45 48  1  0  0  0
M  END
> <minimizedAffinity>
-9.10672

> <CNNscore>
0.1956008226

> <CNNaffinity>
6.9407777786

> <CNN_VS>
1.3576217890

> <CNNaffinity_variance>
0.9734098315

$$$$
[H]OC(=O)C([H])([H])[C@@]([H])(C(=O)N([H])[C@]([H])(C(=O)N([H])[H])C([H])([H])c1c([H])c([H])c(O[H])c([H])c1[H])N([H])C(=O)[C@@]([H])(N([H])C(=O)[C@]([H])(N([H])C(=O)[C@]([H])(N([H])C(=O)c1c([H])c([H])c(O[H])c([H])c1[H])C([H])([H])c1c([H])c([H])c(O[H])c([H])c1[H])C([H])([H])[H])C([H])([H])c1c([H])c([H])c(O[H])c([H])c1[H]


 71 74  0  0  0  0  0  0  0  0999 V2000
   11.1359   23.9485   -1.1675 C   0  0  0  0  0  0  0  0  0  0  0  0
   10.5880   24.2639    1.2599 C   0  0  0  0  0  0  0  0  0  0  0  0
   11.5298   23.4764    1.5503 O   0  0  0  0  0  0  0  0  0  0  0  0
   10.3473   24.5196   -0.0948 N   0  0  0  0  0  0  0  0  0  0  0  0
    9.5738   25.1454   -0.3669 H   0  0  0  0  0  0  0  0  0  0  0  0
    8.3493   25.0937    2.0072 C   0  0  0  0  0  0  0  0  0  0  0  0
    9.8020   24.8640    2.3438 C   0  0  0  0  0  0  0  0  0  0  0  0
    9.8812   24.0939    3.5611 N   0  0  0  0  0  0  0  0  0  0  0  0
    8.9490   23.1001    3.9507 C   0  0  0  0  0  0  0  0  0  0  0  0
    7.9533   22.7985    3.2511 O   0  0  0  0  0  0  0  0  0  0  0  0
   10.6931   24.2734    4.2244 H   0  0  0  0  0  0  0  0  0  0  0  0
    9.1363   22.3621    5.2426 C   0  0  0  0  0  0  0  0  0  0  0  0
    8.3778   21.1328    5.2475 N   0  0  0  0  0  0  0  0  0  0  0  0
    8.9124   19.9136    5.6954 C   0  0  0  0  0  0  0  0  0  0  0  0
   10.0854   19.8653    6.1069 O   0  0  0  0  0  0  0  0  0  0  0  0
    7.3966   21.1645    4.9027 H   0  0  0  0  0  0  0  0  0  0  0  0
    8.1198   18.6796    5.6948 C   0  0  0  0  0  0  0  0  0  0  0  0
    6.8585   18.6092    5.1614 C   0  0  0  0  0  0  0  0  0  0  0  0
    6.1387   17.4281    5.1947 C   0  0  0  0  0  0  0  0  0  0  0  0
    6.6445   16.2775    5.7573 C   0  0  0  0  0  0  0  0  0  0  0  0
    5.9253   15.0690    5.7997 O   0  0  0  0  0  0  0  0  0  0  0  0
    7.9132   16.3729    6.2865 C   0  0  0  0  0  0  0  0  0  0  0  0
    8.6485   17.5265    6.2680 C   0  0  0  0  0  0  0  0  0  0  0  0
    6.3545   14.2603    6.2283 H   0  0  0  0  0  0  0  0  0  0  0  0
    8.8196   23.2764    6.4037 C   0  0  0  0  0  0  0  0  0  0  0  0
    7.5962   24.0791    6.1606 C   0  0  0  0  0  0  0  0  0  0  0  0
    6.3900   23.4203    6.3146 C   0  0  0  0  0  0  0  0  0  0  0  0
    5.2064   24.0986    6.1146 C   0  0  0  0  0  0  0  0  0  0  0  0
    5.1723   25.4337    5.7596 C   0  0  0  0  0  0  0  0  0  0  0  0
    3.9720   26.1196    5.5578 O   0  0  0  0  0  0  0  0  0  0  0  0
    6.4061   26.0475    5.6187 C   0  0  0  0  0  0  0  0  0  0  0  0
    7.6091   25.3921    5.8126 C   0  0  0  0  0  0  0  0  0  0  0  0
    3.5698   26.5699    6.3550 H   0  0  0  0  0  0  0  0  0  0  0  0
   11.0615   22.5056   -1.2973 C   0  0  0  0  0  0  0  0  0  0  0  0
   11.9893   21.8334   -1.7961 O   0  0  0  0  0  0  0  0  0  0  0  0
    9.9136   21.8156   -0.8507 N   0  0  0  0  0  0  0  0  0  0  0  0
    9.1227   22.3624   -0.4028 H   0  0  0  0  0  0  0  0  0  0  0  0
    9.7120   20.3868   -0.9484 C   0  0  0  0  0  0  0  0  0  0  0  0
    8.2872   20.1215   -0.6499 C   0  0  0  0  0  0  0  0  0  0  0  0
    7.9471   18.8801   -0.5323 O   0  0  0  0  0  0  0  0  0  0  0  0
    7.2865   21.1050   -0.4838 N   0  0  0  0  0  0  0  0  0  0  0  0
    7.5380   22.1037   -0.5644 H   0  0  0  0  0  0  0  0  0  0  0  0
    5.9062   20.6777   -0.1975 C   0  0  0  0  0  0  0  0  0  0  0  0
    5.7225   20.4016    1.2184 C   0  0  0  0  0  0  0  0  0  0  0  0
    5.7298   19.1263    1.8220 N   0  0  0  0  0  0  0  0  0  0  0  0
    5.5315   21.3828    2.0182 O   0  0  0  0  0  0  0  0  0  0  0  0
    6.3515   18.9705    2.6468 H   0  0  0  0  0  0  0  0  0  0  0  0
    5.1410   18.3120    1.4945 H   0  0  0  0  0  0  0  0  0  0  0  0
    5.5122   19.5867   -1.1539 C   0  0  0  0  0  0  0  0  0  0  0  0
    4.5383   19.9624   -2.1857 C   0  0  0  0  0  0  0  0  0  0  0  0
    4.0596   21.2184   -2.4493 C   0  0  0  0  0  0  0  0  0  0  0  0
    3.1223   21.4594   -3.4653 C   0  0  0  0  0  0  0  0  0  0  0  0
    2.6451   20.4335   -4.2425 C   0  0  0  0  0  0  0  0  0  0  0  0
    1.7201   20.6929   -5.2421 O   0  0  0  0  0  0  0  0  0  0  0  0
    3.1180   19.1441   -3.9941 C   0  0  0  0  0  0  0  0  0  0  0  0
    4.0341   18.9275   -2.9963 C   0  0  0  0  0  0  0  0  0  0  0  0
    2.0232   20.9129   -6.1778 H   0  0  0  0  0  0  0  0  0  0  0  0
   10.5826   19.6240    0.0259 C   0  0  0  0  0  0  0  0  0  0  0  0
   10.9890   20.3970    1.2040 C   0  0  0  0  0  0  0  0  0  0  0  0
   12.2801   20.8797    1.2933 O   0  0  0  0  0  0  0  0  0  0  0  0
   10.1653   20.6172    2.1269 O   0  0  0  0  0  0  0  0  0  0  0  0
   12.7094   21.1918    2.1774 H   0  0  0  0  0  0  0  0  0  0  0  0
   12.5837   24.4121   -0.9243 C   0  0  0  0  0  0  0  0  0  0  0  0
   13.2416   24.9014   -2.1441 C   0  0  0  0  0  0  0  0  0  0  0  0
   14.3245   24.2395   -2.6471 C   0  0  0  0  0  0  0  0  0  0  0  0
   14.9556   24.6931   -3.7741 C   0  0  0  0  0  0  0  0  0  0  0  0
   14.5397   25.8346   -4.4627 C   0  0  0  0  0  0  0  0  0  0  0  0
   15.1808   26.2949   -5.6058 O   0  0  0  0  0  0  0  0  0  0  0  0
   13.4440   26.4667   -3.9174 C   0  0  0  0  0  0  0  0  0  0  0  0
   12.7895   26.0311   -2.7842 C   0  0  0  0  0  0  0  0  0  0  0  0
   15.9473   26.9628   -5.4191 H   0  0  0  0  0  0  0  0  0  0  0  0
  6  7  1  0  0  0
  7  8  1  0  0  0
  8  9  1  0  0  0
  9 10  2  0  0  0
  9 12  1  0  0  0
 12 25  1  0  0  0
 25 26  1  0  0  0
 26 27  2  0  0  0
 27 28  1  0  0  0
 28 29  2  0  0  0
 29 30  1  0  0  0
 29 31  1  0  0  0
 31 32  2  0  0  0
 12 13  1  0  0  0
 13 14  1  0  0  0
 14 15  2  0  0  0
 14 17  1  0  0  0
 17 18  2  0  0  0
 18 19  1  0  0  0
 19 20  2  0  0  0
 20 21  1  0  0  0
 20 22  1  0  0  0
 22 23  2  0  0  0
  7  2  1  0  0  0
  2  3  2  0  0  0
  2  4  1  0  0  0
  4  1  1  0  0  0
  1 63  1  0  0  0
 63 64  1  0  0  0
 64 65  2  0  0  0
 65 66  1  0  0  0
 66 67  2  0  0  0
 67 68  1  0  0  0
 67 69  1  0  0  0
 69 70  2  0  0  0
  1 34  1  0  0  0
 34 35  2  0  0  0
 34 36  1  0  0  0
 36 38  1  0  0  0
 38 58  1  0  0  0
 58 59  1  0  0  0
 59 60  1  0  0  0
 59 61  2  0  0  0
 38 39  1  0  0  0
 39 40  2  0  0  0
 39 41  1  0  0  0
 41 43  1  0  0  0
 43 49  1  0  0  0
 49 50  1  0  0  0
 50 51  2  0  0  0
 51 52  1  0  0  0
 52 53  2  0  0  0
 53 54  1  0  0  0
 53 55  1  0  0  0
 55 56  2  0  0  0
 43 44  1  0  0  0
 44 45  1  0  0  0
 44 46  2  0  0  0
 32 26  1  0  0  0
 23 17  1  0  0  0
 70 64  1  0  0  0
 56 50  1  0  0  0
  8 11  1  0  0  0
 30 33  1  0  0  0
 13 16  1  0  0  0
 21 24  1  0  0  0
  4  5  1  0  0  0
 68 71  1  0  0  0
 36 37  1  0  0  0
 60 62  1  0  0  0
 41 42  1  0  0  0
 54 57  1  0  0  0
 45 47  1  0  0  0
 45 48  1  0  0  0
M  END
> <minimizedAffinity>
-9.69177

> <CNNscore>
0.1598273367

> <CNNaffinity>
7.5235810280

> <CNN_VS>
1.2024738789

> <CNNaffinity_variance>
0.1459775567

$$$$
[H]OC(=O)C([H])([H])[C@@]([H])(C(=O)N([H])[C@]([H])(C(=O)N([H])[H])C([H])([H])c1c([H])c([H])c(O[H])c([H])c1[H])N([H])C(=O)[C@@]([H])(N([H])C(=O)[C@]([H])(N([H])C(=O)[C@]([H])(N([H])C(=O)c1c([H])c([H])c(O[H])c([H])c1[H])C([H])([H])c1c([H])c([H])c(O[H])c([H])c1[H])C([H])([H])[H])C([H])([H])c1c([H])c([H])c(O[H])c([H])c1[H]


 71 74  0  0  0  0  0  0  0  0999 V2000
    7.2195   20.0759    0.0211 C   0  0  0  0  0  0  0  0  0  0  0  0
    5.4238   18.7421    1.1560 C   0  0  0  0  0  0  0  0  0  0  0  0
    6.1866   17.7376    1.1300 O   0  0  0  0  0  0  0  0  0  0  0  0
    5.8984   19.9346    0.5983 N   0  0  0  0  0  0  0  0  0  0  0  0
    5.2933   20.7699    0.5880 H   0  0  0  0  0  0  0  0  0  0  0  0
    3.3011   17.4233    1.2730 C   0  0  0  0  0  0  0  0  0  0  0  0
    4.0939   18.6104    1.7616 C   0  0  0  0  0  0  0  0  0  0  0  0
    4.1563   18.5668    3.2023 N   0  0  0  0  0  0  0  0  0  0  0  0
    4.6021   19.6316    4.0244 C   0  0  0  0  0  0  0  0  0  0  0  0
    4.9874   20.7289    3.5562 O   0  0  0  0  0  0  0  0  0  0  0  0
    3.8482   17.6775    3.6978 H   0  0  0  0  0  0  0  0  0  0  0  0
    4.6219   19.4698    5.5151 C   0  0  0  0  0  0  0  0  0  0  0  0
    5.8135   20.0586    6.0806 N   0  0  0  0  0  0  0  0  0  0  0  0
    5.7746   20.9839    7.1366 C   0  0  0  0  0  0  0  0  0  0  0  0
    4.6807   21.3276    7.6192 O   0  0  0  0  0  0  0  0  0  0  0  0
    6.7323   19.7778    5.6810 H   0  0  0  0  0  0  0  0  0  0  0  0
    6.9996   21.5639    7.6968 C   0  0  0  0  0  0  0  0  0  0  0  0
    7.2229   22.9158    7.7489 C   0  0  0  0  0  0  0  0  0  0  0  0
    8.3997   23.4212    8.2725 C   0  0  0  0  0  0  0  0  0  0  0  0
    9.3941   22.6041    8.7621 C   0  0  0  0  0  0  0  0  0  0  0  0
   10.5963   23.1022    9.2971 O   0  0  0  0  0  0  0  0  0  0  0  0
    9.1468   21.2501    8.6991 C   0  0  0  0  0  0  0  0  0  0  0  0
    7.9934   20.7215    8.1873 C   0  0  0  0  0  0  0  0  0  0  0  0
   11.2864   22.4476    9.6394 H   0  0  0  0  0  0  0  0  0  0  0  0
    4.4344   18.0135    5.8734 C   0  0  0  0  0  0  0  0  0  0  0  0
    5.6874   17.3999    6.3771 C   0  0  0  0  0  0  0  0  0  0  0  0
    5.8363   17.3497    7.7511 C   0  0  0  0  0  0  0  0  0  0  0  0
    6.9695   16.7871    8.2991 C   0  0  0  0  0  0  0  0  0  0  0  0
    7.9828   16.2618    7.5201 C   0  0  0  0  0  0  0  0  0  0  0  0
    9.1303   15.6918    8.0772 O   0  0  0  0  0  0  0  0  0  0  0  0
    7.7854   16.3361    6.1511 C   0  0  0  0  0  0  0  0  0  0  0  0
    6.6592   16.8948    5.5735 C   0  0  0  0  0  0  0  0  0  0  0  0
    9.0987   14.7111    8.2712 H   0  0  0  0  0  0  0  0  0  0  0  0
    7.9146   21.3069    0.3465 C   0  0  0  0  0  0  0  0  0  0  0  0
    7.3082   22.3393    0.7038 O   0  0  0  0  0  0  0  0  0  0  0  0
    9.3229   21.3641    0.2658 N   0  0  0  0  0  0  0  0  0  0  0  0
    9.8611   20.4936   -0.0131 H   0  0  0  0  0  0  0  0  0  0  0  0
   10.1244   22.5364    0.5397 C   0  0  0  0  0  0  0  0  0  0  0  0
   11.1902   22.5908   -0.4854 C   0  0  0  0  0  0  0  0  0  0  0  0
   10.9049   22.0793   -1.6376 O   0  0  0  0  0  0  0  0  0  0  0  0
   12.4742   23.1522   -0.3053 N   0  0  0  0  0  0  0  0  0  0  0  0
   12.7204   23.5749    0.6046 H   0  0  0  0  0  0  0  0  0  0  0  0
   13.4305   23.1207   -1.4252 C   0  0  0  0  0  0  0  0  0  0  0  0
   14.1851   21.8776   -1.4398 C   0  0  0  0  0  0  0  0  0  0  0  0
   14.5542   21.1187   -0.3091 N   0  0  0  0  0  0  0  0  0  0  0  0
   14.5674   21.4016   -2.5650 O   0  0  0  0  0  0  0  0  0  0  0  0
   14.3278   20.0990   -0.2994 H   0  0  0  0  0  0  0  0  0  0  0  0
   15.0514   21.5158    0.5348 H   0  0  0  0  0  0  0  0  0  0  0  0
   14.2292   24.3944   -1.4364 C   0  0  0  0  0  0  0  0  0  0  0  0
   14.2217   25.1422   -2.6993 C   0  0  0  0  0  0  0  0  0  0  0  0
   13.3220   26.1004   -3.0848 C   0  0  0  0  0  0  0  0  0  0  0  0
   13.4129   26.7506   -4.3248 C   0  0  0  0  0  0  0  0  0  0  0  0
   14.4191   26.4476   -5.2080 C   0  0  0  0  0  0  0  0  0  0  0  0
   14.4920   27.1026   -6.4278 O   0  0  0  0  0  0  0  0  0  0  0  0
   15.3492   25.4748   -4.8383 C   0  0  0  0  0  0  0  0  0  0  0  0
   15.2442   24.8495   -3.6219 C   0  0  0  0  0  0  0  0  0  0  0  0
   15.0206   27.9553   -6.5221 H   0  0  0  0  0  0  0  0  0  0  0  0
   10.7500   22.4859    1.9163 C   0  0  0  0  0  0  0  0  0  0  0  0
   11.4990   21.2559    2.1933 C   0  0  0  0  0  0  0  0  0  0  0  0
   12.8789   21.2923    2.2450 O   0  0  0  0  0  0  0  0  0  0  0  0
   10.8864   20.1751    2.3816 O   0  0  0  0  0  0  0  0  0  0  0  0
   13.4719   20.4519    2.1709 H   0  0  0  0  0  0  0  0  0  0  0  0
    7.0375   19.9241   -1.5001 C   0  0  0  0  0  0  0  0  0  0  0  0
    5.6499   20.1372   -1.9355 C   0  0  0  0  0  0  0  0  0  0  0  0
    4.9262   19.0953   -2.4402 C   0  0  0  0  0  0  0  0  0  0  0  0
    3.6378   19.2834   -2.8631 C   0  0  0  0  0  0  0  0  0  0  0  0
    2.9994   20.5241   -2.8053 C   0  0  0  0  0  0  0  0  0  0  0  0
    1.6924   20.7146   -3.2353 O   0  0  0  0  0  0  0  0  0  0  0  0
    3.7696   21.5426   -2.2886 C   0  0  0  0  0  0  0  0  0  0  0  0
    5.0688   21.3806   -1.8551 C   0  0  0  0  0  0  0  0  0  0  0  0
    1.6102   20.9726   -4.2329 H   0  0  0  0  0  0  0  0  0  0  0  0
  6  7  1  0  0  0
  7  8  1  0  0  0
  8  9  1  0  0  0
  9 10  2  0  0  0
  9 12  1  0  0  0
 12 25  1  0  0  0
 25 26  1  0  0  0
 26 27  2  0  0  0
 27 28  1  0  0  0
 28 29  2  0  0  0
 29 30  1  0  0  0
 29 31  1  0  0  0
 31 32  2  0  0  0
 12 13  1  0  0  0
 13 14  1  0  0  0
 14 15  2  0  0  0
 14 17  1  0  0  0
 17 18  2  0  0  0
 18 19  1  0  0  0
 19 20  2  0  0  0
 20 21  1  0  0  0
 20 22  1  0  0  0
 22 23  2  0  0  0
  7  2  1  0  0  0
  2  3  2  0  0  0
  2  4  1  0  0  0
  4  1  1  0  0  0
  1 63  1  0  0  0
 63 64  1  0  0  0
 64 65  2  0  0  0
 65 66  1  0  0  0
 66 67  2  0  0  0
 67 68  1  0  0  0
 67 69  1  0  0  0
 69 70  2  0  0  0
  1 34  1  0  0  0
 34 35  2  0  0  0
 34 36  1  0  0  0
 36 38  1  0  0  0
 38 58  1  0  0  0
 58 59  1  0  0  0
 59 60  1  0  0  0
 59 61  2  0  0  0
 38 39  1  0  0  0
 39 40  2  0  0  0
 39 41  1  0  0  0
 41 43  1  0  0  0
 43 49  1  0  0  0
 49 50  1  0  0  0
 50 51  2  0  0  0
 51 52  1  0  0  0
 52 53  2  0  0  0
 53 54  1  0  0  0
 53 55  1  0  0  0
 55 56  2  0  0  0
 43 44  1  0  0  0
 44 45  1  0  0  0
 44 46  2  0  0  0
 32 26  1  0  0  0
 23 17  1  0  0  0
 70 64  1  0  0  0
 56 50  1  0  0  0
  8 11  1  0  0  0
 30 33  1  0  0  0
 13 16  1  0  0  0
 21 24  1  0  0  0
  4  5  1  0  0  0
 68 71  1  0  0  0
 36 37  1  0  0  0
 60 62  1  0  0  0
 41 42  1  0  0  0
 54 57  1  0  0  0
 45 47  1  0  0  0
 45 48  1  0  0  0
M  END
> <minimizedAffinity>
-10.34737

> <CNNscore>
0.1272997409

> <CNNaffinity>
7.2067327499

> <CNN_VS>
0.9174152017

> <CNNaffinity_variance>
0.4943748116

$$$$
[H]OC(=O)C([H])([H])[C@@]([H])(C(=O)N([H])[C@]([H])(C(=O)N([H])[H])C([H])([H])c1c([H])c([H])c(O[H])c([H])c1[H])N([H])C(=O)[C@@]([H])(N([H])C(=O)[C@]([H])(N([H])C(=O)[C@]([H])(N([H])C(=O)c1c([H])c([H])c(O[H])c([H])c1[H])C([H])([H])c1c([H])c([H])c(O[H])c([H])c1[H])C([H])([H])[H])C([H])([H])c1c([H])c([H])c(O[H])c([H])c1[H]


 71 74  0  0  0  0  0  0  0  0999 V2000
    8.6989   22.5416    2.7836 C   0  0  0  0  0  0  0  0  0  0  0  0
    6.6966   21.4945    3.8728 C   0  0  0  0  0  0  0  0  0  0  0  0
    6.0451   21.6923    2.8108 O   0  0  0  0  0  0  0  0  0  0  0  0
    8.0303   21.9171    3.9068 N   0  0  0  0  0  0  0  0  0  0  0  0
    8.5860   21.7859    4.7659 H   0  0  0  0  0  0  0  0  0  0  0  0
    5.6454   19.4029    4.7555 C   0  0  0  0  0  0  0  0  0  0  0  0
    6.0309   20.8402    5.0049 C   0  0  0  0  0  0  0  0  0  0  0  0
    6.8205   20.9074    6.2104 N   0  0  0  0  0  0  0  0  0  0  0  0
    6.2929   20.8702    7.5251 C   0  0  0  0  0  0  0  0  0  0  0  0
    5.0645   20.7713    7.7559 O   0  0  0  0  0  0  0  0  0  0  0  0
    7.8772   20.9907    6.1220 H   0  0  0  0  0  0  0  0  0  0  0  0
    7.2149   20.9470    8.7053 C   0  0  0  0  0  0  0  0  0  0  0  0
    7.3951   22.3161    9.1290 N   0  0  0  0  0  0  0  0  0  0  0  0
    8.1657   23.2393    8.4034 C   0  0  0  0  0  0  0  0  0  0  0  0
    8.7275   22.8861    7.3512 O   0  0  0  0  0  0  0  0  0  0  0  0
    6.9302   22.6187   10.0093 H   0  0  0  0  0  0  0  0  0  0  0  0
    8.3294   24.6259    8.8524 C   0  0  0  0  0  0  0  0  0  0  0  0
    9.1443   24.9748    9.8986 C   0  0  0  0  0  0  0  0  0  0  0  0
    9.2589   26.2940   10.2998 C   0  0  0  0  0  0  0  0  0  0  0  0
    8.5702   27.3113    9.6777 C   0  0  0  0  0  0  0  0  0  0  0  0
    8.6753   28.6572   10.0738 O   0  0  0  0  0  0  0  0  0  0  0  0
    7.7582   26.9362    8.6295 C   0  0  0  0  0  0  0  0  0  0  0  0
    7.6250   25.6407    8.2106 C   0  0  0  0  0  0  0  0  0  0  0  0
    8.1417   29.3560    9.5749 H   0  0  0  0  0  0  0  0  0  0  0  0
    8.5090   20.2328    8.3898 C   0  0  0  0  0  0  0  0  0  0  0  0
    8.4534   18.7961    8.7543 C   0  0  0  0  0  0  0  0  0  0  0  0
    8.7807   17.8971    7.7556 C   0  0  0  0  0  0  0  0  0  0  0  0
    8.7612   16.5434    8.0167 C   0  0  0  0  0  0  0  0  0  0  0  0
    8.4217   16.0361    9.2565 C   0  0  0  0  0  0  0  0  0  0  0  0
    8.4029   14.6640    9.5193 O   0  0  0  0  0  0  0  0  0  0  0  0
    8.1030   16.9772   10.2216 C   0  0  0  0  0  0  0  0  0  0  0  0
    8.1137   18.3408    9.9883 C   0  0  0  0  0  0  0  0  0  0  0  0
    9.2531   14.2566    9.8531 H   0  0  0  0  0  0  0  0  0  0  0  0
    9.4569   21.6454    1.9312 C   0  0  0  0  0  0  0  0  0  0  0  0
   10.0766   20.6599    2.3856 O   0  0  0  0  0  0  0  0  0  0  0  0
    9.5096   21.8725    0.5388 N   0  0  0  0  0  0  0  0  0  0  0  0
    8.9726   22.6895    0.1271 H   0  0  0  0  0  0  0  0  0  0  0  0
   10.2492   21.0670   -0.4075 C   0  0  0  0  0  0  0  0  0  0  0  0
   11.4281   21.8551   -0.8304 C   0  0  0  0  0  0  0  0  0  0  0  0
   12.0179   21.4690   -1.9137 O   0  0  0  0  0  0  0  0  0  0  0  0
   11.9485   22.9807   -0.1534 N   0  0  0  0  0  0  0  0  0  0  0  0
   11.4872   23.3123    0.7094 H   0  0  0  0  0  0  0  0  0  0  0  0
   13.1391   23.6546   -0.6994 C   0  0  0  0  0  0  0  0  0  0  0  0
   14.1689   23.8106    0.3156 C   0  0  0  0  0  0  0  0  0  0  0  0
   14.6140   25.0320    0.8639 N   0  0  0  0  0  0  0  0  0  0  0  0
   14.7469   22.7640    0.7734 O   0  0  0  0  0  0  0  0  0  0  0  0
   14.6394   25.1302    1.9035 H   0  0  0  0  0  0  0  0  0  0  0  0
   14.9291   25.8604    0.2880 H   0  0  0  0  0  0  0  0  0  0  0  0
   12.7181   24.8995   -1.4296 C   0  0  0  0  0  0  0  0  0  0  0  0
   13.4784   25.2157   -2.6446 C   0  0  0  0  0  0  0  0  0  0  0  0
   14.5113   24.4941   -3.1819 C   0  0  0  0  0  0  0  0  0  0  0  0
   15.1698   24.8970   -4.3537 C   0  0  0  0  0  0  0  0  0  0  0  0
   14.7987   26.0422   -5.0131 C   0  0  0  0  0  0  0  0  0  0  0  0
   15.4614   26.4222   -6.1701 O   0  0  0  0  0  0  0  0  0  0  0  0
   13.7482   26.7949   -4.4859 C   0  0  0  0  0  0  0  0  0  0  0  0
   13.1163   26.3856   -3.3392 C   0  0  0  0  0  0  0  0  0  0  0  0
   15.1395   26.1098   -7.0725 H   0  0  0  0  0  0  0  0  0  0  0  0
    9.4177   20.7117   -1.6206 C   0  0  0  0  0  0  0  0  0  0  0  0
    8.1358   20.0724   -1.3066 C   0  0  0  0  0  0  0  0  0  0  0  0
    7.0171   20.3780   -2.0570 O   0  0  0  0  0  0  0  0  0  0  0  0
    8.0576   19.2515   -0.3585 O   0  0  0  0  0  0  0  0  0  0  0  0
    6.0537   20.1836   -1.7446 H   0  0  0  0  0  0  0  0  0  0  0  0
    9.6001   23.6377    3.3808 C   0  0  0  0  0  0  0  0  0  0  0  0
    8.9294   24.9420    3.4769 C   0  0  0  0  0  0  0  0  0  0  0  0
    7.9713   25.2846    2.5667 C   0  0  0  0  0  0  0  0  0  0  0  0
    7.3495   26.5023    2.6359 C   0  0  0  0  0  0  0  0  0  0  0  0
    7.6502   27.4469    3.6195 C   0  0  0  0  0  0  0  0  0  0  0  0
    7.0196   28.6827    3.6889 O   0  0  0  0  0  0  0  0  0  0  0  0
    8.6217   27.0551    4.5140 C   0  0  0  0  0  0  0  0  0  0  0  0
    9.2632   25.8351    4.4674 C   0  0  0  0  0  0  0  0  0  0  0  0
    7.4914   29.4276    3.1496 H   0  0  0  0  0  0  0  0  0  0  0  0
  6  7  1  0  0  0
  7  8  1  0  0  0
  8  9  1  0  0  0
  9 10  2  0  0  0
  9 12  1  0  0  0
 12 25  1  0  0  0
 25 26  1  0  0  0
 26 27  2  0  0  0
 27 28  1  0  0  0
 28 29  2  0  0  0
 29 30  1  0  0  0
 29 31  1  0  0  0
 31 32  2  0  0  0
 12 13  1  0  0  0
 13 14  1  0  0  0
 14 15  2  0  0  0
 14 17  1  0  0  0
 17 18  2  0  0  0
 18 19  1  0  0  0
 19 20  2  0  0  0
 20 21  1  0  0  0
 20 22  1  0  0  0
 22 23  2  0  0  0
  7  2  1  0  0  0
  2  3  2  0  0  0
  2  4  1  0  0  0
  4  1  1  0  0  0
  1 63  1  0  0  0
 63 64  1  0  0  0
 64 65  2  0  0  0
 65 66  1  0  0  0
 66 67  2  0  0  0
 67 68  1  0  0  0
 67 69  1  0  0  0
 69 70  2  0  0  0
  1 34  1  0  0  0
 34 35  2  0  0  0
 34 36  1  0  0  0
 36 38  1  0  0  0
 38 58  1  0  0  0
 58 59  1  0  0  0
 59 60  1  0  0  0
 59 61  2  0  0  0
 38 39  1  0  0  0
 39 40  2  0  0  0
 39 41  1  0  0  0
 41 43  1  0  0  0
 43 49  1  0  0  0
 49 50  1  0  0  0
 50 51  2  0  0  0
 51 52  1  0  0  0
 52 53  2  0  0  0
 53 54  1  0  0  0
 53 55  1  0  0  0
 55 56  2  0  0  0
 43 44  1  0  0  0
 44 45  1  0  0  0
 44 46  2  0  0  0
 32 26  1  0  0  0
 23 17  1  0  0  0
 70 64  1  0  0  0
 56 50  1  0  0  0
  8 11  1  0  0  0
 30 33  1  0  0  0
 13 16  1  0  0  0
 21 24  1  0  0  0
  4  5  1  0  0  0
 68 71  1  0  0  0
 36 37  1  0  0  0
 60 62  1  0  0  0
 41 42  1  0  0  0
 54 57  1  0  0  0
 45 47  1  0  0  0
 45 48  1  0  0  0
M  END
> <minimizedAffinity>
-9.91722

> <CNNscore>
0.1177283600

> <CNNaffinity>
7.3436546326

> <CNN_VS>
0.8645564318

> <CNNaffinity_variance>
0.2679804265

$$$$
[H]OC(=O)C([H])([H])[C@@]([H])(C(=O)N([H])[C@]([H])(C(=O)N([H])[H])C([H])([H])c1c([H])c([H])c(O[H])c([H])c1[H])N([H])C(=O)[C@@]([H])(N([H])C(=O)[C@]([H])(N([H])C(=O)[C@]([H])(N([H])C(=O)c1c([H])c([H])c(O[H])c([H])c1[H])C([H])([H])c1c([H])c([H])c(O[H])c([H])c1[H])C([H])([H])[H])C([H])([H])c1c([H])c([H])c(O[H])c([H])c1[H]


 71 74  0  0  0  0  0  0  0  0999 V2000
    6.6934   21.2744    0.1927 C   0  0  0  0  0  0  0  0  0  0  0  0
    5.9459   19.3212    1.5777 C   0  0  0  0  0  0  0  0  0  0  0  0
    6.3533   18.5496    0.6666 O   0  0  0  0  0  0  0  0  0  0  0  0
    6.0861   20.6988    1.3753 N   0  0  0  0  0  0  0  0  0  0  0  0
    5.7475   21.3576    2.0932 H   0  0  0  0  0  0  0  0  0  0  0  0
    5.5390   17.2510    2.9221 C   0  0  0  0  0  0  0  0  0  0  0  0
    5.3523   18.7422    2.7882 C   0  0  0  0  0  0  0  0  0  0  0  0
    5.8360   19.3810    3.9878 N   0  0  0  0  0  0  0  0  0  0  0  0
    5.1094   20.3327    4.7459 C   0  0  0  0  0  0  0  0  0  0  0  0
    3.9553   20.7069    4.4299 O   0  0  0  0  0  0  0  0  0  0  0  0
    6.8069   19.1292    4.3417 H   0  0  0  0  0  0  0  0  0  0  0  0
    5.7172   20.9301    5.9797 C   0  0  0  0  0  0  0  0  0  0  0  0
    6.0113   22.3303    5.7821 N   0  0  0  0  0  0  0  0  0  0  0  0
    6.6996   22.8090    4.6552 C   0  0  0  0  0  0  0  0  0  0  0  0
    7.0837   22.0133    3.7795 O   0  0  0  0  0  0  0  0  0  0  0  0
    5.6953   23.0020    6.5112 H   0  0  0  0  0  0  0  0  0  0  0  0
    6.9819   24.2369    4.4754 C   0  0  0  0  0  0  0  0  0  0  0  0
    6.0669   25.2157    4.7672 C   0  0  0  0  0  0  0  0  0  0  0  0
    6.3687   26.5514    4.5688 C   0  0  0  0  0  0  0  0  0  0  0  0
    7.5869   26.9617    4.0750 C   0  0  0  0  0  0  0  0  0  0  0  0
    7.9090   28.3153    3.8670 O   0  0  0  0  0  0  0  0  0  0  0  0
    8.4894   25.9604    3.7893 C   0  0  0  0  0  0  0  0  0  0  0  0
    8.2194   24.6321    3.9752 C   0  0  0  0  0  0  0  0  0  0  0  0
    8.8217   28.5493    3.5008 H   0  0  0  0  0  0  0  0  0  0  0  0
    6.9139   20.1118    6.4072 C   0  0  0  0  0  0  0  0  0  0  0  0
    7.8960   20.9210    7.1695 C   0  0  0  0  0  0  0  0  0  0  0  0
    7.5475   21.2443    8.4682 C   0  0  0  0  0  0  0  0  0  0  0  0
    8.4101   21.9872    9.2460 C   0  0  0  0  0  0  0  0  0  0  0  0
    9.6308   22.4319    8.7752 C   0  0  0  0  0  0  0  0  0  0  0  0
   10.5037   23.1843    9.5650 O   0  0  0  0  0  0  0  0  0  0  0  0
    9.9326   22.0813    7.4695 C   0  0  0  0  0  0  0  0  0  0  0  0
    9.0870   21.3374    6.6660 C   0  0  0  0  0  0  0  0  0  0  0  0
   11.1709   22.6764   10.1101 H   0  0  0  0  0  0  0  0  0  0  0  0
    7.6701   22.3185    0.4376 C   0  0  0  0  0  0  0  0  0  0  0  0
    7.3393   23.4679    0.7996 O   0  0  0  0  0  0  0  0  0  0  0  0
    9.0461   22.0507    0.2698 N   0  0  0  0  0  0  0  0  0  0  0  0
    9.3525   21.0758   -0.0147 H   0  0  0  0  0  0  0  0  0  0  0  0
   10.1094   23.0126    0.4587 C   0  0  0  0  0  0  0  0  0  0  0  0
   11.1622   22.7063   -0.5350 C   0  0  0  0  0  0  0  0  0  0  0  0
   10.7942   22.0240   -1.5692 O   0  0  0  0  0  0  0  0  0  0  0  0
   12.5165   23.0983   -0.4430 N   0  0  0  0  0  0  0  0  0  0  0  0
   12.8305   23.6523    0.3705 H   0  0  0  0  0  0  0  0  0  0  0  0
   13.4476   22.7061   -1.5149 C   0  0  0  0  0  0  0  0  0  0  0  0
   13.8777   21.3254   -1.3610 C   0  0  0  0  0  0  0  0  0  0  0  0
   14.5715   20.7918   -0.2544 N   0  0  0  0  0  0  0  0  0  0  0  0
   13.6216   20.4918   -2.2982 O   0  0  0  0  0  0  0  0  0  0  0  0
   14.1941   19.9307    0.2007 H   0  0  0  0  0  0  0  0  0  0  0  0
   15.4570   21.2071    0.1464 H   0  0  0  0  0  0  0  0  0  0  0  0
   14.5318   23.7402   -1.6385 C   0  0  0  0  0  0  0  0  0  0  0  0
   14.4193   24.6501   -2.7846 C   0  0  0  0  0  0  0  0  0  0  0  0
   13.5350   25.6858   -2.9313 C   0  0  0  0  0  0  0  0  0  0  0  0
   13.5174   26.4922   -4.0795 C   0  0  0  0  0  0  0  0  0  0  0  0
   14.3966   26.2711   -5.1102 C   0  0  0  0  0  0  0  0  0  0  0  0
   14.3637   27.0801   -6.2357 O   0  0  0  0  0  0  0  0  0  0  0  0
   15.3084   25.2219   -4.9845 C   0  0  0  0  0  0  0  0  0  0  0  0
   15.3106   24.4439   -3.8548 C   0  0  0  0  0  0  0  0  0  0  0  0
   14.9238   27.9165   -6.2835 H   0  0  0  0  0  0  0  0  0  0  0  0
   10.6948   22.9435    1.8522 C   0  0  0  0  0  0  0  0  0  0  0  0
   11.2769   21.6426    2.1976 C   0  0  0  0  0  0  0  0  0  0  0  0
   12.6493   21.5061    2.2747 O   0  0  0  0  0  0  0  0  0  0  0  0
   10.5290   20.6579    2.4213 O   0  0  0  0  0  0  0  0  0  0  0  0
   13.1313   20.5948    2.2493 H   0  0  0  0  0  0  0  0  0  0  0  0
    5.5306   21.7913   -0.6738 C   0  0  0  0  0  0  0  0  0  0  0  0
    4.8709   20.7263   -1.4426 C   0  0  0  0  0  0  0  0  0  0  0  0
    3.6153   20.3151   -1.0989 C   0  0  0  0  0  0  0  0  0  0  0  0
    2.9955   19.3139   -1.7972 C   0  0  0  0  0  0  0  0  0  0  0  0
    3.5958   18.6669   -2.8794 C   0  0  0  0  0  0  0  0  0  0  0  0
    2.9669   17.6506   -3.5872 O   0  0  0  0  0  0  0  0  0  0  0  0
    4.8607   19.1170   -3.1877 C   0  0  0  0  0  0  0  0  0  0  0  0
    5.5076   20.1234   -2.5015 C   0  0  0  0  0  0  0  0  0  0  0  0
    3.1452   16.7036   -3.2132 H   0  0  0  0  0  0  0  0  0  0  0  0
  6  7  1  0  0  0
  7  8  1  0  0  0
  8  9  1  0  0  0
  9 10  2  0  0  0
  9 12  1  0  0  0
 12 25  1  0  0  0
 25 26  1  0  0  0
 26 27  2  0  0  0
 27 28  1  0  0  0
 28 29  2  0  0  0
 29 30  1  0  0  0
 29 31  1  0  0  0
 31 32  2  0  0  0
 12 13  1  0  0  0
 13 14  1  0  0  0
 14 15  2  0  0  0
 14 17  1  0  0  0
 17 18  2  0  0  0
 18 19  1  0  0  0
 19 20  2  0  0  0
 20 21  1  0  0  0
 20 22  1  0  0  0
 22 23  2  0  0  0
  7  2  1  0  0  0
  2  3  2  0  0  0
  2  4  1  0  0  0
  4  1  1  0  0  0
  1 63  1  0  0  0
 63 64  1  0  0  0
 64 65  2  0  0  0
 65 66  1  0  0  0
 66 67  2  0  0  0
 67 68  1  0  0  0
 67 69  1  0  0  0
 69 70  2  0  0  0
  1 34  1  0  0  0
 34 35  2  0  0  0
 34 36  1  0  0  0
 36 38  1  0  0  0
 38 58  1  0  0  0
 58 59  1  0  0  0
 59 60  1  0  0  0
 59 61  2  0  0  0
 38 39  1  0  0  0
 39 40  2  0  0  0
 39 41  1  0  0  0
 41 43  1  0  0  0
 43 49  1  0  0  0
 49 50  1  0  0  0
 50 51  2  0  0  0
 51 52  1  0  0  0
 52 53  2  0  0  0
 53 54  1  0  0  0
 53 55  1  0  0  0
 55 56  2  0  0  0
 43 44  1  0  0  0
 44 45  1  0  0  0
 44 46  2  0  0  0
 32 26  1  0  0  0
 23 17  1  0  0  0
 70 64  1  0  0  0
 56 50  1  0  0  0
  8 11  1  0  0  0
 30 33  1  0  0  0
 13 16  1  0  0  0
 21 24  1  0  0  0
  4  5  1  0  0  0
 68 71  1  0  0  0
 36 37  1  0  0  0
 60 62  1  0  0  0
 41 42  1  0  0  0
 54 57  1  0  0  0
 45 47  1  0  0  0
 45 48  1  0  0  0
M  END
> <minimizedAffinity>
-9.54633

> <CNNscore>
0.1048810780

> <CNNaffinity>
7.3424062729

> <CNN_VS>
0.7700794935

> <CNNaffinity_variance>
0.3067677021

$$$$
[H]OC(=O)C([H])([H])[C@@]([H])(C(=O)N([H])[C@]([H])(C(=O)N([H])[H])C([H])([H])c1c([H])c([H])c(O[H])c([H])c1[H])N([H])C(=O)[C@@]([H])(N([H])C(=O)[C@]([H])(N([H])C(=O)[C@]([H])(N([H])C(=O)c1c([H])c([H])c(O[H])c([H])c1[H])C([H])([H])c1c([H])c([H])c(O[H])c([H])c1[H])C([H])([H])[H])C([H])([H])c1c([H])c([H])c(O[H])c([H])c1[H]


 71 74  0  0  0  0  0  0  0  0999 V2000
    7.6089   21.2170    2.8366 C   0  0  0  0  0  0  0  0  0  0  0  0
    8.1729   20.6798    0.4522 C   0  0  0  0  0  0  0  0  0  0  0  0
    6.9616   20.8606    0.1498 O   0  0  0  0  0  0  0  0  0  0  0  0
    8.5396   20.8364    1.7937 N   0  0  0  0  0  0  0  0  0  0  0  0
    9.5188   20.6790    2.0772 H   0  0  0  0  0  0  0  0  0  0  0  0
    8.7098   20.7488   -1.9903 C   0  0  0  0  0  0  0  0  0  0  0  0
    9.1241   20.3182   -0.6048 C   0  0  0  0  0  0  0  0  0  0  0  0
   10.4489   20.8229   -0.3377 N   0  0  0  0  0  0  0  0  0  0  0  0
   10.7647   22.1865   -0.1164 C   0  0  0  0  0  0  0  0  0  0  0  0
    9.8965   23.0908   -0.1330 O   0  0  0  0  0  0  0  0  0  0  0  0
   11.2577   20.1331   -0.3005 H   0  0  0  0  0  0  0  0  0  0  0  0
   12.1826   22.5933    0.1535 C   0  0  0  0  0  0  0  0  0  0  0  0
   12.8198   23.0690   -1.0523 N   0  0  0  0  0  0  0  0  0  0  0  0
   12.9705   24.4351   -1.3421 C   0  0  0  0  0  0  0  0  0  0  0  0
   12.5436   25.2886   -0.5441 O   0  0  0  0  0  0  0  0  0  0  0  0
   13.1776   22.3613   -1.7259 H   0  0  0  0  0  0  0  0  0  0  0  0
   13.6258   24.8928   -2.5718 C   0  0  0  0  0  0  0  0  0  0  0  0
   14.6781   24.2249   -3.1435 C   0  0  0  0  0  0  0  0  0  0  0  0
   15.2777   24.6994   -4.2966 C   0  0  0  0  0  0  0  0  0  0  0  0
   14.8546   25.8512   -4.9217 C   0  0  0  0  0  0  0  0  0  0  0  0
   15.4538   26.3471   -6.0941 O   0  0  0  0  0  0  0  0  0  0  0  0
   13.7962   26.5045   -4.3288 C   0  0  0  0  0  0  0  0  0  0  0  0
   13.1836   26.0594   -3.1893 C   0  0  0  0  0  0  0  0  0  0  0  0
   15.0952   27.1994   -6.5027 H   0  0  0  0  0  0  0  0  0  0  0  0
   12.9210   21.4575    0.8239 C   0  0  0  0  0  0  0  0  0  0  0  0
   12.2895   21.0659    2.1076 C   0  0  0  0  0  0  0  0  0  0  0  0
   12.4016   19.7345    2.4649 C   0  0  0  0  0  0  0  0  0  0  0  0
   11.8486   19.2920    3.6479 C   0  0  0  0  0  0  0  0  0  0  0  0
   11.1738   20.1370    4.5082 C   0  0  0  0  0  0  0  0  0  0  0  0
   10.6144   19.6868    5.7067 O   0  0  0  0  0  0  0  0  0  0  0  0
   11.0898   21.4596    4.1051 C   0  0  0  0  0  0  0  0  0  0  0  0
   11.6345   21.9316    2.9242 C   0  0  0  0  0  0  0  0  0  0  0  0
   11.1983   19.7200    6.5180 H   0  0  0  0  0  0  0  0  0  0  0  0
    6.5677   20.2498    3.1275 C   0  0  0  0  0  0  0  0  0  0  0  0
    6.6858   19.3965    4.0328 O   0  0  0  0  0  0  0  0  0  0  0  0
    5.3714   20.2543    2.3778 N   0  0  0  0  0  0  0  0  0  0  0  0
    5.2388   20.9840    1.6194 H   0  0  0  0  0  0  0  0  0  0  0  0
    4.2750   19.3282    2.5561 C   0  0  0  0  0  0  0  0  0  0  0  0
    4.5054   18.1906    1.6382 C   0  0  0  0  0  0  0  0  0  0  0  0
    4.3140   17.0100    2.1283 O   0  0  0  0  0  0  0  0  0  0  0  0
    4.9094   18.2941    0.2883 N   0  0  0  0  0  0  0  0  0  0  0  0
    5.0590   19.2283   -0.1266 H   0  0  0  0  0  0  0  0  0  0  0  0
    5.1056   17.0619   -0.4945 C   0  0  0  0  0  0  0  0  0  0  0  0
    6.4888   16.6164   -0.4392 C   0  0  0  0  0  0  0  0  0  0  0  0
    6.9283   15.3152   -0.1160 N   0  0  0  0  0  0  0  0  0  0  0  0
    7.4183   17.4575   -0.6995 O   0  0  0  0  0  0  0  0  0  0  0  0
    7.5940   14.8398   -0.7655 H   0  0  0  0  0  0  0  0  0  0  0  0
    6.6287   14.7860    0.7485 H   0  0  0  0  0  0  0  0  0  0  0  0
    4.5085   17.2386   -1.8629 C   0  0  0  0  0  0  0  0  0  0  0  0
    4.3020   18.6258   -2.2957 C   0  0  0  0  0  0  0  0  0  0  0  0
    5.2596   19.5934   -2.4470 C   0  0  0  0  0  0  0  0  0  0  0  0
    4.9430   20.8944   -2.8667 C   0  0  0  0  0  0  0  0  0  0  0  0
    3.6468   21.2498   -3.1452 C   0  0  0  0  0  0  0  0  0  0  0  0
    3.3551   22.5403   -3.5597 O   0  0  0  0  0  0  0  0  0  0  0  0
    2.6524   20.2814   -2.9992 C   0  0  0  0  0  0  0  0  0  0  0  0
    2.9807   19.0147   -2.5876 C   0  0  0  0  0  0  0  0  0  0  0  0
    3.3553   22.7775   -4.5392 H   0  0  0  0  0  0  0  0  0  0  0  0
    2.9387   19.9657    2.2447 C   0  0  0  0  0  0  0  0  0  0  0  0
    2.8576   20.5761    0.9137 C   0  0  0  0  0  0  0  0  0  0  0  0
    3.9224   21.3133    0.4333 O   0  0  0  0  0  0  0  0  0  0  0  0
    1.8232   20.4285    0.2158 O   0  0  0  0  0  0  0  0  0  0  0  0
    3.8450   21.9759   -0.3531 H   0  0  0  0  0  0  0  0  0  0  0  0
    7.0099   22.5664    2.4003 C   0  0  0  0  0  0  0  0  0  0  0  0
    7.6024   23.7116    3.1059 C   0  0  0  0  0  0  0  0  0  0  0  0
    8.5333   24.4901    2.4806 C   0  0  0  0  0  0  0  0  0  0  0  0
    9.1039   25.5508    3.1316 C   0  0  0  0  0  0  0  0  0  0  0  0
    8.7759   25.8936    4.4450 C   0  0  0  0  0  0  0  0  0  0  0  0
    9.3556   26.9694    5.1054 O   0  0  0  0  0  0  0  0  0  0  0  0
    7.8325   25.0796    5.0323 C   0  0  0  0  0  0  0  0  0  0  0  0
    7.2419   24.0058    4.3996 C   0  0  0  0  0  0  0  0  0  0  0  0
   10.2182   26.7312    5.6227 H   0  0  0  0  0  0  0  0  0  0  0  0
  6  7  1  0  0  0
  7  8  1  0  0  0
  8  9  1  0  0  0
  9 10  2  0  0  0
  9 12  1  0  0  0
 12 25  1  0  0  0
 25 26  1  0  0  0
 26 27  2  0  0  0
 27 28  1  0  0  0
 28 29  2  0  0  0
 29 30  1  0  0  0
 29 31  1  0  0  0
 31 32  2  0  0  0
 12 13  1  0  0  0
 13 14  1  0  0  0
 14 15  2  0  0  0
 14 17  1  0  0  0
 17 18  2  0  0  0
 18 19  1  0  0  0
 19 20  2  0  0  0
 20 21  1  0  0  0
 20 22  1  0  0  0
 22 23  2  0  0  0
  7  2  1  0  0  0
  2  3  2  0  0  0
  2  4  1  0  0  0
  4  1  1  0  0  0
  1 63  1  0  0  0
 63 64  1  0  0  0
 64 65  2  0  0  0
 65 66  1  0  0  0
 66 67  2  0  0  0
 67 68  1  0  0  0
 67 69  1  0  0  0
 69 70  2  0  0  0
  1 34  1  0  0  0
 34 35  2  0  0  0
 34 36  1  0  0  0
 36 38  1  0  0  0
 38 58  1  0  0  0
 58 59  1  0  0  0
 59 60  1  0  0  0
 59 61  2  0  0  0
 38 39  1  0  0  0
 39 40  2  0  0  0
 39 41  1  0  0  0
 41 43  1  0  0  0
 43 49  1  0  0  0
 49 50  1  0  0  0
 50 51  2  0  0  0
 51 52  1  0  0  0
 52 53  2  0  0  0
 53 54  1  0  0  0
 53 55  1  0  0  0
 55 56  2  0  0  0
 43 44  1  0  0  0
 44 45  1  0  0  0
 44 46  2  0  0  0
 32 26  1  0  0  0
 23 17  1  0  0  0
 70 64  1  0  0  0
 56 50  1  0  0  0
  8 11  1  0  0  0
 30 33  1  0  0  0
 13 16  1  0  0  0
 21 24  1  0  0  0
  4  5  1  0  0  0
 68 71  1  0  0  0
 36 37  1  0  0  0
 60 62  1  0  0  0
 41 42  1  0  0  0
 54 57  1  0  0  0
 45 47  1  0  0  0
 45 48  1  0  0  0
M  END
> <minimizedAffinity>
-9.28646

> <CNNscore>
0.1018065959

> <CNNaffinity>
7.1854834557

> <CNN_VS>
0.7315295935

> <CNNaffinity_variance>
0.3257457614

$$$$
[H]OC(=O)C([H])([H])[C@@]([H])(C(=O)N([H])[C@]([H])(C(=O)N([H])[H])C([H])([H])c1c([H])c([H])c(O[H])c([H])c1[H])N([H])C(=O)[C@@]([H])(N([H])C(=O)[C@]([H])(N([H])C(=O)[C@]([H])(N([H])C(=O)c1c([H])c([H])c(O[H])c([H])c1[H])C([H])([H])c1c([H])c([H])c(O[H])c([H])c1[H])C([H])([H])[H])C([H])([H])c1c([H])c([H])c(O[H])c([H])c1[H]


 71 74  0  0  0  0  0  0  0  0999 V2000
   10.3802   22.3892    0.3797 C   0  0  0  0  0  0  0  0  0  0  0  0
    8.6151   20.7990   -0.4249 C   0  0  0  0  0  0  0  0  0  0  0  0
    9.4174   19.8457   -0.2270 O   0  0  0  0  0  0  0  0  0  0  0  0
    9.0623   22.0952   -0.1449 N   0  0  0  0  0  0  0  0  0  0  0  0
    8.4371   22.8984   -0.3120 H   0  0  0  0  0  0  0  0  0  0  0  0
    7.2361   19.5008   -2.0595 C   0  0  0  0  0  0  0  0  0  0  0  0
    7.2707   20.5040   -0.9330 C   0  0  0  0  0  0  0  0  0  0  0  0
    6.3815   20.0599    0.1126 N   0  0  0  0  0  0  0  0  0  0  0  0
    6.0899   20.7920    1.2905 C   0  0  0  0  0  0  0  0  0  0  0  0
    6.5919   21.9162    1.5270 O   0  0  0  0  0  0  0  0  0  0  0  0
    5.9021   19.1165    0.0057 H   0  0  0  0  0  0  0  0  0  0  0  0
    5.1460   20.2271    2.3097 C   0  0  0  0  0  0  0  0  0  0  0  0
    5.8165   19.2670    3.1554 N   0  0  0  0  0  0  0  0  0  0  0  0
    6.1976   19.5554    4.4761 C   0  0  0  0  0  0  0  0  0  0  0  0
    5.9610   20.6775    4.9583 O   0  0  0  0  0  0  0  0  0  0  0  0
    6.0199   18.3269    2.7586 H   0  0  0  0  0  0  0  0  0  0  0  0
    6.8732   18.5612    5.3164 C   0  0  0  0  0  0  0  0  0  0  0  0
    7.8217   18.8993    6.2472 C   0  0  0  0  0  0  0  0  0  0  0  0
    8.4459   17.9279    7.0096 C   0  0  0  0  0  0  0  0  0  0  0  0
    8.1510   16.5895    6.8752 C   0  0  0  0  0  0  0  0  0  0  0  0
    8.7770   15.5898    7.6421 O   0  0  0  0  0  0  0  0  0  0  0  0
    7.1952   16.2747    5.9340 C   0  0  0  0  0  0  0  0  0  0  0  0
    6.5614   17.2129    5.1661 C   0  0  0  0  0  0  0  0  0  0  0  0
    8.5150   14.6248    7.4936 H   0  0  0  0  0  0  0  0  0  0  0  0
    3.9187   19.6772    1.6200 C   0  0  0  0  0  0  0  0  0  0  0  0
    3.8810   18.1947    1.6526 C   0  0  0  0  0  0  0  0  0  0  0  0
    2.9810   17.6236    2.5337 C   0  0  0  0  0  0  0  0  0  0  0  0
    2.8790   16.2512    2.6181 C   0  0  0  0  0  0  0  0  0  0  0  0
    3.6523   15.4053    1.8460 C   0  0  0  0  0  0  0  0  0  0  0  0
    3.5473   14.0148    1.9325 O   0  0  0  0  0  0  0  0  0  0  0  0
    4.5369   16.0264    0.9798 C   0  0  0  0  0  0  0  0  0  0  0  0
    4.6609   17.4004    0.8741 C   0  0  0  0  0  0  0  0  0  0  0  0
    2.8869   13.5732    1.3250 H   0  0  0  0  0  0  0  0  0  0  0  0
   10.5561   22.1450    1.7988 C   0  0  0  0  0  0  0  0  0  0  0  0
   11.5572   22.5533    2.4255 O   0  0  0  0  0  0  0  0  0  0  0  0
    9.5764   21.4262    2.5176 N   0  0  0  0  0  0  0  0  0  0  0  0
    8.7069   21.0894    2.0119 H   0  0  0  0  0  0  0  0  0  0  0  0
    9.6506   21.0991    3.9243 C   0  0  0  0  0  0  0  0  0  0  0  0
    9.0979   22.2491    4.6739 C   0  0  0  0  0  0  0  0  0  0  0  0
    9.8848   22.8034    5.5365 O   0  0  0  0  0  0  0  0  0  0  0  0
    7.7980   22.7809    4.5197 N   0  0  0  0  0  0  0  0  0  0  0  0
    7.1556   22.3592    3.8293 H   0  0  0  0  0  0  0  0  0  0  0  0
    7.3930   23.9280    5.3502 C   0  0  0  0  0  0  0  0  0  0  0  0
    7.2728   23.5500    6.7494 C   0  0  0  0  0  0  0  0  0  0  0  0
    8.1479   23.9301    7.7888 N   0  0  0  0  0  0  0  0  0  0  0  0
    6.2963   22.8020    7.1042 O   0  0  0  0  0  0  0  0  0  0  0  0
    7.7398   24.3537    8.6520 H   0  0  0  0  0  0  0  0  0  0  0  0
    9.1975   23.8111    7.7533 H   0  0  0  0  0  0  0  0  0  0  0  0
    6.2000   24.5989    4.7283 C   0  0  0  0  0  0  0  0  0  0  0  0
    6.3974   25.9908    4.3064 C   0  0  0  0  0  0  0  0  0  0  0  0
    7.3380   26.4607    3.4285 C   0  0  0  0  0  0  0  0  0  0  0  0
    7.4355   27.8214    3.1003 C   0  0  0  0  0  0  0  0  0  0  0  0
    6.5815   28.7431    3.6528 C   0  0  0  0  0  0  0  0  0  0  0  0
    6.6937   30.0830    3.3144 O   0  0  0  0  0  0  0  0  0  0  0  0
    5.6135   28.2893    4.5501 C   0  0  0  0  0  0  0  0  0  0  0  0
    5.5334   26.9553    4.8591 C   0  0  0  0  0  0  0  0  0  0  0  0
    6.1789   30.4606    2.5346 H   0  0  0  0  0  0  0  0  0  0  0  0
   11.0727   20.8412    4.3717 C   0  0  0  0  0  0  0  0  0  0  0  0
   11.5358   19.4680    4.1468 C   0  0  0  0  0  0  0  0  0  0  0  0
   12.6496   19.2417    3.3619 O   0  0  0  0  0  0  0  0  0  0  0  0
   10.9202   18.5034    4.6659 O   0  0  0  0  0  0  0  0  0  0  0  0
   12.8759   18.3244    2.9486 H   0  0  0  0  0  0  0  0  0  0  0  0
   10.6587   23.8622    0.0291 C   0  0  0  0  0  0  0  0  0  0  0  0
   11.8153   24.0307   -0.8620 C   0  0  0  0  0  0  0  0  0  0  0  0
   12.7279   23.0237   -0.9923 C   0  0  0  0  0  0  0  0  0  0  0  0
   13.8176   23.1733   -1.8074 C   0  0  0  0  0  0  0  0  0  0  0  0
   14.0568   24.3385   -2.5391 C   0  0  0  0  0  0  0  0  0  0  0  0
   15.1630   24.4902   -3.3654 O   0  0  0  0  0  0  0  0  0  0  0  0
   13.1088   25.3243   -2.3750 C   0  0  0  0  0  0  0  0  0  0  0  0
   12.0022   25.1996   -1.5612 C   0  0  0  0  0  0  0  0  0  0  0  0
   15.9914   24.8876   -2.8920 H   0  0  0  0  0  0  0  0  0  0  0  0
  6  7  1  0  0  0
  7  8  1  0  0  0
  8  9  1  0  0  0
  9 10  2  0  0  0
  9 12  1  0  0  0
 12 25  1  0  0  0
 25 26  1  0  0  0
 26 27  2  0  0  0
 27 28  1  0  0  0
 28 29  2  0  0  0
 29 30  1  0  0  0
 29 31  1  0  0  0
 31 32  2  0  0  0
 12 13  1  0  0  0
 13 14  1  0  0  0
 14 15  2  0  0  0
 14 17  1  0  0  0
 17 18  2  0  0  0
 18 19  1  0  0  0
 19 20  2  0  0  0
 20 21  1  0  0  0
 20 22  1  0  0  0
 22 23  2  0  0  0
  7  2  1  0  0  0
  2  3  2  0  0  0
  2  4  1  0  0  0
  4  1  1  0  0  0
  1 63  1  0  0  0
 63 64  1  0  0  0
 64 65  2  0  0  0
 65 66  1  0  0  0
 66 67  2  0  0  0
 67 68  1  0  0  0
 67 69  1  0  0  0
 69 70  2  0  0  0
  1 34  1  0  0  0
 34 35  2  0  0  0
 34 36  1  0  0  0
 36 38  1  0  0  0
 38 58  1  0  0  0
 58 59  1  0  0  0
 59 60  1  0  0  0
 59 61  2  0  0  0
 38 39  1  0  0  0
 39 40  2  0  0  0
 39 41  1  0  0  0
 41 43  1  0  0  0
 43 49  1  0  0  0
 49 50  1  0  0  0
 50 51  2  0  0  0
 51 52  1  0  0  0
 52 53  2  0  0  0
 53 54  1  0  0  0
 53 55  1  0  0  0
 55 56  2  0  0  0
 43 44  1  0  0  0
 44 45  1  0  0  0
 44 46  2  0  0  0
 32 26  1  0  0  0
 23 17  1  0  0  0
 70 64  1  0  0  0
 56 50  1  0  0  0
  8 11  1  0  0  0
 30 33  1  0  0  0
 13 16  1  0  0  0
 21 24  1  0  0  0
  4  5  1  0  0  0
 68 71  1  0  0  0
 36 37  1  0  0  0
 60 62  1  0  0  0
 41 42  1  0  0  0
 54 57  1  0  0  0
 45 47  1  0  0  0
 45 48  1  0  0  0
M  END
> <minimizedAffinity>
-9.24015

> <CNNscore>
0.1006781682

> <CNNaffinity>
6.7743768692

> <CNN_VS>
0.6820318699

> <CNNaffinity_variance>
1.2484160662

$$$$
[H]OC(=O)C([H])([H])[C@@]([H])(C(=O)N([H])[C@]([H])(C(=O)N([H])[H])C([H])([H])c1c([H])c([H])c(O[H])c([H])c1[H])N([H])C(=O)[C@@]([H])(N([H])C(=O)[C@]([H])(N([H])C(=O)[C@]([H])(N([H])C(=O)c1c([H])c([H])c(O[H])c([H])c1[H])C([H])([H])c1c([H])c([H])c(O[H])c([H])c1[H])C([H])([H])[H])C([H])([H])c1c([H])c([H])c(O[H])c([H])c1[H]


 71 74  0  0  0  0  0  0  0  0999 V2000
    9.2060   22.8080    1.1992 C   0  0  0  0  0  0  0  0  0  0  0  0
    8.0414   20.9506   -0.0197 C   0  0  0  0  0  0  0  0  0  0  0  0
    9.0498   20.2193    0.1798 O   0  0  0  0  0  0  0  0  0  0  0  0
    8.0825   22.2628    0.4649 N   0  0  0  0  0  0  0  0  0  0  0  0
    7.2813   22.8922    0.3036 H   0  0  0  0  0  0  0  0  0  0  0  0
    7.2540   19.4465   -1.8573 C   0  0  0  0  0  0  0  0  0  0  0  0
    6.8911   20.3952   -0.7416 C   0  0  0  0  0  0  0  0  0  0  0  0
    5.9616   19.7375    0.1442 N   0  0  0  0  0  0  0  0  0  0  0  0
    4.7600   20.3132    0.6270 C   0  0  0  0  0  0  0  0  0  0  0  0
    4.3945   21.4712    0.3150 O   0  0  0  0  0  0  0  0  0  0  0  0
    6.1802   18.7478    0.4666 H   0  0  0  0  0  0  0  0  0  0  0  0
    3.8698   19.5303    1.5453 C   0  0  0  0  0  0  0  0  0  0  0  0
    4.3864   19.5397    2.8941 N   0  0  0  0  0  0  0  0  0  0  0  0
    5.3890   18.6570    3.3284 C   0  0  0  0  0  0  0  0  0  0  0  0
    5.8649   17.8227    2.5379 O   0  0  0  0  0  0  0  0  0  0  0  0
    3.9919   20.2332    3.5620 H   0  0  0  0  0  0  0  0  0  0  0  0
    5.9004   18.6899    4.7026 C   0  0  0  0  0  0  0  0  0  0  0  0
    6.6405   17.6695    5.2425 C   0  0  0  0  0  0  0  0  0  0  0  0
    7.0915   17.7341    6.5489 C   0  0  0  0  0  0  0  0  0  0  0  0
    6.8245   18.8115    7.3638 C   0  0  0  0  0  0  0  0  0  0  0  0
    7.2751   18.8921    8.6941 O   0  0  0  0  0  0  0  0  0  0  0  0
    6.0794   19.8239    6.7992 C   0  0  0  0  0  0  0  0  0  0  0  0
    5.6202   19.7880    5.5109 C   0  0  0  0  0  0  0  0  0  0  0  0
    7.0436   19.7114    9.2392 H   0  0  0  0  0  0  0  0  0  0  0  0
    3.6536   18.1426    0.9867 C   0  0  0  0  0  0  0  0  0  0  0  0
    3.0135   18.1762   -0.3510 C   0  0  0  0  0  0  0  0  0  0  0  0
    1.8026   18.8390   -0.4348 C   0  0  0  0  0  0  0  0  0  0  0  0
    1.1474   18.9220   -1.6452 C   0  0  0  0  0  0  0  0  0  0  0  0
    1.6575   18.3604   -2.8001 C   0  0  0  0  0  0  0  0  0  0  0  0
    0.9923   18.4459   -4.0257 O   0  0  0  0  0  0  0  0  0  0  0  0
    2.8722   17.7088   -2.6631 C   0  0  0  0  0  0  0  0  0  0  0  0
    3.5518   17.6096   -1.4621 C   0  0  0  0  0  0  0  0  0  0  0  0
    1.2070   19.2347   -4.6019 H   0  0  0  0  0  0  0  0  0  0  0  0
    8.9780   23.0309    2.6143 C   0  0  0  0  0  0  0  0  0  0  0  0
    9.5599   23.9374    3.2476 O   0  0  0  0  0  0  0  0  0  0  0  0
    8.0719   22.2104    3.3206 N   0  0  0  0  0  0  0  0  0  0  0  0
    7.5488   21.4489    2.7993 H   0  0  0  0  0  0  0  0  0  0  0  0
    7.7803   22.3178    4.7331 C   0  0  0  0  0  0  0  0  0  0  0  0
    7.1057   23.6175    4.9460 C   0  0  0  0  0  0  0  0  0  0  0  0
    5.8196   23.6245    4.8169 O   0  0  0  0  0  0  0  0  0  0  0  0
    7.7486   24.8314    5.2769 N   0  0  0  0  0  0  0  0  0  0  0  0
    8.7748   24.8467    5.3942 H   0  0  0  0  0  0  0  0  0  0  0  0
    6.9343   26.0469    5.4479 C   0  0  0  0  0  0  0  0  0  0  0  0
    6.4512   26.1704    6.8140 C   0  0  0  0  0  0  0  0  0  0  0  0
    6.8566   25.3813    7.9111 N   0  0  0  0  0  0  0  0  0  0  0  0
    5.5753   27.0655    7.0796 O   0  0  0  0  0  0  0  0  0  0  0  0
    7.1719   25.8650    8.7816 H   0  0  0  0  0  0  0  0  0  0  0  0
    6.8598   24.3244    7.9120 H   0  0  0  0  0  0  0  0  0  0  0  0
    5.9004   26.1132    4.3585 C   0  0  0  0  0  0  0  0  0  0  0  0
    5.8871   27.3474    3.5643 C   0  0  0  0  0  0  0  0  0  0  0  0
    6.9689   27.9949    3.0289 C   0  0  0  0  0  0  0  0  0  0  0  0
    6.8352   29.1771    2.2849 C   0  0  0  0  0  0  0  0  0  0  0  0
    5.6008   29.7348    2.0628 C   0  0  0  0  0  0  0  0  0  0  0  0
    5.4902   30.9028    1.3239 O   0  0  0  0  0  0  0  0  0  0  0  0
    4.4824   29.0936    2.5975 C   0  0  0  0  0  0  0  0  0  0  0  0
    4.6325   27.9388    3.3224 C   0  0  0  0  0  0  0  0  0  0  0  0
    5.3654   30.8683    0.3244 H   0  0  0  0  0  0  0  0  0  0  0  0
    9.0347   22.2558    5.5768 C   0  0  0  0  0  0  0  0  0  0  0  0
    9.6374   20.9217    5.6635 C   0  0  0  0  0  0  0  0  0  0  0  0
   10.6299   20.6786    6.5929 O   0  0  0  0  0  0  0  0  0  0  0  0
    9.2518   20.0058    4.8944 O   0  0  0  0  0  0  0  0  0  0  0  0
   11.2709   19.8725    6.5410 H   0  0  0  0  0  0  0  0  0  0  0  0
    9.5872   24.1166    0.4833 C   0  0  0  0  0  0  0  0  0  0  0  0
   10.9811   24.1301    0.0174 C   0  0  0  0  0  0  0  0  0  0  0  0
   11.2627   23.8947   -1.2976 C   0  0  0  0  0  0  0  0  0  0  0  0
   12.5576   23.8897   -1.7418 C   0  0  0  0  0  0  0  0  0  0  0  0
   13.6450   24.1201   -0.8964 C   0  0  0  0  0  0  0  0  0  0  0  0
   14.9589   24.1142   -1.3474 O   0  0  0  0  0  0  0  0  0  0  0  0
   13.3101   24.3530    0.4193 C   0  0  0  0  0  0  0  0  0  0  0  0
   12.0149   24.3641    0.8930 C   0  0  0  0  0  0  0  0  0  0  0  0
   15.4140   23.1870   -1.3075 H   0  0  0  0  0  0  0  0  0  0  0  0
  6  7  1  0  0  0
  7  8  1  0  0  0
  8  9  1  0  0  0
  9 10  2  0  0  0
  9 12  1  0  0  0
 12 25  1  0  0  0
 25 26  1  0  0  0
 26 27  2  0  0  0
 27 28  1  0  0  0
 28 29  2  0  0  0
 29 30  1  0  0  0
 29 31  1  0  0  0
 31 32  2  0  0  0
 12 13  1  0  0  0
 13 14  1  0  0  0
 14 15  2  0  0  0
 14 17  1  0  0  0
 17 18  2  0  0  0
 18 19  1  0  0  0
 19 20  2  0  0  0
 20 21  1  0  0  0
 20 22  1  0  0  0
 22 23  2  0  0  0
  7  2  1  0  0  0
  2  3  2  0  0  0
  2  4  1  0  0  0
  4  1  1  0  0  0
  1 63  1  0  0  0
 63 64  1  0  0  0
 64 65  2  0  0  0
 65 66  1  0  0  0
 66 67  2  0  0  0
 67 68  1  0  0  0
 67 69  1  0  0  0
 69 70  2  0  0  0
  1 34  1  0  0  0
 34 35  2  0  0  0
 34 36  1  0  0  0
 36 38  1  0  0  0
 38 58  1  0  0  0
 58 59  1  0  0  0
 59 60  1  0  0  0
 59 61  2  0  0  0
 38 39  1  0  0  0
 39 40  2  0  0  0
 39 41  1  0  0  0
 41 43  1  0  0  0
 43 49  1  0  0  0
 49 50  1  0  0  0
 50 51  2  0  0  0
 51 52  1  0  0  0
 52 53  2  0  0  0
 53 54  1  0  0  0
 53 55  1  0  0  0
 55 56  2  0  0  0
 43 44  1  0  0  0
 44 45  1  0  0  0
 44 46  2  0  0  0
 32 26  1  0  0  0
 23 17  1  0  0  0
 70 64  1  0  0  0
 56 50  1  0  0  0
  8 11  1  0  0  0
 30 33  1  0  0  0
 13 16  1  0  0  0
 21 24  1  0  0  0
  4  5  1  0  0  0
 68 71  1  0  0  0
 36 37  1  0  0  0
 60 62  1  0  0  0
 41 42  1  0  0  0
 54 57  1  0  0  0
 45 47  1  0  0  0
 45 48  1  0  0  0
M  END
> <minimizedAffinity>
-8.73789

> <CNNscore>
0.0971992537

> <CNNaffinity>
6.6967782974

> <CNN_VS>
0.6509218812

> <CNNaffinity_variance>
0.8756458163

$$$$
[H]c1nc(N([H])c2c([H])c([H])c(N3C([H])([H])C([H])([H])N(c4c([H])c([H])c([H])c(C(F)(F)F)c4[H])C([H])([H])C3([H])[H])c([H])c2OC([H])([H])[H])nc(N([H])c2c([H])c([H])c([H])c([H])c2C(=O)N([H])[H])c1Cl


 46 50  0  0  0  0  0  0  0  0999 V2000
   10.5842   21.9341    1.9161 C   0  0  0  0  0  0  0  0  0  0  0  0
    9.5921   22.6441    2.5516 C   0  0  0  0  0  0  0  0  0  0  0  0
    9.4918   22.7859    3.9103 C   0  0  0  0  0  0  0  0  0  0  0  0
   10.4758   22.1559    4.6385 C   0  0  0  0  0  0  0  0  0  0  0  0
   11.5095   21.4186    4.0560 C   0  0  0  0  0  0  0  0  0  0  0  0
   11.5833   21.2915    2.6986 C   0  0  0  0  0  0  0  0  0  0  0  0
    8.4428   23.5253    4.4995 N   0  0  0  0  0  0  0  0  0  0  0  0
    8.7692   24.6403    5.4055 C   0  0  0  0  0  0  0  0  0  0  0  0
    8.0918   25.8559    4.8304 C   0  0  0  0  0  0  0  0  0  0  0  0
    6.6696   25.5978    4.5708 N   0  0  0  0  0  0  0  0  0  0  0  0
    6.1740   24.3073    4.9211 C   0  0  0  0  0  0  0  0  0  0  0  0
    7.0666   23.2486    4.2517 C   0  0  0  0  0  0  0  0  0  0  0  0
    5.8582   26.5947    4.0009 C   0  0  0  0  0  0  0  0  0  0  0  0
    4.6246   26.7973    4.5211 C   0  0  0  0  0  0  0  0  0  0  0  0
    3.7075   27.7570    4.0638 C   0  0  0  0  0  0  0  0  0  0  0  0
    4.1560   28.5220    2.9908 C   0  0  0  0  0  0  0  0  0  0  0  0
    5.3738   28.3410    2.4559 C   0  0  0  0  0  0  0  0  0  0  0  0
    6.2716   27.3749    2.9333 C   0  0  0  0  0  0  0  0  0  0  0  0
    5.8136   29.1676    1.2918 C   0  0  0  0  0  0  0  0  0  0  0  0
    7.1885   29.2515    1.2972 F   0  0  0  0  0  0  0  0  0  0  0  0
    5.4632   28.5000    0.1152 F   0  0  0  0  0  0  0  0  0  0  0  0
    5.2834   30.4269    1.3355 F   0  0  0  0  0  0  0  0  0  0  0  0
    9.6249   21.1799   -0.1495 C   0  0  0  0  0  0  0  0  0  0  0  0
   10.6886   21.7836    0.5595 O   0  0  0  0  0  0  0  0  0  0  0  0
   12.5675   20.5618    1.9985 N   0  0  0  0  0  0  0  0  0  0  0  0
   12.8883   19.6160    2.3934 H   0  0  0  0  0  0  0  0  0  0  0  0
   13.1878   20.9267    0.8044 C   0  0  0  0  0  0  0  0  0  0  0  0
   13.2267   20.1790   -0.3082 N   0  0  0  0  0  0  0  0  0  0  0  0
   13.7177   20.5731   -1.4830 C   0  0  0  0  0  0  0  0  0  0  0  0
   14.2333   21.8565   -1.5895 C   0  0  0  0  0  0  0  0  0  0  0  0
   14.8818   22.4345   -3.0852 Cl  0  0  0  0  0  0  0  0  0  0  0  0
   14.2177   22.6753   -0.4599 C   0  0  0  0  0  0  0  0  0  0  0  0
   13.7071   22.1746    0.6597 N   0  0  0  0  0  0  0  0  0  0  0  0
   14.6334   24.0269   -0.6071 N   0  0  0  0  0  0  0  0  0  0  0  0
   15.3106   24.3803    0.1427 H   0  0  0  0  0  0  0  0  0  0  0  0
   14.2658   24.9544   -1.5754 C   0  0  0  0  0  0  0  0  0  0  0  0
   15.2261   25.4194   -2.4627 C   0  0  0  0  0  0  0  0  0  0  0  0
   14.9153   26.2171   -3.5611 C   0  0  0  0  0  0  0  0  0  0  0  0
   13.5950   26.5569   -3.7767 C   0  0  0  0  0  0  0  0  0  0  0  0
   12.6422   26.0893   -2.8841 C   0  0  0  0  0  0  0  0  0  0  0  0
   12.9509   25.2979   -1.7893 C   0  0  0  0  0  0  0  0  0  0  0  0
   11.8522   24.9395   -0.8968 C   0  0  0  0  0  0  0  0  0  0  0  0
   10.7056   24.2585   -1.4459 N   0  0  0  0  0  0  0  0  0  0  0  0
   11.7767   25.1563    0.3230 O   0  0  0  0  0  0  0  0  0  0  0  0
    9.7889   24.7765   -1.3349 H   0  0  0  0  0  0  0  0  0  0  0  0
   10.7708   23.3531   -1.9078 H   0  0  0  0  0  0  0  0  0  0  0  0
 23 24  1  0  0  0
 24  1  1  0  0  0
  1  2  2  0  0  0
  2  3  1  0  0  0
  3  4  2  0  0  0
  4  5  1  0  0  0
  5  6  2  0  0  0
  6 25  1  0  0  0
 25 27  1  0  0  0
 27 28  2  0  0  0
 28 29  1  0  0  0
 29 30  2  0  0  0
 30 31  1  0  0  0
 30 32  1  0  0  0
 32 34  1  0  0  0
 34 36  1  0  0  0
 36 37  2  0  0  0
 37 38  1  0  0  0
 38 39  2  0  0  0
 39 40  1  0  0  0
 40 41  2  0  0  0
 41 42  1  0  0  0
 42 43  1  0  0  0
 42 44  2  0  0  0
 32 33  2  0  0  0
  3  7  1  0  0  0
  7  8  1  0  0  0
  8  9  1  0  0  0
  9 10  1  0  0  0
 10 11  1  0  0  0
 11 12  1  0  0  0
 10 13  1  0  0  0
 13 14  2  0  0  0
 14 15  1  0  0  0
 15 16  2  0  0  0
 16 17  1  0  0  0
 17 18  2  0  0  0
 17 19  1  0  0  0
 19 20  1  0  0  0
 19 21  1  0  0  0
 19 22  1  0  0  0
  6  1  1  0  0  0
 33 27  1  0  0  0
 12  7  1  0  0  0
 18 13  1  0  0  0
 41 36  1  0  0  0
 25 26  1  0  0  0
 34 35  1  0  0  0
 43 45  1  0  0  0
 43 46  1  0  0  0
M  END
> <minimizedAffinity>
-9.94741

> <CNNscore>
0.1209195256

> <CNNaffinity>
7.2368764877

> <CNN_VS>
0.8750796914

> <CNNaffinity_variance>
0.1259701550

$$$$
[H]c1nc(N([H])c2c([H])c([H])c(N3C([H])([H])C([H])([H])N(c4c([H])c([H])c([H])c(C(F)(F)F)c4[H])C([H])([H])C3([H])[H])c([H])c2OC([H])([H])[H])nc(N([H])c2c([H])c([H])c([H])c([H])c2C(=O)N([H])[H])c1Cl


 46 50  0  0  0  0  0  0  0  0999 V2000
    9.6153   24.1006    1.6339 C   0  0  0  0  0  0  0  0  0  0  0  0
   10.9163   24.1530    1.1903 C   0  0  0  0  0  0  0  0  0  0  0  0
   11.5821   23.0998    0.6211 C   0  0  0  0  0  0  0  0  0  0  0  0
   10.8525   21.9375    0.5103 C   0  0  0  0  0  0  0  0  0  0  0  0
    9.5294   21.8171    0.9418 C   0  0  0  0  0  0  0  0  0  0  0  0
    8.8911   22.8828    1.5083 C   0  0  0  0  0  0  0  0  0  0  0  0
   12.9220   23.2194    0.1914 N   0  0  0  0  0  0  0  0  0  0  0  0
   13.4315   22.2991   -0.8401 C   0  0  0  0  0  0  0  0  0  0  0  0
   13.9437   23.1688   -1.9575 C   0  0  0  0  0  0  0  0  0  0  0  0
   14.8713   24.1895   -1.4529 N   0  0  0  0  0  0  0  0  0  0  0  0
   15.1511   24.1717   -0.0547 C   0  0  0  0  0  0  0  0  0  0  0  0
   13.8149   24.2041    0.7063 C   0  0  0  0  0  0  0  0  0  0  0  0
   15.4407   25.1291   -2.3303 C   0  0  0  0  0  0  0  0  0  0  0  0
   16.4715   25.8856   -1.8843 C   0  0  0  0  0  0  0  0  0  0  0  0
   17.1430   26.8566   -2.6442 C   0  0  0  0  0  0  0  0  0  0  0  0
   16.6642   27.0099   -3.9422 C   0  0  0  0  0  0  0  0  0  0  0  0
   15.6435   26.2736   -4.4088 C   0  0  0  0  0  0  0  0  0  0  0  0
   14.9904   25.3085   -3.6281 C   0  0  0  0  0  0  0  0  0  0  0  0
   15.1434   26.4796   -5.8014 C   0  0  0  0  0  0  0  0  0  0  0  0
   13.8110   26.8256   -5.7512 F   0  0  0  0  0  0  0  0  0  0  0  0
   15.8145   27.5720   -6.3575 F   0  0  0  0  0  0  0  0  0  0  0  0
   15.2901   25.3547   -6.5642 F   0  0  0  0  0  0  0  0  0  0  0  0
    9.3347   25.5925    3.4917 C   0  0  0  0  0  0  0  0  0  0  0  0
    8.9446   25.1469    2.2080 O   0  0  0  0  0  0  0  0  0  0  0  0
    7.5665   22.8777    1.9948 N   0  0  0  0  0  0  0  0  0  0  0  0
    6.9264   23.7075    1.7598 H   0  0  0  0  0  0  0  0  0  0  0  0
    6.9606   21.8830    2.7611 C   0  0  0  0  0  0  0  0  0  0  0  0
    6.7101   21.9632    4.0762 N   0  0  0  0  0  0  0  0  0  0  0  0
    6.0289   21.0636    4.7855 C   0  0  0  0  0  0  0  0  0  0  0  0
    5.5262   19.9472    4.1335 C   0  0  0  0  0  0  0  0  0  0  0  0
    4.6291   18.7430    4.9919 Cl  0  0  0  0  0  0  0  0  0  0  0  0
    5.7602   19.8152    2.7643 C   0  0  0  0  0  0  0  0  0  0  0  0
    6.4562   20.7726    2.1609 N   0  0  0  0  0  0  0  0  0  0  0  0
    5.1393   18.7347    2.0802 N   0  0  0  0  0  0  0  0  0  0  0  0
    4.1589   18.4791    2.4255 H   0  0  0  0  0  0  0  0  0  0  0  0
    5.6373   17.9546    1.0427 C   0  0  0  0  0  0  0  0  0  0  0  0
    6.2731   18.5758   -0.0229 C   0  0  0  0  0  0  0  0  0  0  0  0
    6.9440   17.8687   -1.0175 C   0  0  0  0  0  0  0  0  0  0  0  0
    6.9794   16.4912   -0.9375 C   0  0  0  0  0  0  0  0  0  0  0  0
    6.3398   15.8786    0.1297 C   0  0  0  0  0  0  0  0  0  0  0  0
    5.6697   16.5813    1.1184 C   0  0  0  0  0  0  0  0  0  0  0  0
    4.9831   15.7981    2.1418 C   0  0  0  0  0  0  0  0  0  0  0  0
    4.2713   14.6084    1.7444 N   0  0  0  0  0  0  0  0  0  0  0  0
    4.9316   16.0367    3.3587 O   0  0  0  0  0  0  0  0  0  0  0  0
    3.2345   14.6216    1.9582 H   0  0  0  0  0  0  0  0  0  0  0  0
    4.7270   13.8189    1.2901 H   0  0  0  0  0  0  0  0  0  0  0  0
 23 24  1  0  0  0
 24  1  1  0  0  0
  1  2  2  0  0  0
  2  3  1  0  0  0
  3  4  2  0  0  0
  4  5  1  0  0  0
  5  6  2  0  0  0
  6 25  1  0  0  0
 25 27  1  0  0  0
 27 28  2  0  0  0
 28 29  1  0  0  0
 29 30  2  0  0  0
 30 31  1  0  0  0
 30 32  1  0  0  0
 32 34  1  0  0  0
 34 36  1  0  0  0
 36 37  2  0  0  0
 37 38  1  0  0  0
 38 39  2  0  0  0
 39 40  1  0  0  0
 40 41  2  0  0  0
 41 42  1  0  0  0
 42 43  1  0  0  0
 42 44  2  0  0  0
 32 33  2  0  0  0
  3  7  1  0  0  0
  7  8  1  0  0  0
  8  9  1  0  0  0
  9 10  1  0  0  0
 10 11  1  0  0  0
 11 12  1  0  0  0
 10 13  1  0  0  0
 13 14  2  0  0  0
 14 15  1  0  0  0
 15 16  2  0  0  0
 16 17  1  0  0  0
 17 18  2  0  0  0
 17 19  1  0  0  0
 19 20  1  0  0  0
 19 21  1  0  0  0
 19 22  1  0  0  0
  6  1  1  0  0  0
 33 27  1  0  0  0
 12  7  1  0  0  0
 18 13  1  0  0  0
 41 36  1  0  0  0
 25 26  1  0  0  0
 34 35  1  0  0  0
 43 45  1  0  0  0
 43 46  1  0  0  0
M  END
> <minimizedAffinity>
-10.28475

> <CNNscore>
0.0838594511

> <CNNaffinity>
6.9018430710

> <CNN_VS>
0.5787847638

> <CNNaffinity_variance>
0.1284267604

$$$$
[H]c1nc(N([H])c2c([H])c([H])c(N3C([H])([H])C([H])([H])N(c4c([H])c([H])c([H])c(C(F)(F)F)c4[H])C([H])([H])C3([H])[H])c([H])c2OC([H])([H])[H])nc(N([H])c2c([H])c([H])c([H])c([H])c2C(=O)N([H])[H])c1Cl


 46 50  0  0  0  0  0  0  0  0999 V2000
   10.4030   21.1975    3.8916 C   0  0  0  0  0  0  0  0  0  0  0  0
   11.0597   21.4064    2.7012 C   0  0  0  0  0  0  0  0  0  0  0  0
   11.9931   20.5541    2.1731 C   0  0  0  0  0  0  0  0  0  0  0  0
   12.2511   19.4303    2.9252 C   0  0  0  0  0  0  0  0  0  0  0  0
   11.6209   19.1591    4.1421 C   0  0  0  0  0  0  0  0  0  0  0  0
   10.6963   20.0279    4.6463 C   0  0  0  0  0  0  0  0  0  0  0  0
   12.6353   20.8318    0.9464 N   0  0  0  0  0  0  0  0  0  0  0  0
   11.9624   20.4752   -0.3148 C   0  0  0  0  0  0  0  0  0  0  0  0
   11.8685   21.7496   -1.1113 C   0  0  0  0  0  0  0  0  0  0  0  0
   13.1765   22.4094   -1.2130 N   0  0  0  0  0  0  0  0  0  0  0  0
   14.2811   21.7495   -0.5982 C   0  0  0  0  0  0  0  0  0  0  0  0
   13.9146   21.4555    0.8663 C   0  0  0  0  0  0  0  0  0  0  0  0
   13.3041   23.6352   -1.8897 C   0  0  0  0  0  0  0  0  0  0  0  0
   12.4326   24.6285   -1.5943 C   0  0  0  0  0  0  0  0  0  0  0  0
   12.4396   25.9043   -2.1805 C   0  0  0  0  0  0  0  0  0  0  0  0
   13.4368   26.0993   -3.1320 C   0  0  0  0  0  0  0  0  0  0  0  0
   14.3128   25.1313   -3.4440 C   0  0  0  0  0  0  0  0  0  0  0  0
   14.2841   23.8649   -2.8417 C   0  0  0  0  0  0  0  0  0  0  0  0
   15.3575   25.3703   -4.4848 C   0  0  0  0  0  0  0  0  0  0  0  0
   14.7705   25.9674   -5.5786 F   0  0  0  0  0  0  0  0  0  0  0  0
   16.2831   26.2889   -3.9825 F   0  0  0  0  0  0  0  0  0  0  0  0
   15.9605   24.2068   -4.8740 F   0  0  0  0  0  0  0  0  0  0  0  0
    8.2495   22.2452    3.7484 C   0  0  0  0  0  0  0  0  0  0  0  0
    9.4729   22.0464    4.4285 O   0  0  0  0  0  0  0  0  0  0  0  0
   10.0080   19.8705    5.8681 N   0  0  0  0  0  0  0  0  0  0  0  0
   10.2305   20.5412    6.6769 H   0  0  0  0  0  0  0  0  0  0  0  0
    9.0276   18.9231    6.1598 C   0  0  0  0  0  0  0  0  0  0  0  0
    9.0177   18.1257    7.2381 N   0  0  0  0  0  0  0  0  0  0  0  0
    8.0253   17.3031    7.5771 C   0  0  0  0  0  0  0  0  0  0  0  0
    6.9004   17.2514    6.7670 C   0  0  0  0  0  0  0  0  0  0  0  0
    5.5738   16.2099    7.1504 Cl  0  0  0  0  0  0  0  0  0  0  0  0
    6.8610   18.0609    5.6313 C   0  0  0  0  0  0  0  0  0  0  0  0
    7.9106   18.8389    5.3899 N   0  0  0  0  0  0  0  0  0  0  0  0
    5.6578   18.0947    4.8748 N   0  0  0  0  0  0  0  0  0  0  0  0
    4.7739   17.8169    5.4107 H   0  0  0  0  0  0  0  0  0  0  0  0
    5.4761   18.4176    3.5347 C   0  0  0  0  0  0  0  0  0  0  0  0
    5.4727   19.7529    3.1572 C   0  0  0  0  0  0  0  0  0  0  0  0
    5.4633   20.1606    1.8257 C   0  0  0  0  0  0  0  0  0  0  0  0
    5.4599   19.1942    0.8402 C   0  0  0  0  0  0  0  0  0  0  0  0
    5.4615   17.8622    1.2264 C   0  0  0  0  0  0  0  0  0  0  0  0
    5.4680   17.4556    2.5511 C   0  0  0  0  0  0  0  0  0  0  0  0
    5.3971   16.0197    2.8065 C   0  0  0  0  0  0  0  0  0  0  0  0
    5.1451   15.1295    1.7001 N   0  0  0  0  0  0  0  0  0  0  0  0
    5.5304   15.4454    3.8987 O   0  0  0  0  0  0  0  0  0  0  0  0
    4.2650   14.5483    1.7921 H   0  0  0  0  0  0  0  0  0  0  0  0
    5.7614   15.0663    0.8916 H   0  0  0  0  0  0  0  0  0  0  0  0
 23 24  1  0  0  0
 24  1  1  0  0  0
  1  2  2  0  0  0
  2  3  1  0  0  0
  3  4  2  0  0  0
  4  5  1  0  0  0
  5  6  2  0  0  0
  6 25  1  0  0  0
 25 27  1  0  0  0
 27 28  2  0  0  0
 28 29  1  0  0  0
 29 30  2  0  0  0
 30 31  1  0  0  0
 30 32  1  0  0  0
 32 34  1  0  0  0
 34 36  1  0  0  0
 36 37  2  0  0  0
 37 38  1  0  0  0
 38 39  2  0  0  0
 39 40  1  0  0  0
 40 41  2  0  0  0
 41 42  1  0  0  0
 42 43  1  0  0  0
 42 44  2  0  0  0
 32 33  2  0  0  0
  3  7  1  0  0  0
  7  8  1  0  0  0
  8  9  1  0  0  0
  9 10  1  0  0  0
 10 11  1  0  0  0
 11 12  1  0  0  0
 10 13  1  0  0  0
 13 14  2  0  0  0
 14 15  1  0  0  0
 15 16  2  0  0  0
 16 17  1  0  0  0
 17 18  2  0  0  0
 17 19  1  0  0  0
 19 20  1  0  0  0
 19 21  1  0  0  0
 19 22  1  0  0  0
  6  1  1  0  0  0
 33 27  1  0  0  0
 12  7  1  0  0  0
 18 13  1  0  0  0
 41 36  1  0  0  0
 25 26  1  0  0  0
 34 35  1  0  0  0
 43 45  1  0  0  0
 43 46  1  0  0  0
M  END
> <minimizedAffinity>
-10.07530

> <CNNscore>
0.0633765683

> <CNNaffinity>
6.4868087769

> <CNN_VS>
0.4111116827

> <CNNaffinity_variance>
0.6281133890

$$$$
[H]c1nc(N([H])c2c([H])c([H])c(N3C([H])([H])C([H])([H])N(c4c([H])c([H])c([H])c(C(F)(F)F)c4[H])C([H])([H])C3([H])[H])c([H])c2OC([H])([H])[H])nc(N([H])c2c([H])c([H])c([H])c([H])c2C(=O)N([H])[H])c1Cl


 46 50  0  0  0  0  0  0  0  0999 V2000
    9.5879   23.9154    1.5422 C   0  0  0  0  0  0  0  0  0  0  0  0
   10.8940   24.0060    1.1202 C   0  0  0  0  0  0  0  0  0  0  0  0
   11.6206   22.9563    0.6235 C   0  0  0  0  0  0  0  0  0  0  0  0
   10.9493   21.7558    0.5650 C   0  0  0  0  0  0  0  0  0  0  0  0
    9.6246   21.5956    0.9783 C   0  0  0  0  0  0  0  0  0  0  0  0
    8.9249   22.6588    1.4722 C   0  0  0  0  0  0  0  0  0  0  0  0
   12.9621   23.1167    0.2124 N   0  0  0  0  0  0  0  0  0  0  0  0
   13.5148   22.2097   -0.8087 C   0  0  0  0  0  0  0  0  0  0  0  0
   14.0153   23.0916   -1.9218 C   0  0  0  0  0  0  0  0  0  0  0  0
   14.9031   24.1425   -1.4077 N   0  0  0  0  0  0  0  0  0  0  0  0
   15.1635   24.1377   -0.0057 C   0  0  0  0  0  0  0  0  0  0  0  0
   13.8163   24.1305    0.7363 C   0  0  0  0  0  0  0  0  0  0  0  0
   15.4553   25.0968   -2.2803 C   0  0  0  0  0  0  0  0  0  0  0  0
   16.5220   25.8159   -1.8577 C   0  0  0  0  0  0  0  0  0  0  0  0
   17.1820   26.7956   -2.6164 C   0  0  0  0  0  0  0  0  0  0  0  0
   16.6502   27.0007   -3.8864 C   0  0  0  0  0  0  0  0  0  0  0  0
   15.5931   26.3021   -4.3295 C   0  0  0  0  0  0  0  0  0  0  0  0
   14.9527   25.3273   -3.5506 C   0  0  0  0  0  0  0  0  0  0  0  0
   15.0372   26.5634   -5.6914 C   0  0  0  0  0  0  0  0  0  0  0  0
   15.1932   25.4325   -6.4623 F   0  0  0  0  0  0  0  0  0  0  0  0
   13.6609   26.7762   -5.5762 F   0  0  0  0  0  0  0  0  0  0  0  0
   15.6621   27.6157   -6.3004 F   0  0  0  0  0  0  0  0  0  0  0  0
    9.2729   25.5743    3.2464 C   0  0  0  0  0  0  0  0  0  0  0  0
    8.8566   24.9581    2.0441 O   0  0  0  0  0  0  0  0  0  0  0  0
    7.5921   22.6167    1.9339 N   0  0  0  0  0  0  0  0  0  0  0  0
    6.7998   22.8524    1.2482 H   0  0  0  0  0  0  0  0  0  0  0  0
    7.1615   22.2806    3.2166 C   0  0  0  0  0  0  0  0  0  0  0  0
    7.1539   23.1074    4.2725 N   0  0  0  0  0  0  0  0  0  0  0  0
    6.6365   22.8238    5.4676 C   0  0  0  0  0  0  0  0  0  0  0  0
    6.0508   21.5810    5.6590 C   0  0  0  0  0  0  0  0  0  0  0  0
    5.3559   21.1490    7.1829 Cl  0  0  0  0  0  0  0  0  0  0  0  0
    6.0335   20.6826    4.5916 C   0  0  0  0  0  0  0  0  0  0  0  0
    6.5833   21.0721    3.4467 N   0  0  0  0  0  0  0  0  0  0  0  0
    5.3247   19.4612    4.7562 N   0  0  0  0  0  0  0  0  0  0  0  0
    4.2975   19.5642    5.0392 H   0  0  0  0  0  0  0  0  0  0  0  0
    5.7867   18.1569    4.6210 C   0  0  0  0  0  0  0  0  0  0  0  0
    6.4903   17.5787    5.6680 C   0  0  0  0  0  0  0  0  0  0  0  0
    6.8445   16.2320    5.6864 C   0  0  0  0  0  0  0  0  0  0  0  0
    6.4772   15.4390    4.6181 C   0  0  0  0  0  0  0  0  0  0  0  0
    5.7758   16.0254    3.5753 C   0  0  0  0  0  0  0  0  0  0  0  0
    5.4253   17.3659    3.5548 C   0  0  0  0  0  0  0  0  0  0  0  0
    4.7494   17.8585    2.3579 C   0  0  0  0  0  0  0  0  0  0  0  0
    5.4815   18.7005    1.4442 N   0  0  0  0  0  0  0  0  0  0  0  0
    3.5777   17.6364    2.0141 O   0  0  0  0  0  0  0  0  0  0  0  0
    5.0689   19.6656    1.3053 H   0  0  0  0  0  0  0  0  0  0  0  0
    6.3306   18.3947    0.9720 H   0  0  0  0  0  0  0  0  0  0  0  0
 23 24  1  0  0  0
 24  1  1  0  0  0
  1  2  2  0  0  0
  2  3  1  0  0  0
  3  4  2  0  0  0
  4  5  1  0  0  0
  5  6  2  0  0  0
  6 25  1  0  0  0
 25 27  1  0  0  0
 27 28  2  0  0  0
 28 29  1  0  0  0
 29 30  2  0  0  0
 30 31  1  0  0  0
 30 32  1  0  0  0
 32 34  1  0  0  0
 34 36  1  0  0  0
 36 37  2  0  0  0
 37 38  1  0  0  0
 38 39  2  0  0  0
 39 40  1  0  0  0
 40 41  2  0  0  0
 41 42  1  0  0  0
 42 43  1  0  0  0
 42 44  2  0  0  0
 32 33  2  0  0  0
  3  7  1  0  0  0
  7  8  1  0  0  0
  8  9  1  0  0  0
  9 10  1  0  0  0
 10 11  1  0  0  0
 11 12  1  0  0  0
 10 13  1  0  0  0
 13 14  2  0  0  0
 14 15  1  0  0  0
 15 16  2  0  0  0
 16 17  1  0  0  0
 17 18  2  0  0  0
 17 19  1  0  0  0
 19 20  1  0  0  0
 19 21  1  0  0  0
 19 22  1  0  0  0
  6  1  1  0  0  0
 33 27  1  0  0  0
 12  7  1  0  0  0
 18 13  1  0  0  0
 41 36  1  0  0  0
 25 26  1  0  0  0
 34 35  1  0  0  0
 43 45  1  0  0  0
 43 46  1  0  0  0
M  END
> <minimizedAffinity>
-9.13206

> <CNNscore>
0.0595152713

> <CNNaffinity>
6.9704298973

> <CNN_VS>
0.4148470163

> <CNNaffinity_variance>
0.1660842001

$$$$
[H]c1nc(N([H])c2c([H])c([H])c(N3C([H])([H])C([H])([H])N(c4c([H])c([H])c([H])c(C(F)(F)F)c4[H])C([H])([H])C3([H])[H])c([H])c2OC([H])([H])[H])nc(N([H])c2c([H])c([H])c([H])c([H])c2C(=O)N([H])[H])c1Cl


 46 50  0  0  0  0  0  0  0  0999 V2000
   10.0554   21.8172    0.6746 C   0  0  0  0  0  0  0  0  0  0  0  0
   11.3311   22.0551    0.2181 C   0  0  0  0  0  0  0  0  0  0  0  0
   11.9923   23.2467    0.3568 C   0  0  0  0  0  0  0  0  0  0  0  0
   11.2862   24.2357    1.0039 C   0  0  0  0  0  0  0  0  0  0  0  0
    9.9884   24.0603    1.4900 C   0  0  0  0  0  0  0  0  0  0  0  0
    9.3521   22.8623    1.3352 C   0  0  0  0  0  0  0  0  0  0  0  0
   13.3016   23.4263   -0.1410 N   0  0  0  0  0  0  0  0  0  0  0  0
   13.8024   22.5217   -1.1906 C   0  0  0  0  0  0  0  0  0  0  0  0
   14.2153   23.4044   -2.3385 C   0  0  0  0  0  0  0  0  0  0  0  0
   15.1168   24.4729   -1.8886 N   0  0  0  0  0  0  0  0  0  0  0  0
   15.4671   24.4816   -0.5062 C   0  0  0  0  0  0  0  0  0  0  0  0
   14.1707   24.4572    0.3212 C   0  0  0  0  0  0  0  0  0  0  0  0
   15.5955   25.4304   -2.8001 C   0  0  0  0  0  0  0  0  0  0  0  0
   16.4928   26.3452   -2.3624 C   0  0  0  0  0  0  0  0  0  0  0  0
   17.0628   27.3544   -3.1548 C   0  0  0  0  0  0  0  0  0  0  0  0
   16.6297   27.3667   -4.4776 C   0  0  0  0  0  0  0  0  0  0  0  0
   15.7406   26.4720   -4.9368 C   0  0  0  0  0  0  0  0  0  0  0  0
   15.1872   25.4724   -4.1233 C   0  0  0  0  0  0  0  0  0  0  0  0
   15.2839   26.5281   -6.3581 C   0  0  0  0  0  0  0  0  0  0  0  0
   16.0575   27.4410   -7.0405 F   0  0  0  0  0  0  0  0  0  0  0  0
   15.5234   25.2856   -6.9512 F   0  0  0  0  0  0  0  0  0  0  0  0
   13.9687   26.8886   -6.4538 F   0  0  0  0  0  0  0  0  0  0  0  0
    9.0200   20.1955   -0.7585 C   0  0  0  0  0  0  0  0  0  0  0  0
    9.3861   20.6312    0.5356 O   0  0  0  0  0  0  0  0  0  0  0  0
    8.0408   22.5715    1.7680 N   0  0  0  0  0  0  0  0  0  0  0  0
    7.3471   22.1474    1.0664 H   0  0  0  0  0  0  0  0  0  0  0  0
    7.5206   22.7625    3.0473 C   0  0  0  0  0  0  0  0  0  0  0  0
    7.6401   21.9014    4.0685 N   0  0  0  0  0  0  0  0  0  0  0  0
    7.2445   22.1330    5.3200 C   0  0  0  0  0  0  0  0  0  0  0  0
    6.6618   23.3565    5.6160 C   0  0  0  0  0  0  0  0  0  0  0  0
    6.1301   23.7252    7.2201 Cl  0  0  0  0  0  0  0  0  0  0  0  0
    6.5130   24.2882    4.5880 C   0  0  0  0  0  0  0  0  0  0  0  0
    6.9403   23.9466    3.3774 N   0  0  0  0  0  0  0  0  0  0  0  0
    6.0293   25.5825    4.9226 N   0  0  0  0  0  0  0  0  0  0  0  0
    5.5708   25.6633    5.8865 H   0  0  0  0  0  0  0  0  0  0  0  0
    6.0514   26.7475    4.1641 C   0  0  0  0  0  0  0  0  0  0  0  0
    4.8495   27.3278    3.7842 C   0  0  0  0  0  0  0  0  0  0  0  0
    4.7748   28.5754    3.1699 C   0  0  0  0  0  0  0  0  0  0  0  0
    5.9468   29.2642    2.9316 C   0  0  0  0  0  0  0  0  0  0  0  0
    7.1436   28.6761    3.3129 C   0  0  0  0  0  0  0  0  0  0  0  0
    7.2191   27.4336    3.9217 C   0  0  0  0  0  0  0  0  0  0  0  0
    8.5531   26.9104    4.2023 C   0  0  0  0  0  0  0  0  0  0  0  0
    9.0163   26.8866    5.5679 N   0  0  0  0  0  0  0  0  0  0  0  0
    9.3719   26.4668    3.3818 O   0  0  0  0  0  0  0  0  0  0  0  0
    9.8913   27.4549    5.7478 H   0  0  0  0  0  0  0  0  0  0  0  0
    8.5388   26.3685    6.3034 H   0  0  0  0  0  0  0  0  0  0  0  0
 23 24  1  0  0  0
 24  1  1  0  0  0
  1  2  2  0  0  0
  2  3  1  0  0  0
  3  4  2  0  0  0
  4  5  1  0  0  0
  5  6  2  0  0  0
  6 25  1  0  0  0
 25 27  1  0  0  0
 27 28  2  0  0  0
 28 29  1  0  0  0
 29 30  2  0  0  0
 30 31  1  0  0  0
 30 32  1  0  0  0
 32 34  1  0  0  0
 34 36  1  0  0  0
 36 37  2  0  0  0
 37 38  1  0  0  0
 38 39  2  0  0  0
 39 40  1  0  0  0
 40 41  2  0  0  0
 41 42  1  0  0  0
 42 43  1  0  0  0
 42 44  2  0  0  0
 32 33  2  0  0  0
  3  7  1  0  0  0
  7  8  1  0  0  0
  8  9  1  0  0  0
  9 10  1  0  0  0
 10 11  1  0  0  0
 11 12  1  0  0  0
 10 13  1  0  0  0
 13 14  2  0  0  0
 14 15  1  0  0  0
 15 16  2  0  0  0
 16 17  1  0  0  0
 17 18  2  0  0  0
 17 19  1  0  0  0
 19 20  1  0  0  0
 19 21  1  0  0  0
 19 22  1  0  0  0
  6  1  1  0  0  0
 33 27  1  0  0  0
 12  7  1  0  0  0
 18 13  1  0  0  0
 41 36  1  0  0  0
 25 26  1  0  0  0
 34 35  1  0  0  0
 43 45  1  0  0  0
 43 46  1  0  0  0
M  END
> <minimizedAffinity>
-11.33783

> <CNNscore>
0.0562426671

> <CNNaffinity>
6.9537796974

> <CNN_VS>
0.3910991251

> <CNNaffinity_variance>
0.2641082108

$$$$
[H]c1nc(N([H])c2c([H])c([H])c(N3C([H])([H])C([H])([H])N(c4c([H])c([H])c([H])c(C(F)(F)F)c4[H])C([H])([H])C3([H])[H])c([H])c2OC([H])([H])[H])nc(N([H])c2c([H])c([H])c([H])c([H])c2C(=O)N([H])[H])c1Cl


 46 50  0  0  0  0  0  0  0  0999 V2000
    9.4406   22.2966    4.1124 C   0  0  0  0  0  0  0  0  0  0  0  0
    9.6980   23.0588    2.9965 C   0  0  0  0  0  0  0  0  0  0  0  0
   10.6178   22.7351    2.0345 C   0  0  0  0  0  0  0  0  0  0  0  0
   11.2998   21.5587    2.2494 C   0  0  0  0  0  0  0  0  0  0  0  0
   11.0877   20.7399    3.3611 C   0  0  0  0  0  0  0  0  0  0  0  0
   10.1663   21.0887    4.3063 C   0  0  0  0  0  0  0  0  0  0  0  0
   10.8373   23.5664    0.9142 N   0  0  0  0  0  0  0  0  0  0  0  0
   11.4609   24.8869    1.1096 C   0  0  0  0  0  0  0  0  0  0  0  0
   12.6817   24.9052    0.2282 C   0  0  0  0  0  0  0  0  0  0  0  0
   12.3478   24.5189   -1.1488 N   0  0  0  0  0  0  0  0  0  0  0  0
   10.9778   24.2348   -1.4246 C   0  0  0  0  0  0  0  0  0  0  0  0
   10.4891   23.1834   -0.4140 C   0  0  0  0  0  0  0  0  0  0  0  0
   13.3529   24.4394   -2.1288 C   0  0  0  0  0  0  0  0  0  0  0  0
   14.1566   23.3498   -2.1411 C   0  0  0  0  0  0  0  0  0  0  0  0
   15.1953   23.1279   -3.0594 C   0  0  0  0  0  0  0  0  0  0  0  0
   15.3649   24.1414   -3.9985 C   0  0  0  0  0  0  0  0  0  0  0  0
   14.5826   25.2321   -4.0078 C   0  0  0  0  0  0  0  0  0  0  0  0
   13.5503   25.4284   -3.0787 C   0  0  0  0  0  0  0  0  0  0  0  0
   14.8069   26.3090   -5.0187 C   0  0  0  0  0  0  0  0  0  0  0  0
   15.6847   27.2345   -4.4987 F   0  0  0  0  0  0  0  0  0  0  0  0
   15.4379   25.7483   -6.1325 F   0  0  0  0  0  0  0  0  0  0  0  0
   13.6402   26.9343   -5.3603 F   0  0  0  0  0  0  0  0  0  0  0  0
    7.1831   22.8484    4.7082 C   0  0  0  0  0  0  0  0  0  0  0  0
    8.5268   22.6155    5.0805 O   0  0  0  0  0  0  0  0  0  0  0  0
    9.8764   20.3536    5.4754 N   0  0  0  0  0  0  0  0  0  0  0  0
   10.3122   20.6685    6.4052 H   0  0  0  0  0  0  0  0  0  0  0  0
    9.0516   19.2342    5.5768 C   0  0  0  0  0  0  0  0  0  0  0  0
    9.2344   18.2117    6.4250 N   0  0  0  0  0  0  0  0  0  0  0  0
    8.3860   17.1993    6.6034 C   0  0  0  0  0  0  0  0  0  0  0  0
    7.2113   17.1805    5.8660 C   0  0  0  0  0  0  0  0  0  0  0  0
    6.0638   15.8995    6.0512 Cl  0  0  0  0  0  0  0  0  0  0  0  0
    6.9732   18.2212    4.9678 C   0  0  0  0  0  0  0  0  0  0  0  0
    7.8920   19.1758    4.8699 N   0  0  0  0  0  0  0  0  0  0  0  0
    5.7148   18.2607    4.3073 N   0  0  0  0  0  0  0  0  0  0  0  0
    4.8754   17.9757    4.9073 H   0  0  0  0  0  0  0  0  0  0  0  0
    5.4292   18.5972    2.9889 C   0  0  0  0  0  0  0  0  0  0  0  0
    5.4527   19.9329    2.6136 C   0  0  0  0  0  0  0  0  0  0  0  0
    5.3432   20.3463    1.2882 C   0  0  0  0  0  0  0  0  0  0  0  0
    5.2083   19.3853    0.3068 C   0  0  0  0  0  0  0  0  0  0  0  0
    5.1840   18.0529    0.6910 C   0  0  0  0  0  0  0  0  0  0  0  0
    5.2901   17.6408    2.0097 C   0  0  0  0  0  0  0  0  0  0  0  0
    5.1773   16.2085    2.2700 C   0  0  0  0  0  0  0  0  0  0  0  0
    5.9871   15.2970    1.4996 N   0  0  0  0  0  0  0  0  0  0  0  0
    4.4428   15.6538    3.1027 O   0  0  0  0  0  0  0  0  0  0  0  0
    5.4392   14.5937    0.9285 H   0  0  0  0  0  0  0  0  0  0  0  0
    7.0051   15.3282    1.5002 H   0  0  0  0  0  0  0  0  0  0  0  0
 23 24  1  0  0  0
 24  1  1  0  0  0
  1  2  2  0  0  0
  2  3  1  0  0  0
  3  4  2  0  0  0
  4  5  1  0  0  0
  5  6  2  0  0  0
  6 25  1  0  0  0
 25 27  1  0  0  0
 27 28  2  0  0  0
 28 29  1  0  0  0
 29 30  2  0  0  0
 30 31  1  0  0  0
 30 32  1  0  0  0
 32 34  1  0  0  0
 34 36  1  0  0  0
 36 37  2  0  0  0
 37 38  1  0  0  0
 38 39  2  0  0  0
 39 40  1  0  0  0
 40 41  2  0  0  0
 41 42  1  0  0  0
 42 43  1  0  0  0
 42 44  2  0  0  0
 32 33  2  0  0  0
  3  7  1  0  0  0
  7  8  1  0  0  0
  8  9  1  0  0  0
  9 10  1  0  0  0
 10 11  1  0  0  0
 11 12  1  0  0  0
 10 13  1  0  0  0
 13 14  2  0  0  0
 14 15  1  0  0  0
 15 16  2  0  0  0
 16 17  1  0  0  0
 17 18  2  0  0  0
 17 19  1  0  0  0
 19 20  1  0  0  0
 19 21  1  0  0  0
 19 22  1  0  0  0
  6  1  1  0  0  0
 33 27  1  0  0  0
 12  7  1  0  0  0
 18 13  1  0  0  0
 41 36  1  0  0  0
 25 26  1  0  0  0
 34 35  1  0  0  0
 43 45  1  0  0  0
 43 46  1  0  0  0
M  END
> <minimizedAffinity>
-9.76972

> <CNNscore>
0.0501957983

> <CNNaffinity>
6.5438451767

> <CNN_VS>
0.3284735382

> <CNNaffinity_variance>
0.4051547050

$$$$
[H]c1nc(N([H])c2c([H])c([H])c(N3C([H])([H])C([H])([H])N(c4c([H])c([H])c([H])c(C(F)(F)F)c4[H])C([H])([H])C3([H])[H])c([H])c2OC([H])([H])[H])nc(N([H])c2c([H])c([H])c([H])c([H])c2C(=O)N([H])[H])c1Cl


 46 50  0  0  0  0  0  0  0  0999 V2000
   10.2103   23.7113    1.6018 C   0  0  0  0  0  0  0  0  0  0  0  0
   11.4708   23.9327    1.0976 C   0  0  0  0  0  0  0  0  0  0  0  0
   12.2888   22.9517    0.6026 C   0  0  0  0  0  0  0  0  0  0  0  0
   11.7633   21.6797    0.6360 C   0  0  0  0  0  0  0  0  0  0  0  0
   10.4922   21.3866    1.1357 C   0  0  0  0  0  0  0  0  0  0  0  0
    9.6991   22.3841    1.6257 C   0  0  0  0  0  0  0  0  0  0  0  0
   13.5766   23.2470    0.1040 N   0  0  0  0  0  0  0  0  0  0  0  0
   14.1716   22.3676   -0.9175 C   0  0  0  0  0  0  0  0  0  0  0  0
   14.5013   23.2542   -2.0890 C   0  0  0  0  0  0  0  0  0  0  0  0
   15.2889   24.4198   -1.6673 N   0  0  0  0  0  0  0  0  0  0  0  0
   15.6282   24.5027   -0.2846 C   0  0  0  0  0  0  0  0  0  0  0  0
   14.3358   24.3724    0.5390 C   0  0  0  0  0  0  0  0  0  0  0  0
   15.6752   25.3941   -2.6045 C   0  0  0  0  0  0  0  0  0  0  0  0
   16.5623   26.3423   -2.2204 C   0  0  0  0  0  0  0  0  0  0  0  0
   17.0449   27.3718   -3.0440 C   0  0  0  0  0  0  0  0  0  0  0  0
   16.5323   27.3670   -4.3382 C   0  0  0  0  0  0  0  0  0  0  0  0
   15.6514   26.4392   -4.7443 C   0  0  0  0  0  0  0  0  0  0  0  0
   15.1862   25.4199   -3.9005 C   0  0  0  0  0  0  0  0  0  0  0  0
   15.1076   26.4772   -6.1352 C   0  0  0  0  0  0  0  0  0  0  0  0
   15.9175   27.2779   -6.9100 F   0  0  0  0  0  0  0  0  0  0  0  0
   15.1864   25.1921   -6.6784 F   0  0  0  0  0  0  0  0  0  0  0  0
   13.8296   26.9616   -6.1666 F   0  0  0  0  0  0  0  0  0  0  0  0
    9.4507   24.9956    3.4805 C   0  0  0  0  0  0  0  0  0  0  0  0
    9.3888   24.6851    2.1027 O   0  0  0  0  0  0  0  0  0  0  0  0
    8.4086   22.2096    2.1691 N   0  0  0  0  0  0  0  0  0  0  0  0
    8.2142   22.5650    3.1638 H   0  0  0  0  0  0  0  0  0  0  0  0
    7.3100   21.6218    1.5435 C   0  0  0  0  0  0  0  0  0  0  0  0
    6.9234   21.8521    0.2801 N   0  0  0  0  0  0  0  0  0  0  0  0
    5.9453   21.2064   -0.3546 C   0  0  0  0  0  0  0  0  0  0  0  0
    5.2588   20.2101    0.3238 C   0  0  0  0  0  0  0  0  0  0  0  0
    3.9819   19.3291   -0.4411 Cl  0  0  0  0  0  0  0  0  0  0  0  0
    5.6214   19.9319    1.6420 C   0  0  0  0  0  0  0  0  0  0  0  0
    6.6095   20.6427    2.1746 N   0  0  0  0  0  0  0  0  0  0  0  0
    4.9990   18.8297    2.2892 N   0  0  0  0  0  0  0  0  0  0  0  0
    3.9623   18.6922    2.0605 H   0  0  0  0  0  0  0  0  0  0  0  0
    5.5447   17.9226    3.1905 C   0  0  0  0  0  0  0  0  0  0  0  0
    5.8805   18.3573    4.4648 C   0  0  0  0  0  0  0  0  0  0  0  0
    6.2751   17.4882    5.4789 C   0  0  0  0  0  0  0  0  0  0  0  0
    6.3317   16.1368    5.2043 C   0  0  0  0  0  0  0  0  0  0  0  0
    5.9961   15.7113    3.9277 C   0  0  0  0  0  0  0  0  0  0  0  0
    5.6060   16.5756    2.9172 C   0  0  0  0  0  0  0  0  0  0  0  0
    5.3512   15.9911    1.6036 C   0  0  0  0  0  0  0  0  0  0  0  0
    4.5450   14.7983    1.5191 N   0  0  0  0  0  0  0  0  0  0  0  0
    5.7576   16.4067    0.5070 O   0  0  0  0  0  0  0  0  0  0  0  0
    5.0364   13.9618    1.0952 H   0  0  0  0  0  0  0  0  0  0  0  0
    3.5806   14.7602    1.8444 H   0  0  0  0  0  0  0  0  0  0  0  0
 23 24  1  0  0  0
 24  1  1  0  0  0
  1  2  2  0  0  0
  2  3  1  0  0  0
  3  4  2  0  0  0
  4  5  1  0  0  0
  5  6  2  0  0  0
  6 25  1  0  0  0
 25 27  1  0  0  0
 27 28  2  0  0  0
 28 29  1  0  0  0
 29 30  2  0  0  0
 30 31  1  0  0  0
 30 32  1  0  0  0
 32 34  1  0  0  0
 34 36  1  0  0  0
 36 37  2  0  0  0
 37 38  1  0  0  0
 38 39  2  0  0  0
 39 40  1  0  0  0
 40 41  2  0  0  0
 41 42  1  0  0  0
 42 43  1  0  0  0
 42 44  2  0  0  0
 32 33  2  0  0  0
  3  7  1  0  0  0
  7  8  1  0  0  0
  8  9  1  0  0  0
  9 10  1  0  0  0
 10 11  1  0  0  0
 11 12  1  0  0  0
 10 13  1  0  0  0
 13 14  2  0  0  0
 14 15  1  0  0  0
 15 16  2  0  0  0
 16 17  1  0  0  0
 17 18  2  0  0  0
 17 19  1  0  0  0
 19 20  1  0  0  0
 19 21  1  0  0  0
 19 22  1  0  0  0
  6  1  1  0  0  0
 33 27  1  0  0  0
 12  7  1  0  0  0
 18 13  1  0  0  0
 41 36  1  0  0  0
 25 26  1  0  0  0
 34 35  1  0  0  0
 43 45  1  0  0  0
 43 46  1  0  0  0
M  END
> <minimizedAffinity>
-10.67919

> <CNNscore>
0.0494487323

> <CNNaffinity>
6.7167143822

> <CNN_VS>
0.3321330249

> <CNNaffinity_variance>
0.1609067172

$$$$
[H]c1nc(N([H])c2c([H])c([H])c(N3C([H])([H])C([H])([H])N(c4c([H])c([H])c([H])c(C(F)(F)F)c4[H])C([H])([H])C3([H])[H])c([H])c2OC([H])([H])[H])nc(N([H])c2c([H])c([H])c([H])c([H])c2C(=O)N([H])[H])c1Cl


 46 50  0  0  0  0  0  0  0  0999 V2000
   11.0775   21.8643    2.0057 C   0  0  0  0  0  0  0  0  0  0  0  0
   12.2660   22.1063    1.3566 C   0  0  0  0  0  0  0  0  0  0  0  0
   12.5714   23.2766    0.7136 C   0  0  0  0  0  0  0  0  0  0  0  0
   11.5879   24.2391    0.7519 C   0  0  0  0  0  0  0  0  0  0  0  0
   10.3595   24.0571    1.3917 C   0  0  0  0  0  0  0  0  0  0  0  0
   10.0806   22.8788    2.0226 C   0  0  0  0  0  0  0  0  0  0  0  0
   13.8104   23.4579    0.0606 N   0  0  0  0  0  0  0  0  0  0  0  0
   14.1682   22.5732   -1.0617 C   0  0  0  0  0  0  0  0  0  0  0  0
   14.4437   23.4779   -2.2335 C   0  0  0  0  0  0  0  0  0  0  0  0
   15.4043   24.5301   -1.8771 N   0  0  0  0  0  0  0  0  0  0  0  0
   15.9237   24.5061   -0.5492 C   0  0  0  0  0  0  0  0  0  0  0  0
   14.7400   24.4726    0.4324 C   0  0  0  0  0  0  0  0  0  0  0  0
   15.7751   25.5040   -2.8210 C   0  0  0  0  0  0  0  0  0  0  0  0
   16.5988   26.5036   -2.4263 C   0  0  0  0  0  0  0  0  0  0  0  0
   17.0589   27.5398   -3.2545 C   0  0  0  0  0  0  0  0  0  0  0  0
   16.5949   27.4830   -4.5656 C   0  0  0  0  0  0  0  0  0  0  0  0
   15.7771   26.5036   -4.9824 C   0  0  0  0  0  0  0  0  0  0  0  0
   15.3332   25.4789   -4.1338 C   0  0  0  0  0  0  0  0  0  0  0  0
   15.2833   26.4861   -6.3923 C   0  0  0  0  0  0  0  0  0  0  0  0
   15.2888   25.1875   -6.8518 F   0  0  0  0  0  0  0  0  0  0  0  0
   13.9494   26.9027   -6.4011 F   0  0  0  0  0  0  0  0  0  0  0  0
   16.0594   27.2587   -7.2106 F   0  0  0  0  0  0  0  0  0  0  0  0
   11.6198   20.2167    3.6632 C   0  0  0  0  0  0  0  0  0  0  0  0
   10.7627   20.6961    2.6462 O   0  0  0  0  0  0  0  0  0  0  0  0
    8.8737   22.5732    2.6867 N   0  0  0  0  0  0  0  0  0  0  0  0
    8.7182   22.9553    3.6783 H   0  0  0  0  0  0  0  0  0  0  0  0
    7.8128   21.8182    2.1884 C   0  0  0  0  0  0  0  0  0  0  0  0
    7.1292   20.8932    2.8782 N   0  0  0  0  0  0  0  0  0  0  0  0
    6.0438   20.2547    2.4416 C   0  0  0  0  0  0  0  0  0  0  0  0
    5.5613   20.5553    1.1763 C   0  0  0  0  0  0  0  0  0  0  0  0
    4.1547   19.7680    0.5491 Cl  0  0  0  0  0  0  0  0  0  0  0  0
    6.2373   21.5105    0.4164 C   0  0  0  0  0  0  0  0  0  0  0  0
    7.3113   22.0800    0.9524 N   0  0  0  0  0  0  0  0  0  0  0  0
    5.6684   21.9024   -0.8262 N   0  0  0  0  0  0  0  0  0  0  0  0
    5.7905   22.9355   -1.0784 H   0  0  0  0  0  0  0  0  0  0  0  0
    4.9602   21.1355   -1.7445 C   0  0  0  0  0  0  0  0  0  0  0  0
    3.6671   21.5100   -2.0809 C   0  0  0  0  0  0  0  0  0  0  0  0
    2.9483   20.9019   -3.1072 C   0  0  0  0  0  0  0  0  0  0  0  0
    3.5499   19.8853   -3.8209 C   0  0  0  0  0  0  0  0  0  0  0  0
    4.8417   19.5163   -3.4768 C   0  0  0  0  0  0  0  0  0  0  0  0
    5.5567   20.1188   -2.4541 C   0  0  0  0  0  0  0  0  0  0  0  0
    6.8802   19.5773   -2.1591 C   0  0  0  0  0  0  0  0  0  0  0  0
    8.0433   20.3282   -2.5634 N   0  0  0  0  0  0  0  0  0  0  0  0
    7.1416   18.5097   -1.5826 O   0  0  0  0  0  0  0  0  0  0  0  0
    8.6827   19.8228   -3.2392 H   0  0  0  0  0  0  0  0  0  0  0  0
    8.2344   21.2713   -2.2296 H   0  0  0  0  0  0  0  0  0  0  0  0
 23 24  1  0  0  0
 24  1  1  0  0  0
  1  2  2  0  0  0
  2  3  1  0  0  0
  3  4  2  0  0  0
  4  5  1  0  0  0
  5  6  2  0  0  0
  6 25  1  0  0  0
 25 27  1  0  0  0
 27 28  2  0  0  0
 28 29  1  0  0  0
 29 30  2  0  0  0
 30 31  1  0  0  0
 30 32  1  0  0  0
 32 34  1  0  0  0
 34 36  1  0  0  0
 36 37  2  0  0  0
 37 38  1  0  0  0
 38 39  2  0  0  0
 39 40  1  0  0  0
 40 41  2  0  0  0
 41 42  1  0  0  0
 42 43  1  0  0  0
 42 44  2  0  0  0
 32 33  2  0  0  0
  3  7  1  0  0  0
  7  8  1  0  0  0
  8  9  1  0  0  0
  9 10  1  0  0  0
 10 11  1  0  0  0
 11 12  1  0  0  0
 10 13  1  0  0  0
 13 14  2  0  0  0
 14 15  1  0  0  0
 15 16  2  0  0  0
 16 17  1  0  0  0
 17 18  2  0  0  0
 17 19  1  0  0  0
 19 20  1  0  0  0
 19 21  1  0  0  0
 19 22  1  0  0  0
  6  1  1  0  0  0
 33 27  1  0  0  0
 12  7  1  0  0  0
 18 13  1  0  0  0
 41 36  1  0  0  0
 25 26  1  0  0  0
 34 35  1  0  0  0
 43 45  1  0  0  0
 43 46  1  0  0  0
M  END
> <minimizedAffinity>
-11.86491

> <CNNscore>
0.0480295457

> <CNNaffinity>
6.6983046532

> <CNN_VS>
0.3217165172

> <CNNaffinity_variance>
0.6517703533

$$$$
[H]c1nc(N([H])c2c([H])c([H])c(N3C([H])([H])C([H])([H])N(c4c([H])c([H])c([H])c(C(F)(F)F)c4[H])C([H])([H])C3([H])[H])c([H])c2OC([H])([H])[H])nc(N([H])c2c([H])c([H])c([H])c([H])c2C(=O)N([H])[H])c1Cl


 46 50  0  0  0  0  0  0  0  0999 V2000
   10.8307   21.7277    2.0023 C   0  0  0  0  0  0  0  0  0  0  0  0
   12.0553   22.0199    1.4480 C   0  0  0  0  0  0  0  0  0  0  0  0
   12.3014   23.1002    0.6424 C   0  0  0  0  0  0  0  0  0  0  0  0
   11.2158   23.9132    0.4062 C   0  0  0  0  0  0  0  0  0  0  0  0
    9.9461   23.6726    0.9366 C   0  0  0  0  0  0  0  0  0  0  0  0
    9.7286   22.5862    1.7345 C   0  0  0  0  0  0  0  0  0  0  0  0
   13.5832   23.3394    0.1003 N   0  0  0  0  0  0  0  0  0  0  0  0
   14.0991   22.4432   -0.9492 C   0  0  0  0  0  0  0  0  0  0  0  0
   14.4286   23.3250   -2.1245 C   0  0  0  0  0  0  0  0  0  0  0  0
   15.2851   24.4479   -1.7216 N   0  0  0  0  0  0  0  0  0  0  0  0
   15.6769   24.5008   -0.3515 C   0  0  0  0  0  0  0  0  0  0  0  0
   14.4099   24.4233    0.5170 C   0  0  0  0  0  0  0  0  0  0  0  0
   15.6837   25.4123   -2.6640 C   0  0  0  0  0  0  0  0  0  0  0  0
   16.5632   26.3665   -2.2775 C   0  0  0  0  0  0  0  0  0  0  0  0
   17.0562   27.3876   -3.1055 C   0  0  0  0  0  0  0  0  0  0  0  0
   16.5631   27.3669   -4.4071 C   0  0  0  0  0  0  0  0  0  0  0  0
   15.6900   26.4328   -4.8157 C   0  0  0  0  0  0  0  0  0  0  0  0
   15.2141   25.4223   -3.9674 C   0  0  0  0  0  0  0  0  0  0  0  0
   15.1671   26.4539   -6.2150 C   0  0  0  0  0  0  0  0  0  0  0  0
   16.0011   27.2272   -6.9922 F   0  0  0  0  0  0  0  0  0  0  0  0
   15.2330   25.1579   -6.7335 F   0  0  0  0  0  0  0  0  0  0  0  0
   13.8977   26.9580   -6.2740 F   0  0  0  0  0  0  0  0  0  0  0  0
   11.6606   19.9321    3.3599 C   0  0  0  0  0  0  0  0  0  0  0  0
   10.5755   20.6479    2.8041 O   0  0  0  0  0  0  0  0  0  0  0  0
    8.4913   22.2317    2.3129 N   0  0  0  0  0  0  0  0  0  0  0  0
    8.3346   22.4257    3.3576 H   0  0  0  0  0  0  0  0  0  0  0  0
    7.4015   21.6506    1.6661 C   0  0  0  0  0  0  0  0  0  0  0  0
    7.0472   21.8748    0.3923 N   0  0  0  0  0  0  0  0  0  0  0  0
    6.0774   21.2344   -0.2604 C   0  0  0  0  0  0  0  0  0  0  0  0
    5.3645   20.2508    0.4093 C   0  0  0  0  0  0  0  0  0  0  0  0
    4.0966   19.3772   -0.3786 Cl  0  0  0  0  0  0  0  0  0  0  0  0
    5.6932   19.9793    1.7379 C   0  0  0  0  0  0  0  0  0  0  0  0
    6.6760   20.6839    2.2881 N   0  0  0  0  0  0  0  0  0  0  0  0
    5.0440   18.8888    2.3786 N   0  0  0  0  0  0  0  0  0  0  0  0
    3.9992   18.7914    2.1668 H   0  0  0  0  0  0  0  0  0  0  0  0
    5.5734   17.9484    3.2551 C   0  0  0  0  0  0  0  0  0  0  0  0
    5.8962   18.3376    4.5474 C   0  0  0  0  0  0  0  0  0  0  0  0
    6.2734   17.4323    5.5361 C   0  0  0  0  0  0  0  0  0  0  0  0
    6.3255   16.0906    5.2164 C   0  0  0  0  0  0  0  0  0  0  0  0
    6.0030   15.7107    3.9222 C   0  0  0  0  0  0  0  0  0  0  0  0
    5.6303   16.6110    2.9370 C   0  0  0  0  0  0  0  0  0  0  0  0
    5.3882   16.0730    1.6014 C   0  0  0  0  0  0  0  0  0  0  0  0
    4.5598   14.9002    1.4651 N   0  0  0  0  0  0  0  0  0  0  0  0
    5.8231   16.5139    0.5258 O   0  0  0  0  0  0  0  0  0  0  0  0
    5.0422   14.0673    1.0240 H   0  0  0  0  0  0  0  0  0  0  0  0
    3.5890   14.8720    1.7718 H   0  0  0  0  0  0  0  0  0  0  0  0
 23 24  1  0  0  0
 24  1  1  0  0  0
  1  2  2  0  0  0
  2  3  1  0  0  0
  3  4  2  0  0  0
  4  5  1  0  0  0
  5  6  2  0  0  0
  6 25  1  0  0  0
 25 27  1  0  0  0
 27 28  2  0  0  0
 28 29  1  0  0  0
 29 30  2  0  0  0
 30 31  1  0  0  0
 30 32  1  0  0  0
 32 34  1  0  0  0
 34 36  1  0  0  0
 36 37  2  0  0  0
 37 38  1  0  0  0
 38 39  2  0  0  0
 39 40  1  0  0  0
 40 41  2  0  0  0
 41 42  1  0  0  0
 42 43  1  0  0  0
 42 44  2  0  0  0
 32 33  2  0  0  0
  3  7  1  0  0  0
  7  8  1  0  0  0
  8  9  1  0  0  0
  9 10  1  0  0  0
 10 11  1  0  0  0
 11 12  1  0  0  0
 10 13  1  0  0  0
 13 14  2  0  0  0
 14 15  1  0  0  0
 15 16  2  0  0  0
 16 17  1  0  0  0
 17 18  2  0  0  0
 17 19  1  0  0  0
 19 20  1  0  0  0
 19 21  1  0  0  0
 19 22  1  0  0  0
  6  1  1  0  0  0
 33 27  1  0  0  0
 12  7  1  0  0  0
 18 13  1  0  0  0
 41 36  1  0  0  0
 25 26  1  0  0  0
 34 35  1  0  0  0
 43 45  1  0  0  0
 43 46  1  0  0  0
M  END
> <minimizedAffinity>
-10.92193

> <CNNscore>
0.0472637303

> <CNNaffinity>
6.6585135460

> <CNN_VS>
0.3147061765

> <CNNaffinity_variance>
0.2542759478

$$$$
[H]OC(=O)[C@@]([H])(N([H])C(=O)[C@@]([H])(N([H])C(=O)[C@@]([H])(N([H])C(=O)[C@@]([H])(N([H])[H])C([H])([H])c1c([H])c([H])c(O[H])c([H])c1[H])C([H])([H])c1c([H])c([H])c(O[H])c([H])c1[H])C([H])([H])c1c([H])c([H])c(O[H])c([H])c1[H])[C@@]([H])(C([H])([H])[H])C([H])([H])C([H])([H])[H]


 54 56  0  0  0  0  0  0  0  0999 V2000
   12.4590   21.5362   -0.1089 N   0  0  0  0  0  0  0  0  0  0  0  0
   11.9013   22.7747    0.2672 C   0  0  0  0  0  0  0  0  0  0  0  0
   11.9436   23.1283    1.4658 O   0  0  0  0  0  0  0  0  0  0  0  0
   12.4733   21.2138   -1.0982 H   0  0  0  0  0  0  0  0  0  0  0  0
   13.0732   20.6259    0.8850 C   0  0  0  0  0  0  0  0  0  0  0  0
   12.3678   21.0342    3.2540 N   0  0  0  0  0  0  0  0  0  0  0  0
   12.1989   20.4205    2.0068 C   0  0  0  0  0  0  0  0  0  0  0  0
   11.2063   19.6245    1.8901 O   0  0  0  0  0  0  0  0  0  0  0  0
   13.1256   21.7215    3.3944 H   0  0  0  0  0  0  0  0  0  0  0  0
   11.5080   20.7694    4.4345 C   0  0  0  0  0  0  0  0  0  0  0  0
   11.2972   19.3429    4.5586 C   0  0  0  0  0  0  0  0  0  0  0  0
   12.3363   18.4432    4.1843 O   0  0  0  0  0  0  0  0  0  0  0  0
   10.2732   18.7736    4.9669 O   0  0  0  0  0  0  0  0  0  0  0  0
   12.4828   17.5672    4.6619 H   0  0  0  0  0  0  0  0  0  0  0  0
   10.3285   21.6478    4.2465 C   0  0  0  0  0  0  0  0  0  0  0  0
    9.1323   20.9268    3.6062 C   0  0  0  0  0  0  0  0  0  0  0  0
    8.5864   22.1835    5.9860 C   0  0  0  0  0  0  0  0  0  0  0  0
    9.8731   22.5664    5.2968 C   0  0  0  0  0  0  0  0  0  0  0  0
   14.4782   21.0043    1.0288 C   0  0  0  0  0  0  0  0  0  0  0  0
   14.9924   22.1790    0.3272 C   0  0  0  0  0  0  0  0  0  0  0  0
   15.3042   23.3238    1.0167 C   0  0  0  0  0  0  0  0  0  0  0  0
   15.7917   24.4196    0.3731 C   0  0  0  0  0  0  0  0  0  0  0  0
   15.9795   24.3869   -1.0024 C   0  0  0  0  0  0  0  0  0  0  0  0
   16.4769   25.5175   -1.6318 O   0  0  0  0  0  0  0  0  0  0  0  0
   15.6626   23.2284   -1.6862 C   0  0  0  0  0  0  0  0  0  0  0  0
   15.1741   22.1319   -1.0369 C   0  0  0  0  0  0  0  0  0  0  0  0
   15.8140   26.2163   -1.9756 H   0  0  0  0  0  0  0  0  0  0  0  0
   11.2490   23.7183   -0.6918 C   0  0  0  0  0  0  0  0  0  0  0  0
    9.8707   23.8426   -0.3085 N   0  0  0  0  0  0  0  0  0  0  0  0
    8.9962   22.7834    0.0748 C   0  0  0  0  0  0  0  0  0  0  0  0
    9.4893   21.6369    0.0739 O   0  0  0  0  0  0  0  0  0  0  0  0
    9.4671   24.8211   -0.3125 H   0  0  0  0  0  0  0  0  0  0  0  0
    7.5953   23.0194    0.4515 C   0  0  0  0  0  0  0  0  0  0  0  0
    6.6787   22.2249   -0.3721 N   0  0  0  0  0  0  0  0  0  0  0  0
    6.9628   21.2184   -0.2156 H   0  0  0  0  0  0  0  0  0  0  0  0
    6.7600   22.4316   -1.3756 H   0  0  0  0  0  0  0  0  0  0  0  0
    7.2683   23.0097    1.8932 C   0  0  0  0  0  0  0  0  0  0  0  0
    7.7865   24.1253    2.7008 C   0  0  0  0  0  0  0  0  0  0  0  0
    7.0474   24.6722    3.7390 C   0  0  0  0  0  0  0  0  0  0  0  0
    7.5476   25.7384    4.4751 C   0  0  0  0  0  0  0  0  0  0  0  0
    8.7788   26.3057    4.2259 C   0  0  0  0  0  0  0  0  0  0  0  0
    9.2722   27.3722    4.9654 O   0  0  0  0  0  0  0  0  0  0  0  0
    9.5073   25.7534    3.1894 C   0  0  0  0  0  0  0  0  0  0  0  0
    9.0156   24.7062    2.4666 C   0  0  0  0  0  0  0  0  0  0  0  0
    9.1049   28.3446    4.7130 H   0  0  0  0  0  0  0  0  0  0  0  0
   11.9415   25.0141   -0.7494 C   0  0  0  0  0  0  0  0  0  0  0  0
   12.6009   25.3780   -1.9966 C   0  0  0  0  0  0  0  0  0  0  0  0
   13.4198   24.5749   -2.7260 C   0  0  0  0  0  0  0  0  0  0  0  0
   14.0012   25.0056   -3.8989 C   0  0  0  0  0  0  0  0  0  0  0  0
   13.7886   26.2703   -4.4005 C   0  0  0  0  0  0  0  0  0  0  0  0
   14.3551   26.7320   -5.5687 O   0  0  0  0  0  0  0  0  0  0  0  0
   12.9630   27.0916   -3.6725 C   0  0  0  0  0  0  0  0  0  0  0  0
   12.3808   26.6571   -2.4970 C   0  0  0  0  0  0  0  0  0  0  0  0
   15.2617   27.1900   -5.4890 H   0  0  0  0  0  0  0  0  0  0  0  0
 17 18  1  0  0  0
 18 15  1  0  0  0
 15 16  1  0  0  0
 15 10  1  0  0  0
 10  6  1  0  0  0
  6  7  1  0  0  0
  7  8  2  0  0  0
  7  5  1  0  0  0
  5 19  1  0  0  0
 19 20  1  0  0  0
 20 21  2  0  0  0
 21 22  1  0  0  0
 22 23  2  0  0  0
 23 24  1  0  0  0
 23 25  1  0  0  0
 25 26  2  0  0  0
  5  1  1  0  0  0
  1  2  1  0  0  0
  2  3  2  0  0  0
  2 28  1  0  0  0
 28 46  1  0  0  0
 46 47  1  0  0  0
 47 48  2  0  0  0
 48 49  1  0  0  0
 49 50  2  0  0  0
 50 51  1  0  0  0
 50 52  1  0  0  0
 52 53  2  0  0  0
 28 29  1  0  0  0
 29 30  1  0  0  0
 30 31  2  0  0  0
 30 33  1  0  0  0
 33 34  1  0  0  0
 33 37  1  0  0  0
 37 38  1  0  0  0
 38 39  2  0  0  0
 39 40  1  0  0  0
 40 41  2  0  0  0
 41 42  1  0  0  0
 41 43  1  0  0  0
 43 44  2  0  0  0
 10 11  1  0  0  0
 11 12  1  0  0  0
 11 13  2  0  0  0
 26 20  1  0  0  0
 53 47  1  0  0  0
 44 38  1  0  0  0
  6  9  1  0  0  0
 24 27  1  0  0  0
  1  4  1  0  0  0
 51 54  1  0  0  0
 29 32  1  0  0  0
 34 35  1  0  0  0
 34 36  1  0  0  0
 42 45  1  0  0  0
 12 14  1  0  0  0
M  END
> <minimizedAffinity>
-6.74931

> <CNNscore>
0.4931666851

> <CNNaffinity>
7.7970514297

> <CNN_VS>
3.8452460766

> <CNNaffinity_variance>
0.3025420606

$$$$
[H]OC(=O)[C@@]([H])(N([H])C(=O)[C@@]([H])(N([H])C(=O)[C@@]([H])(N([H])C(=O)[C@@]([H])(N([H])[H])C([H])([H])c1c([H])c([H])c(O[H])c([H])c1[H])C([H])([H])c1c([H])c([H])c(O[H])c([H])c1[H])C([H])([H])c1c([H])c([H])c(O[H])c([H])c1[H])[C@@]([H])(C([H])([H])[H])C([H])([H])C([H])([H])[H]


 54 56  0  0  0  0  0  0  0  0999 V2000
   11.9378   21.9914   -0.2248 N   0  0  0  0  0  0  0  0  0  0  0  0
   11.5860   23.0799    0.5986 C   0  0  0  0  0  0  0  0  0  0  0  0
   11.7771   23.0036    1.8319 O   0  0  0  0  0  0  0  0  0  0  0  0
   11.8245   22.0209   -1.2588 H   0  0  0  0  0  0  0  0  0  0  0  0
   12.5059   20.7438    0.3360 C   0  0  0  0  0  0  0  0  0  0  0  0
   12.3004   20.8864    2.8287 N   0  0  0  0  0  0  0  0  0  0  0  0
   11.8779   20.4054    1.5835 C   0  0  0  0  0  0  0  0  0  0  0  0
   10.8789   19.6090    1.5862 O   0  0  0  0  0  0  0  0  0  0  0  0
   13.0740   21.5682    2.8851 H   0  0  0  0  0  0  0  0  0  0  0  0
   11.6984   20.4830    4.1240 C   0  0  0  0  0  0  0  0  0  0  0  0
   11.7540   19.0419    4.2456 C   0  0  0  0  0  0  0  0  0  0  0  0
   12.8479   18.3295    3.6753 O   0  0  0  0  0  0  0  0  0  0  0  0
   10.9264   18.3091    4.8090 O   0  0  0  0  0  0  0  0  0  0  0  0
   13.2195   17.4928    4.0978 H   0  0  0  0  0  0  0  0  0  0  0  0
   10.3729   21.1469    4.1467 C   0  0  0  0  0  0  0  0  0  0  0  0
    9.1992   20.1588    4.0659 C   0  0  0  0  0  0  0  0  0  0  0  0
    8.8635   22.0123    5.9689 C   0  0  0  0  0  0  0  0  0  0  0  0
   10.0677   22.2323    5.0865 C   0  0  0  0  0  0  0  0  0  0  0  0
   13.9569   20.7966    0.1630 C   0  0  0  0  0  0  0  0  0  0  0  0
   14.6093   22.0693   -0.1394 C   0  0  0  0  0  0  0  0  0  0  0  0
   15.1004   22.8596    0.8692 C   0  0  0  0  0  0  0  0  0  0  0  0
   15.7170   24.0421    0.5967 C   0  0  0  0  0  0  0  0  0  0  0  0
   15.8555   24.4625   -0.7194 C   0  0  0  0  0  0  0  0  0  0  0  0
   16.4873   25.6712   -0.9676 O   0  0  0  0  0  0  0  0  0  0  0  0
   15.3575   23.6580   -1.7270 C   0  0  0  0  0  0  0  0  0  0  0  0
   14.7399   22.4730   -1.4493 C   0  0  0  0  0  0  0  0  0  0  0  0
   15.9190   26.5207   -1.0034 H   0  0  0  0  0  0  0  0  0  0  0  0
   10.9877   24.3507    0.0861 C   0  0  0  0  0  0  0  0  0  0  0  0
   11.5220   24.5835   -1.2263 N   0  0  0  0  0  0  0  0  0  0  0  0
   12.4363   25.6114   -1.6017 C   0  0  0  0  0  0  0  0  0  0  0  0
   12.8028   26.3802   -0.6894 O   0  0  0  0  0  0  0  0  0  0  0  0
   11.2020   23.9232   -1.9892 H   0  0  0  0  0  0  0  0  0  0  0  0
   12.9245   25.7631   -2.9796 C   0  0  0  0  0  0  0  0  0  0  0  0
   12.0738   26.6744   -3.7514 N   0  0  0  0  0  0  0  0  0  0  0  0
   12.0954   27.5910   -3.2245 H   0  0  0  0  0  0  0  0  0  0  0  0
   11.0978   26.3581   -3.8105 H   0  0  0  0  0  0  0  0  0  0  0  0
   14.3731   25.9917   -3.1662 C   0  0  0  0  0  0  0  0  0  0  0  0
   14.8806   25.9540   -4.5468 C   0  0  0  0  0  0  0  0  0  0  0  0
   15.0818   24.7539   -5.2120 C   0  0  0  0  0  0  0  0  0  0  0  0
   15.5811   24.7412   -6.5079 C   0  0  0  0  0  0  0  0  0  0  0  0
   15.9003   25.8916   -7.1965 C   0  0  0  0  0  0  0  0  0  0  0  0
   16.4001   25.8713   -8.4918 O   0  0  0  0  0  0  0  0  0  0  0  0
   15.6962   27.0821   -6.5248 C   0  0  0  0  0  0  0  0  0  0  0  0
   15.2058   27.0942   -5.2520 C   0  0  0  0  0  0  0  0  0  0  0  0
   17.3961   25.8257   -8.6997 H   0  0  0  0  0  0  0  0  0  0  0  0
    9.5178   24.3154    0.1028 C   0  0  0  0  0  0  0  0  0  0  0  0
    8.8511   24.3586    1.3974 C   0  0  0  0  0  0  0  0  0  0  0  0
    9.0600   25.2872    2.3679 C   0  0  0  0  0  0  0  0  0  0  0  0
    8.3802   25.2494    3.5662 C   0  0  0  0  0  0  0  0  0  0  0  0
    7.4523   24.2726    3.8515 C   0  0  0  0  0  0  0  0  0  0  0  0
    6.7568   24.2058    5.0391 O   0  0  0  0  0  0  0  0  0  0  0  0
    7.2323   23.3284    2.8788 C   0  0  0  0  0  0  0  0  0  0  0  0
    7.9148   23.3688    1.6779 C   0  0  0  0  0  0  0  0  0  0  0  0
    7.1831   23.6655    5.7903 H   0  0  0  0  0  0  0  0  0  0  0  0
 17 18  1  0  0  0
 18 15  1  0  0  0
 15 16  1  0  0  0
 15 10  1  0  0  0
 10  6  1  0  0  0
  6  7  1  0  0  0
  7  8  2  0  0  0
  7  5  1  0  0  0
  5 19  1  0  0  0
 19 20  1  0  0  0
 20 21  2  0  0  0
 21 22  1  0  0  0
 22 23  2  0  0  0
 23 24  1  0  0  0
 23 25  1  0  0  0
 25 26  2  0  0  0
  5  1  1  0  0  0
  1  2  1  0  0  0
  2  3  2  0  0  0
  2 28  1  0  0  0
 28 46  1  0  0  0
 46 47  1  0  0  0
 47 48  2  0  0  0
 48 49  1  0  0  0
 49 50  2  0  0  0
 50 51  1  0  0  0
 50 52  1  0  0  0
 52 53  2  0  0  0
 28 29  1  0  0  0
 29 30  1  0  0  0
 30 31  2  0  0  0
 30 33  1  0  0  0
 33 34  1  0  0  0
 33 37  1  0  0  0
 37 38  1  0  0  0
 38 39  2  0  0  0
 39 40  1  0  0  0
 40 41  2  0  0  0
 41 42  1  0  0  0
 41 43  1  0  0  0
 43 44  2  0  0  0
 10 11  1  0  0  0
 11 12  1  0  0  0
 11 13  2  0  0  0
 26 20  1  0  0  0
 53 47  1  0  0  0
 44 38  1  0  0  0
  6  9  1  0  0  0
 24 27  1  0  0  0
  1  4  1  0  0  0
 51 54  1  0  0  0
 29 32  1  0  0  0
 34 35  1  0  0  0
 34 36  1  0  0  0
 42 45  1  0  0  0
 12 14  1  0  0  0
M  END
> <minimizedAffinity>
-5.92146

> <CNNscore>
0.4837495685

> <CNNaffinity>
8.0435619354

> <CNN_VS>
3.8910696507

> <CNNaffinity_variance>
0.2849373221

$$$$
[H]OC(=O)[C@@]([H])(N([H])C(=O)[C@@]([H])(N([H])C(=O)[C@@]([H])(N([H])C(=O)[C@@]([H])(N([H])[H])C([H])([H])c1c([H])c([H])c(O[H])c([H])c1[H])C([H])([H])c1c([H])c([H])c(O[H])c([H])c1[H])C([H])([H])c1c([H])c([H])c(O[H])c([H])c1[H])[C@@]([H])(C([H])([H])[H])C([H])([H])C([H])([H])[H]


 54 56  0  0  0  0  0  0  0  0999 V2000
    9.0317   22.2691   -0.0228 N   0  0  0  0  0  0  0  0  0  0  0  0
   10.2314   22.9837   -0.2138 C   0  0  0  0  0  0  0  0  0  0  0  0
   10.5398   23.8914    0.5888 O   0  0  0  0  0  0  0  0  0  0  0  0
    8.7486   21.4865   -0.6475 H   0  0  0  0  0  0  0  0  0  0  0  0
    8.1089   22.5826    1.0927 C   0  0  0  0  0  0  0  0  0  0  0  0
    6.9790   20.4294    0.4903 N   0  0  0  0  0  0  0  0  0  0  0  0
    6.9815   21.6916    1.0963 C   0  0  0  0  0  0  0  0  0  0  0  0
    5.8985   22.0537    1.6695 O   0  0  0  0  0  0  0  0  0  0  0  0
    7.8393   20.0642    0.0509 H   0  0  0  0  0  0  0  0  0  0  0  0
    5.7942   19.5374    0.4315 C   0  0  0  0  0  0  0  0  0  0  0  0
    5.4999   19.0496    1.7620 C   0  0  0  0  0  0  0  0  0  0  0  0
    4.5036   19.7001    2.5452 O   0  0  0  0  0  0  0  0  0  0  0  0
    6.0344   18.0902    2.3392 O   0  0  0  0  0  0  0  0  0  0  0  0
    3.9163   19.1945    3.1905 H   0  0  0  0  0  0  0  0  0  0  0  0
    6.1150   18.5538   -0.6306 C   0  0  0  0  0  0  0  0  0  0  0  0
    6.9853   19.1379   -1.7540 C   0  0  0  0  0  0  0  0  0  0  0  0
    7.7070   16.6603   -1.1081 C   0  0  0  0  0  0  0  0  0  0  0  0
    6.5351   17.1835   -0.3141 C   0  0  0  0  0  0  0  0  0  0  0  0
    7.9755   24.0368    1.1665 C   0  0  0  0  0  0  0  0  0  0  0  0
    8.2500   24.7313    2.4231 C   0  0  0  0  0  0  0  0  0  0  0  0
    7.9875   26.0720    2.5522 C   0  0  0  0  0  0  0  0  0  0  0  0
    8.2318   26.7253    3.7210 C   0  0  0  0  0  0  0  0  0  0  0  0
    8.7545   26.0318    4.8045 C   0  0  0  0  0  0  0  0  0  0  0  0
    8.9938   26.7225    5.9824 O   0  0  0  0  0  0  0  0  0  0  0  0
    9.0144   24.6817    4.6630 C   0  0  0  0  0  0  0  0  0  0  0  0
    8.7679   24.0306    3.4892 C   0  0  0  0  0  0  0  0  0  0  0  0
    9.9108   27.1548    6.1171 H   0  0  0  0  0  0  0  0  0  0  0  0
   11.1844   22.7232   -1.3361 C   0  0  0  0  0  0  0  0  0  0  0  0
   12.0960   23.8311   -1.3972 N   0  0  0  0  0  0  0  0  0  0  0  0
   13.3936   23.8323   -1.9883 C   0  0  0  0  0  0  0  0  0  0  0  0
   13.7641   22.7569   -2.5018 O   0  0  0  0  0  0  0  0  0  0  0  0
   11.7675   24.7361   -0.9576 H   0  0  0  0  0  0  0  0  0  0  0  0
   14.2509   25.0262   -1.9977 C   0  0  0  0  0  0  0  0  0  0  0  0
   15.6707   24.6649   -2.0545 N   0  0  0  0  0  0  0  0  0  0  0  0
   15.7798   24.0968   -2.9398 H   0  0  0  0  0  0  0  0  0  0  0  0
   15.9691   24.0858   -1.2597 H   0  0  0  0  0  0  0  0  0  0  0  0
   13.8744   26.1260   -2.9109 C   0  0  0  0  0  0  0  0  0  0  0  0
   14.5057   26.1333   -4.2400 C   0  0  0  0  0  0  0  0  0  0  0  0
   14.9149   24.9590   -4.8539 C   0  0  0  0  0  0  0  0  0  0  0  0
   15.5273   24.9912   -6.1000 C   0  0  0  0  0  0  0  0  0  0  0  0
   15.7612   26.1629   -6.7871 C   0  0  0  0  0  0  0  0  0  0  0  0
   16.3748   26.1877   -8.0324 O   0  0  0  0  0  0  0  0  0  0  0  0
   15.3497   27.3274   -6.1668 C   0  0  0  0  0  0  0  0  0  0  0  0
   14.7483   27.2953   -4.9429 C   0  0  0  0  0  0  0  0  0  0  0  0
   17.3834   26.2659   -8.1505 H   0  0  0  0  0  0  0  0  0  0  0  0
   11.8702   21.4308   -1.1899 C   0  0  0  0  0  0  0  0  0  0  0  0
   11.9966   20.8757    0.1511 C   0  0  0  0  0  0  0  0  0  0  0  0
   13.0456   21.0667    0.9943 C   0  0  0  0  0  0  0  0  0  0  0  0
   13.0789   20.5004    2.2503 C   0  0  0  0  0  0  0  0  0  0  0  0
   12.0558   19.7102    2.7249 C   0  0  0  0  0  0  0  0  0  0  0  0
   12.0587   19.1288    3.9741 O   0  0  0  0  0  0  0  0  0  0  0  0
   10.9901   19.5095    1.8823 C   0  0  0  0  0  0  0  0  0  0  0  0
   10.9588   20.0789    0.6235 C   0  0  0  0  0  0  0  0  0  0  0  0
   12.4710   18.2000    4.0467 H   0  0  0  0  0  0  0  0  0  0  0  0
 17 18  1  0  0  0
 18 15  1  0  0  0
 15 16  1  0  0  0
 15 10  1  0  0  0
 10  6  1  0  0  0
  6  7  1  0  0  0
  7  8  2  0  0  0
  7  5  1  0  0  0
  5 19  1  0  0  0
 19 20  1  0  0  0
 20 21  2  0  0  0
 21 22  1  0  0  0
 22 23  2  0  0  0
 23 24  1  0  0  0
 23 25  1  0  0  0
 25 26  2  0  0  0
  5  1  1  0  0  0
  1  2  1  0  0  0
  2  3  2  0  0  0
  2 28  1  0  0  0
 28 46  1  0  0  0
 46 47  1  0  0  0
 47 48  2  0  0  0
 48 49  1  0  0  0
 49 50  2  0  0  0
 50 51  1  0  0  0
 50 52  1  0  0  0
 52 53  2  0  0  0
 28 29  1  0  0  0
 29 30  1  0  0  0
 30 31  2  0  0  0
 30 33  1  0  0  0
 33 34  1  0  0  0
 33 37  1  0  0  0
 37 38  1  0  0  0
 38 39  2  0  0  0
 39 40  1  0  0  0
 40 41  2  0  0  0
 41 42  1  0  0  0
 41 43  1  0  0  0
 43 44  2  0  0  0
 10 11  1  0  0  0
 11 12  1  0  0  0
 11 13  2  0  0  0
 26 20  1  0  0  0
 53 47  1  0  0  0
 44 38  1  0  0  0
  6  9  1  0  0  0
 24 27  1  0  0  0
  1  4  1  0  0  0
 51 54  1  0  0  0
 29 32  1  0  0  0
 34 35  1  0  0  0
 34 36  1  0  0  0
 42 45  1  0  0  0
 12 14  1  0  0  0
M  END
> <minimizedAffinity>
-7.46503

> <CNNscore>
0.4339583218

> <CNNaffinity>
7.5648994446

> <CNN_VS>
3.2828509808

> <CNNaffinity_variance>
0.1208339110

$$$$
[H]OC(=O)[C@@]([H])(N([H])C(=O)[C@@]([H])(N([H])C(=O)[C@@]([H])(N([H])C(=O)[C@@]([H])(N([H])[H])C([H])([H])c1c([H])c([H])c(O[H])c([H])c1[H])C([H])([H])c1c([H])c([H])c(O[H])c([H])c1[H])C([H])([H])c1c([H])c([H])c(O[H])c([H])c1[H])[C@@]([H])(C([H])([H])[H])C([H])([H])C([H])([H])[H]


 54 56  0  0  0  0  0  0  0  0999 V2000
    9.5314   22.3812    0.1654 N   0  0  0  0  0  0  0  0  0  0  0  0
    9.5173   22.6950    1.5393 C   0  0  0  0  0  0  0  0  0  0  0  0
    8.9244   21.9357    2.3364 O   0  0  0  0  0  0  0  0  0  0  0  0
   10.0366   22.9672   -0.5306 H   0  0  0  0  0  0  0  0  0  0  0  0
    8.8380   21.1852   -0.3664 C   0  0  0  0  0  0  0  0  0  0  0  0
    6.9742   20.0262    0.8417 N   0  0  0  0  0  0  0  0  0  0  0  0
    7.4883   21.1114    0.1214 C   0  0  0  0  0  0  0  0  0  0  0  0
    6.6835   22.0756   -0.1133 O   0  0  0  0  0  0  0  0  0  0  0  0
    7.5896   19.2382    1.1002 H   0  0  0  0  0  0  0  0  0  0  0  0
    5.5621   19.9163    1.2850 C   0  0  0  0  0  0  0  0  0  0  0  0
    5.5064   20.0288    2.7269 C   0  0  0  0  0  0  0  0  0  0  0  0
    6.7024   19.8960    3.4894 O   0  0  0  0  0  0  0  0  0  0  0  0
    4.4979   20.2330    3.4201 O   0  0  0  0  0  0  0  0  0  0  0  0
    6.8536   20.4142    4.3412 H   0  0  0  0  0  0  0  0  0  0  0  0
    5.0632   18.6728    0.6500 C   0  0  0  0  0  0  0  0  0  0  0  0
    4.6438   18.8672   -0.8152 C   0  0  0  0  0  0  0  0  0  0  0  0
    5.8417   16.5255   -0.4133 C   0  0  0  0  0  0  0  0  0  0  0  0
    5.7502   17.3872    0.8222 C   0  0  0  0  0  0  0  0  0  0  0  0
    9.7714   20.0617   -0.3008 C   0  0  0  0  0  0  0  0  0  0  0  0
   11.1559   20.2871    0.1103 C   0  0  0  0  0  0  0  0  0  0  0  0
   12.1353   20.5086   -0.8251 C   0  0  0  0  0  0  0  0  0  0  0  0
   13.4256   20.7280   -0.4513 C   0  0  0  0  0  0  0  0  0  0  0  0
   13.7646   20.7296    0.8953 C   0  0  0  0  0  0  0  0  0  0  0  0
   15.0863   20.9553    1.2472 O   0  0  0  0  0  0  0  0  0  0  0  0
   12.7697   20.5060    1.8284 C   0  0  0  0  0  0  0  0  0  0  0  0
   11.4772   20.2865    1.4492 C   0  0  0  0  0  0  0  0  0  0  0  0
   15.7129   20.1515    1.3322 H   0  0  0  0  0  0  0  0  0  0  0  0
   10.1802   23.9012    2.1234 C   0  0  0  0  0  0  0  0  0  0  0  0
   11.4921   23.9971    1.5473 N   0  0  0  0  0  0  0  0  0  0  0  0
   11.8106   24.4262    0.2253 C   0  0  0  0  0  0  0  0  0  0  0  0
   10.8438   24.7492   -0.4949 O   0  0  0  0  0  0  0  0  0  0  0  0
   12.3016   23.7199    2.1704 H   0  0  0  0  0  0  0  0  0  0  0  0
   13.1936   24.4887   -0.2681 C   0  0  0  0  0  0  0  0  0  0  0  0
   14.1536   24.1455    0.7857 N   0  0  0  0  0  0  0  0  0  0  0  0
   13.8915   23.1690    1.0958 H   0  0  0  0  0  0  0  0  0  0  0  0
   14.0955   24.7700    1.5998 H   0  0  0  0  0  0  0  0  0  0  0  0
   13.4798   23.8520   -1.5712 C   0  0  0  0  0  0  0  0  0  0  0  0
   13.8225   24.7465   -2.6882 C   0  0  0  0  0  0  0  0  0  0  0  0
   13.0616   25.8694   -2.9766 C   0  0  0  0  0  0  0  0  0  0  0  0
   13.3916   26.6886   -4.0484 C   0  0  0  0  0  0  0  0  0  0  0  0
   14.4690   26.4427   -4.8722 C   0  0  0  0  0  0  0  0  0  0  0  0
   14.7926   27.2655   -5.9427 O   0  0  0  0  0  0  0  0  0  0  0  0
   15.2208   25.3213   -4.5763 C   0  0  0  0  0  0  0  0  0  0  0  0
   14.8962   24.5170   -3.5235 C   0  0  0  0  0  0  0  0  0  0  0  0
   14.4222   27.1240   -6.8808 H   0  0  0  0  0  0  0  0  0  0  0  0
    9.3825   25.1204    1.9253 C   0  0  0  0  0  0  0  0  0  0  0  0
    8.5449   25.5720    3.0286 C   0  0  0  0  0  0  0  0  0  0  0  0
    8.7728   25.3351    4.3475 C   0  0  0  0  0  0  0  0  0  0  0  0
    7.9231   25.8040    5.3259 C   0  0  0  0  0  0  0  0  0  0  0  0
    6.7965   26.5377    5.0277 C   0  0  0  0  0  0  0  0  0  0  0  0
    5.9266   27.0200    5.9812 O   0  0  0  0  0  0  0  0  0  0  0  0
    6.5552   26.7838    3.6983 C   0  0  0  0  0  0  0  0  0  0  0  0
    7.4090   26.3129    2.7191 C   0  0  0  0  0  0  0  0  0  0  0  0
    5.1530   26.4120    6.2455 H   0  0  0  0  0  0  0  0  0  0  0  0
 17 18  1  0  0  0
 18 15  1  0  0  0
 15 16  1  0  0  0
 15 10  1  0  0  0
 10  6  1  0  0  0
  6  7  1  0  0  0
  7  8  2  0  0  0
  7  5  1  0  0  0
  5 19  1  0  0  0
 19 20  1  0  0  0
 20 21  2  0  0  0
 21 22  1  0  0  0
 22 23  2  0  0  0
 23 24  1  0  0  0
 23 25  1  0  0  0
 25 26  2  0  0  0
  5  1  1  0  0  0
  1  2  1  0  0  0
  2  3  2  0  0  0
  2 28  1  0  0  0
 28 46  1  0  0  0
 46 47  1  0  0  0
 47 48  2  0  0  0
 48 49  1  0  0  0
 49 50  2  0  0  0
 50 51  1  0  0  0
 50 52  1  0  0  0
 52 53  2  0  0  0
 28 29  1  0  0  0
 29 30  1  0  0  0
 30 31  2  0  0  0
 30 33  1  0  0  0
 33 34  1  0  0  0
 33 37  1  0  0  0
 37 38  1  0  0  0
 38 39  2  0  0  0
 39 40  1  0  0  0
 40 41  2  0  0  0
 41 42  1  0  0  0
 41 43  1  0  0  0
 43 44  2  0  0  0
 10 11  1  0  0  0
 11 12  1  0  0  0
 11 13  2  0  0  0
 26 20  1  0  0  0
 53 47  1  0  0  0
 44 38  1  0  0  0
  6  9  1  0  0  0
 24 27  1  0  0  0
  1  4  1  0  0  0
 51 54  1  0  0  0
 29 32  1  0  0  0
 34 35  1  0  0  0
 34 36  1  0  0  0
 42 45  1  0  0  0
 12 14  1  0  0  0
M  END
> <minimizedAffinity>
-8.91693

> <CNNscore>
0.3522898853

> <CNNaffinity>
7.3721823692

> <CNN_VS>
2.5971453190

> <CNNaffinity_variance>
0.2174047232

$$$$
[H]OC(=O)[C@@]([H])(N([H])C(=O)[C@@]([H])(N([H])C(=O)[C@@]([H])(N([H])C(=O)[C@@]([H])(N([H])[H])C([H])([H])c1c([H])c([H])c(O[H])c([H])c1[H])C([H])([H])c1c([H])c([H])c(O[H])c([H])c1[H])C([H])([H])c1c([H])c([H])c(O[H])c([H])c1[H])[C@@]([H])(C([H])([H])[H])C([H])([H])C([H])([H])[H]


 54 56  0  0  0  0  0  0  0  0999 V2000
    9.2559   22.8480    1.6738 N   0  0  0  0  0  0  0  0  0  0  0  0
   10.6429   22.5988    1.6474 C   0  0  0  0  0  0  0  0  0  0  0  0
   11.1141   21.6751    2.3460 O   0  0  0  0  0  0  0  0  0  0  0  0
    8.8153   23.5861    1.0873 H   0  0  0  0  0  0  0  0  0  0  0  0
    8.3403   22.0592    2.5302 C   0  0  0  0  0  0  0  0  0  0  0  0
    7.4332   20.4820    0.8080 N   0  0  0  0  0  0  0  0  0  0  0  0
    7.2666   21.4972    1.7578 C   0  0  0  0  0  0  0  0  0  0  0  0
    6.0796   21.9414    1.9190 O   0  0  0  0  0  0  0  0  0  0  0  0
    8.3617   20.0526    0.6664 H   0  0  0  0  0  0  0  0  0  0  0  0
    6.3384   19.9495   -0.0409 C   0  0  0  0  0  0  0  0  0  0  0  0
    5.7463   18.8015    0.6119 C   0  0  0  0  0  0  0  0  0  0  0  0
    4.7805   18.0178   -0.0828 O   0  0  0  0  0  0  0  0  0  0  0  0
    5.9814   18.3933    1.7597 O   0  0  0  0  0  0  0  0  0  0  0  0
    4.7031   17.0215    0.0525 H   0  0  0  0  0  0  0  0  0  0  0  0
    6.9524   19.7677   -1.3781 C   0  0  0  0  0  0  0  0  0  0  0  0
    5.9665   19.9984   -2.5337 C   0  0  0  0  0  0  0  0  0  0  0  0
    9.4029   19.8971   -0.8071 C   0  0  0  0  0  0  0  0  0  0  0  0
    8.2696   20.3259   -1.7066 C   0  0  0  0  0  0  0  0  0  0  0  0
    8.1244   22.8119    3.7650 C   0  0  0  0  0  0  0  0  0  0  0  0
    8.0288   24.2699    3.7229 C   0  0  0  0  0  0  0  0  0  0  0  0
    6.8079   24.8873    3.6166 C   0  0  0  0  0  0  0  0  0  0  0  0
    6.7085   26.2444    3.5854 C   0  0  0  0  0  0  0  0  0  0  0  0
    7.8553   27.0237    3.6620 C   0  0  0  0  0  0  0  0  0  0  0  0
    7.7244   28.4033    3.6274 O   0  0  0  0  0  0  0  0  0  0  0  0
    9.0794   26.3908    3.7694 C   0  0  0  0  0  0  0  0  0  0  0  0
    9.1745   25.0297    3.8003 C   0  0  0  0  0  0  0  0  0  0  0  0
    7.7494   28.8734    2.7195 H   0  0  0  0  0  0  0  0  0  0  0  0
   11.6123   23.3806    0.8199 C   0  0  0  0  0  0  0  0  0  0  0  0
   12.9260   22.8674    1.0901 N   0  0  0  0  0  0  0  0  0  0  0  0
   13.4957   21.6707    0.5640 C   0  0  0  0  0  0  0  0  0  0  0  0
   12.7707   21.0109   -0.2084 O   0  0  0  0  0  0  0  0  0  0  0  0
   13.5288   23.4381    1.7467 H   0  0  0  0  0  0  0  0  0  0  0  0
   14.8567   21.2331    0.9053 C   0  0  0  0  0  0  0  0  0  0  0  0
   15.4246   20.3829   -0.1455 N   0  0  0  0  0  0  0  0  0  0  0  0
   15.4110   20.9744   -1.0220 H   0  0  0  0  0  0  0  0  0  0  0  0
   14.8700   19.5352   -0.3187 H   0  0  0  0  0  0  0  0  0  0  0  0
   15.7909   22.2570    1.4193 C   0  0  0  0  0  0  0  0  0  0  0  0
   16.0338   23.4273    0.5611 C   0  0  0  0  0  0  0  0  0  0  0  0
   15.2239   24.5514    0.6229 C   0  0  0  0  0  0  0  0  0  0  0  0
   15.4592   25.6367   -0.2111 C   0  0  0  0  0  0  0  0  0  0  0  0
   16.4865   25.6637   -1.1295 C   0  0  0  0  0  0  0  0  0  0  0  0
   16.7154   26.7520   -1.9609 O   0  0  0  0  0  0  0  0  0  0  0  0
   17.2877   24.5389   -1.1832 C   0  0  0  0  0  0  0  0  0  0  0  0
   17.0562   23.4731   -0.3639 C   0  0  0  0  0  0  0  0  0  0  0  0
   16.2882   26.8448   -2.8808 H   0  0  0  0  0  0  0  0  0  0  0  0
   11.2719   23.3459   -0.6101 C   0  0  0  0  0  0  0  0  0  0  0  0
   12.1073   24.1102   -1.5269 C   0  0  0  0  0  0  0  0  0  0  0  0
   11.9206   25.4109   -1.8749 C   0  0  0  0  0  0  0  0  0  0  0  0
   12.7654   26.0551   -2.7527 C   0  0  0  0  0  0  0  0  0  0  0  0
   13.8450   25.4227   -3.3278 C   0  0  0  0  0  0  0  0  0  0  0  0
   14.7076   26.0374   -4.2092 O   0  0  0  0  0  0  0  0  0  0  0  0
   14.0444   24.1081   -2.9842 C   0  0  0  0  0  0  0  0  0  0  0  0
   13.1961   23.4645   -2.1034 C   0  0  0  0  0  0  0  0  0  0  0  0
   14.4691   25.9818   -5.1982 H   0  0  0  0  0  0  0  0  0  0  0  0
 17 18  1  0  0  0
 18 15  1  0  0  0
 15 16  1  0  0  0
 15 10  1  0  0  0
 10  6  1  0  0  0
  6  7  1  0  0  0
  7  8  2  0  0  0
  7  5  1  0  0  0
  5 19  1  0  0  0
 19 20  1  0  0  0
 20 21  2  0  0  0
 21 22  1  0  0  0
 22 23  2  0  0  0
 23 24  1  0  0  0
 23 25  1  0  0  0
 25 26  2  0  0  0
  5  1  1  0  0  0
  1  2  1  0  0  0
  2  3  2  0  0  0
  2 28  1  0  0  0
 28 46  1  0  0  0
 46 47  1  0  0  0
 47 48  2  0  0  0
 48 49  1  0  0  0
 49 50  2  0  0  0
 50 51  1  0  0  0
 50 52  1  0  0  0
 52 53  2  0  0  0
 28 29  1  0  0  0
 29 30  1  0  0  0
 30 31  2  0  0  0
 30 33  1  0  0  0
 33 34  1  0  0  0
 33 37  1  0  0  0
 37 38  1  0  0  0
 38 39  2  0  0  0
 39 40  1  0  0  0
 40 41  2  0  0  0
 41 42  1  0  0  0
 41 43  1  0  0  0
 43 44  2  0  0  0
 10 11  1  0  0  0
 11 12  1  0  0  0
 11 13  2  0  0  0
 26 20  1  0  0  0
 53 47  1  0  0  0
 44 38  1  0  0  0
  6  9  1  0  0  0
 24 27  1  0  0  0
  1  4  1  0  0  0
 51 54  1  0  0  0
 29 32  1  0  0  0
 34 35  1  0  0  0
 34 36  1  0  0  0
 42 45  1  0  0  0
 12 14  1  0  0  0
M  END
> <minimizedAffinity>
-4.97741

> <CNNscore>
0.3515448868

> <CNNaffinity>
7.3844285011

> <CNN_VS>
2.5959579945

> <CNNaffinity_variance>
0.1172955409

$$$$
[H]OC(=O)[C@@]([H])(N([H])C(=O)[C@@]([H])(N([H])C(=O)[C@@]([H])(N([H])C(=O)[C@@]([H])(N([H])[H])C([H])([H])c1c([H])c([H])c(O[H])c([H])c1[H])C([H])([H])c1c([H])c([H])c(O[H])c([H])c1[H])C([H])([H])c1c([H])c([H])c(O[H])c([H])c1[H])[C@@]([H])(C([H])([H])[H])C([H])([H])C([H])([H])[H]


 54 56  0  0  0  0  0  0  0  0999 V2000
    9.5118   21.0796   -0.0542 N   0  0  0  0  0  0  0  0  0  0  0  0
   10.5265   22.0431    0.1144 C   0  0  0  0  0  0  0  0  0  0  0  0
   10.2254   23.2567    0.1231 O   0  0  0  0  0  0  0  0  0  0  0  0
    9.7109   20.0583   -0.0385 H   0  0  0  0  0  0  0  0  0  0  0  0
    8.0956   21.4675   -0.2484 C   0  0  0  0  0  0  0  0  0  0  0  0
    7.9981   21.2756    2.2475 N   0  0  0  0  0  0  0  0  0  0  0  0
    7.3964   21.5150    1.0061 C   0  0  0  0  0  0  0  0  0  0  0  0
    6.1459   21.7771    1.0170 O   0  0  0  0  0  0  0  0  0  0  0  0
    9.0146   21.1030    2.3055 H   0  0  0  0  0  0  0  0  0  0  0  0
    7.2641   21.2544    3.5373 C   0  0  0  0  0  0  0  0  0  0  0  0
    6.1942   20.2827    3.4594 C   0  0  0  0  0  0  0  0  0  0  0  0
    4.8498   20.7276    3.3048 O   0  0  0  0  0  0  0  0  0  0  0  0
    6.3031   19.0481    3.5167 O   0  0  0  0  0  0  0  0  0  0  0  0
    4.1705   20.2028    2.7758 H   0  0  0  0  0  0  0  0  0  0  0  0
    6.9179   22.6723    3.7975 C   0  0  0  0  0  0  0  0  0  0  0  0
    6.3605   22.9104    5.2093 C   0  0  0  0  0  0  0  0  0  0  0  0
    8.8019   24.2121    4.4513 C   0  0  0  0  0  0  0  0  0  0  0  0
    7.8088   23.7705    3.4043 C   0  0  0  0  0  0  0  0  0  0  0  0
    7.5907   20.7449   -1.4150 C   0  0  0  0  0  0  0  0  0  0  0  0
    6.7899   19.5356   -1.2333 C   0  0  0  0  0  0  0  0  0  0  0  0
    5.4433   19.5431   -1.4971 C   0  0  0  0  0  0  0  0  0  0  0  0
    4.6913   18.4196   -1.3391 C   0  0  0  0  0  0  0  0  0  0  0  0
    5.2881   17.2435   -0.9048 C   0  0  0  0  0  0  0  0  0  0  0  0
    4.4980   16.1147   -0.7523 O   0  0  0  0  0  0  0  0  0  0  0  0
    6.6452   17.2477   -0.6428 C   0  0  0  0  0  0  0  0  0  0  0  0
    7.3956   18.3764   -0.8026 C   0  0  0  0  0  0  0  0  0  0  0  0
    4.0550   15.9478    0.1543 H   0  0  0  0  0  0  0  0  0  0  0  0
   11.9725   21.7057    0.2899 C   0  0  0  0  0  0  0  0  0  0  0  0
   12.7132   22.4460   -0.6927 N   0  0  0  0  0  0  0  0  0  0  0  0
   13.9443   22.0584   -1.2989 C   0  0  0  0  0  0  0  0  0  0  0  0
   14.4163   20.9632   -0.9313 O   0  0  0  0  0  0  0  0  0  0  0  0
   12.3000   23.3726   -0.9944 H   0  0  0  0  0  0  0  0  0  0  0  0
   14.6236   22.8932   -2.2998 C   0  0  0  0  0  0  0  0  0  0  0  0
   14.9636   22.1209   -3.4988 N   0  0  0  0  0  0  0  0  0  0  0  0
   14.0434   21.7458   -3.8604 H   0  0  0  0  0  0  0  0  0  0  0  0
   15.5822   21.3245   -3.3007 H   0  0  0  0  0  0  0  0  0  0  0  0
   14.0402   24.2209   -2.5864 C   0  0  0  0  0  0  0  0  0  0  0  0
   14.9763   25.2928   -2.9604 C   0  0  0  0  0  0  0  0  0  0  0  0
   14.7557   26.0918   -4.0722 C   0  0  0  0  0  0  0  0  0  0  0  0
   15.6633   27.0844   -4.4184 C   0  0  0  0  0  0  0  0  0  0  0  0
   16.8114   27.3311   -3.6969 C   0  0  0  0  0  0  0  0  0  0  0  0
   17.7149   28.3247   -4.0494 O   0  0  0  0  0  0  0  0  0  0  0  0
   17.0220   26.5295   -2.5909 C   0  0  0  0  0  0  0  0  0  0  0  0
   16.1303   25.5546   -2.2513 C   0  0  0  0  0  0  0  0  0  0  0  0
   18.5003   28.1609   -4.6768 H   0  0  0  0  0  0  0  0  0  0  0  0
   12.4368   21.9602    1.6616 C   0  0  0  0  0  0  0  0  0  0  0  0
   11.8762   21.1457    2.7316 C   0  0  0  0  0  0  0  0  0  0  0  0
   11.0697   21.5922    3.7306 C   0  0  0  0  0  0  0  0  0  0  0  0
   10.5838   20.7457    4.7035 C   0  0  0  0  0  0  0  0  0  0  0  0
   10.8848   19.4020    4.7223 C   0  0  0  0  0  0  0  0  0  0  0  0
   10.4166   18.5295    5.6804 O   0  0  0  0  0  0  0  0  0  0  0  0
   11.6990   18.9385    3.7181 C   0  0  0  0  0  0  0  0  0  0  0  0
   12.1845   19.7893    2.7434 C   0  0  0  0  0  0  0  0  0  0  0  0
   10.9912   18.4119    6.5136 H   0  0  0  0  0  0  0  0  0  0  0  0
 17 18  1  0  0  0
 18 15  1  0  0  0
 15 16  1  0  0  0
 15 10  1  0  0  0
 10  6  1  0  0  0
  6  7  1  0  0  0
  7  8  2  0  0  0
  7  5  1  0  0  0
  5 19  1  0  0  0
 19 20  1  0  0  0
 20 21  2  0  0  0
 21 22  1  0  0  0
 22 23  2  0  0  0
 23 24  1  0  0  0
 23 25  1  0  0  0
 25 26  2  0  0  0
  5  1  1  0  0  0
  1  2  1  0  0  0
  2  3  2  0  0  0
  2 28  1  0  0  0
 28 46  1  0  0  0
 46 47  1  0  0  0
 47 48  2  0  0  0
 48 49  1  0  0  0
 49 50  2  0  0  0
 50 51  1  0  0  0
 50 52  1  0  0  0
 52 53  2  0  0  0
 28 29  1  0  0  0
 29 30  1  0  0  0
 30 31  2  0  0  0
 30 33  1  0  0  0
 33 34  1  0  0  0
 33 37  1  0  0  0
 37 38  1  0  0  0
 38 39  2  0  0  0
 39 40  1  0  0  0
 40 41  2  0  0  0
 41 42  1  0  0  0
 41 43  1  0  0  0
 43 44  2  0  0  0
 10 11  1  0  0  0
 11 12  1  0  0  0
 11 13  2  0  0  0
 26 20  1  0  0  0
 53 47  1  0  0  0
 44 38  1  0  0  0
  6  9  1  0  0  0
 24 27  1  0  0  0
  1  4  1  0  0  0
 51 54  1  0  0  0
 29 32  1  0  0  0
 34 35  1  0  0  0
 34 36  1  0  0  0
 42 45  1  0  0  0
 12 14  1  0  0  0
M  END
> <minimizedAffinity>
-9.13335

> <CNNscore>
0.2661019266

> <CNNaffinity>
7.1800942421

> <CNN_VS>
1.9106369019

> <CNNaffinity_variance>
0.1870114952

$$$$
[H]OC(=O)[C@@]([H])(N([H])C(=O)[C@@]([H])(N([H])C(=O)[C@@]([H])(N([H])C(=O)[C@@]([H])(N([H])[H])C([H])([H])c1c([H])c([H])c(O[H])c([H])c1[H])C([H])([H])c1c([H])c([H])c(O[H])c([H])c1[H])C([H])([H])c1c([H])c([H])c(O[H])c([H])c1[H])[C@@]([H])(C([H])([H])[H])C([H])([H])C([H])([H])[H]


 54 56  0  0  0  0  0  0  0  0999 V2000
   12.4439   21.6251   -0.6372 N   0  0  0  0  0  0  0  0  0  0  0  0
   11.8247   21.0812    0.5061 C   0  0  0  0  0  0  0  0  0  0  0  0
   12.5314   20.5766    1.4057 O   0  0  0  0  0  0  0  0  0  0  0  0
   11.8987   22.0814   -1.3971 H   0  0  0  0  0  0  0  0  0  0  0  0
   13.9139   21.5920   -0.8155 C   0  0  0  0  0  0  0  0  0  0  0  0
   14.5468   23.8753   -0.0018 N   0  0  0  0  0  0  0  0  0  0  0  0
   14.5663   22.4795    0.1075 C   0  0  0  0  0  0  0  0  0  0  0  0
   15.2215   21.9911    1.0896 O   0  0  0  0  0  0  0  0  0  0  0  0
   13.9964   24.3286   -0.7488 H   0  0  0  0  0  0  0  0  0  0  0  0
   15.2780   24.7911    0.9089 C   0  0  0  0  0  0  0  0  0  0  0  0
   14.4505   25.9455    1.1871 C   0  0  0  0  0  0  0  0  0  0  0  0
   13.1033   25.9730    0.7249 O   0  0  0  0  0  0  0  0  0  0  0  0
   14.7824   26.9688    1.8053 O   0  0  0  0  0  0  0  0  0  0  0  0
   12.3690   26.4285    1.2448 H   0  0  0  0  0  0  0  0  0  0  0  0
   16.5930   25.0006    0.2570 C   0  0  0  0  0  0  0  0  0  0  0  0
   17.7332   24.2200    0.9288 C   0  0  0  0  0  0  0  0  0  0  0  0
   16.8915   26.3266   -1.8644 C   0  0  0  0  0  0  0  0  0  0  0  0
   16.7447   24.9783   -1.2028 C   0  0  0  0  0  0  0  0  0  0  0  0
   14.1898   21.5925   -2.2514 C   0  0  0  0  0  0  0  0  0  0  0  0
   14.3822   22.8584   -2.9564 C   0  0  0  0  0  0  0  0  0  0  0  0
   13.6247   23.9575   -2.6382 C   0  0  0  0  0  0  0  0  0  0  0  0
   13.8027   25.1428   -3.2833 C   0  0  0  0  0  0  0  0  0  0  0  0
   14.7636   25.2500   -4.2800 C   0  0  0  0  0  0  0  0  0  0  0  0
   14.9229   26.4690   -4.9206 O   0  0  0  0  0  0  0  0  0  0  0  0
   15.5210   24.1366   -4.5915 C   0  0  0  0  0  0  0  0  0  0  0  0
   15.3392   22.9500   -3.9422 C   0  0  0  0  0  0  0  0  0  0  0  0
   14.3699   26.6550   -5.7605 H   0  0  0  0  0  0  0  0  0  0  0  0
   10.3454   21.0677    0.7233 C   0  0  0  0  0  0  0  0  0  0  0  0
   10.0457   22.0461    1.7307 N   0  0  0  0  0  0  0  0  0  0  0  0
    9.4561   21.8003    3.0055 C   0  0  0  0  0  0  0  0  0  0  0  0
    9.1768   20.6111    3.2611 O   0  0  0  0  0  0  0  0  0  0  0  0
   10.2885   23.0500    1.4992 H   0  0  0  0  0  0  0  0  0  0  0  0
    9.1904   22.8783    3.9686 C   0  0  0  0  0  0  0  0  0  0  0  0
    9.6590   22.5232    5.3118 N   0  0  0  0  0  0  0  0  0  0  0  0
   10.6947   22.3375    5.2069 H   0  0  0  0  0  0  0  0  0  0  0  0
    9.2136   21.6734    5.6801 H   0  0  0  0  0  0  0  0  0  0  0  0
    9.5335   24.2563    3.5581 C   0  0  0  0  0  0  0  0  0  0  0  0
    8.4937   25.2822    3.7353 C   0  0  0  0  0  0  0  0  0  0  0  0
    7.1803   24.9404    4.0207 C   0  0  0  0  0  0  0  0  0  0  0  0
    6.2108   25.9245    4.1637 C   0  0  0  0  0  0  0  0  0  0  0  0
    6.4863   27.2687    4.0338 C   0  0  0  0  0  0  0  0  0  0  0  0
    5.5117   28.2472    4.1772 O   0  0  0  0  0  0  0  0  0  0  0  0
    7.7979   27.5987    3.7493 C   0  0  0  0  0  0  0  0  0  0  0  0
    8.7498   26.6318    3.6089 C   0  0  0  0  0  0  0  0  0  0  0  0
    4.9534   28.5902    3.3974 H   0  0  0  0  0  0  0  0  0  0  0  0
    9.6016   21.2918   -0.5252 C   0  0  0  0  0  0  0  0  0  0  0  0
    8.3352   20.5924   -0.6974 C   0  0  0  0  0  0  0  0  0  0  0  0
    7.3226   20.5483    0.2084 C   0  0  0  0  0  0  0  0  0  0  0  0
    6.1554   19.8596   -0.0417 C   0  0  0  0  0  0  0  0  0  0  0  0
    5.9454   19.1773   -1.2193 C   0  0  0  0  0  0  0  0  0  0  0  0
    4.7914   18.4787   -1.5000 O   0  0  0  0  0  0  0  0  0  0  0  0
    6.9612   19.2142   -2.1427 C   0  0  0  0  0  0  0  0  0  0  0  0
    8.1305   19.9060   -1.8898 C   0  0  0  0  0  0  0  0  0  0  0  0
    4.7698   17.4986   -1.2226 H   0  0  0  0  0  0  0  0  0  0  0  0
 17 18  1  0  0  0
 18 15  1  0  0  0
 15 16  1  0  0  0
 15 10  1  0  0  0
 10  6  1  0  0  0
  6  7  1  0  0  0
  7  8  2  0  0  0
  7  5  1  0  0  0
  5 19  1  0  0  0
 19 20  1  0  0  0
 20 21  2  0  0  0
 21 22  1  0  0  0
 22 23  2  0  0  0
 23 24  1  0  0  0
 23 25  1  0  0  0
 25 26  2  0  0  0
  5  1  1  0  0  0
  1  2  1  0  0  0
  2  3  2  0  0  0
  2 28  1  0  0  0
 28 46  1  0  0  0
 46 47  1  0  0  0
 47 48  2  0  0  0
 48 49  1  0  0  0
 49 50  2  0  0  0
 50 51  1  0  0  0
 50 52  1  0  0  0
 52 53  2  0  0  0
 28 29  1  0  0  0
 29 30  1  0  0  0
 30 31  2  0  0  0
 30 33  1  0  0  0
 33 34  1  0  0  0
 33 37  1  0  0  0
 37 38  1  0  0  0
 38 39  2  0  0  0
 39 40  1  0  0  0
 40 41  2  0  0  0
 41 42  1  0  0  0
 41 43  1  0  0  0
 43 44  2  0  0  0
 10 11  1  0  0  0
 11 12  1  0  0  0
 11 13  2  0  0  0
 26 20  1  0  0  0
 53 47  1  0  0  0
 44 38  1  0  0  0
  6  9  1  0  0  0
 24 27  1  0  0  0
  1  4  1  0  0  0
 51 54  1  0  0  0
 29 32  1  0  0  0
 34 35  1  0  0  0
 34 36  1  0  0  0
 42 45  1  0  0  0
 12 14  1  0  0  0
M  END
> <minimizedAffinity>
-6.54195

> <CNNscore>
0.2587225735

> <CNNaffinity>
7.1149597168

> <CNN_VS>
1.8408006430

> <CNNaffinity_variance>
0.0567892380

$$$$
[H]OC(=O)[C@@]([H])(N([H])C(=O)[C@@]([H])(N([H])C(=O)[C@@]([H])(N([H])C(=O)[C@@]([H])(N([H])[H])C([H])([H])c1c([H])c([H])c(O[H])c([H])c1[H])C([H])([H])c1c([H])c([H])c(O[H])c([H])c1[H])C([H])([H])c1c([H])c([H])c(O[H])c([H])c1[H])[C@@]([H])(C([H])([H])[H])C([H])([H])C([H])([H])[H]


 54 56  0  0  0  0  0  0  0  0999 V2000
    9.5015   22.2413   -0.2366 N   0  0  0  0  0  0  0  0  0  0  0  0
    9.4957   22.7092    1.0929 C   0  0  0  0  0  0  0  0  0  0  0  0
    9.0223   21.9858    1.9962 O   0  0  0  0  0  0  0  0  0  0  0  0
    9.9114   22.7955   -1.0161 H   0  0  0  0  0  0  0  0  0  0  0  0
    8.9360   20.9211   -0.5989 C   0  0  0  0  0  0  0  0  0  0  0  0
    6.9576   19.6703    0.2942 N   0  0  0  0  0  0  0  0  0  0  0  0
    7.5535   20.8293   -0.2178 C   0  0  0  0  0  0  0  0  0  0  0  0
    6.7964   21.8491   -0.3562 O   0  0  0  0  0  0  0  0  0  0  0  0
    7.5294   18.8285    0.4703 H   0  0  0  0  0  0  0  0  0  0  0  0
    5.5149   19.5520    0.6218 C   0  0  0  0  0  0  0  0  0  0  0  0
    5.3366   19.7148    2.0489 C   0  0  0  0  0  0  0  0  0  0  0  0
    6.1094   18.9260    2.9488 O   0  0  0  0  0  0  0  0  0  0  0  0
    4.5539   20.4910    2.6184 O   0  0  0  0  0  0  0  0  0  0  0  0
    6.4154   19.2796    3.8422 H   0  0  0  0  0  0  0  0  0  0  0  0
    5.0888   18.2783   -0.0062 C   0  0  0  0  0  0  0  0  0  0  0  0
    4.5468   18.4580   -1.4326 C   0  0  0  0  0  0  0  0  0  0  0  0
    5.5405   16.1150    1.2037 C   0  0  0  0  0  0  0  0  0  0  0  0
    5.9033   17.0607    0.0850 C   0  0  0  0  0  0  0  0  0  0  0  0
    9.9264   19.9016   -0.2556 C   0  0  0  0  0  0  0  0  0  0  0  0
   11.2797   20.2996    0.1275 C   0  0  0  0  0  0  0  0  0  0  0  0
   11.6569   20.3131    1.4469 C   0  0  0  0  0  0  0  0  0  0  0  0
   12.9174   20.6739    1.8124 C   0  0  0  0  0  0  0  0  0  0  0  0
   13.8422   21.0352    0.8416 C   0  0  0  0  0  0  0  0  0  0  0  0
   15.1184   21.3986    1.2426 O   0  0  0  0  0  0  0  0  0  0  0  0
   13.4512   21.0173   -0.4840 C   0  0  0  0  0  0  0  0  0  0  0  0
   12.1862   20.6548   -0.8461 C   0  0  0  0  0  0  0  0  0  0  0  0
   15.3033   22.3829    1.4497 H   0  0  0  0  0  0  0  0  0  0  0  0
   10.0313   24.0422    1.5074 C   0  0  0  0  0  0  0  0  0  0  0  0
    9.5145   24.3296    2.8160 N   0  0  0  0  0  0  0  0  0  0  0  0
    8.2182   24.8367    3.1253 C   0  0  0  0  0  0  0  0  0  0  0  0
    7.4649   25.0479    2.1529 O   0  0  0  0  0  0  0  0  0  0  0  0
   10.1651   24.1452    3.6303 H   0  0  0  0  0  0  0  0  0  0  0  0
    7.7859   25.0972    4.5057 C   0  0  0  0  0  0  0  0  0  0  0  0
    8.4722   24.2169    5.4564 N   0  0  0  0  0  0  0  0  0  0  0  0
    9.5031   24.4123    5.3248 H   0  0  0  0  0  0  0  0  0  0  0  0
    8.3058   23.2197    5.2715 H   0  0  0  0  0  0  0  0  0  0  0  0
    7.7121   26.5083    4.9399 C   0  0  0  0  0  0  0  0  0  0  0  0
    6.8769   27.4107    4.1318 C   0  0  0  0  0  0  0  0  0  0  0  0
    5.4921   27.3484    4.1747 C   0  0  0  0  0  0  0  0  0  0  0  0
    4.7235   28.1962    3.3878 C   0  0  0  0  0  0  0  0  0  0  0  0
    5.2749   29.1290    2.5361 C   0  0  0  0  0  0  0  0  0  0  0  0
    4.5003   29.9729    1.7516 O   0  0  0  0  0  0  0  0  0  0  0  0
    6.6555   29.1831    2.5008 C   0  0  0  0  0  0  0  0  0  0  0  0
    7.4101   28.3502    3.2738 C   0  0  0  0  0  0  0  0  0  0  0  0
    4.1979   29.7299    0.8098 H   0  0  0  0  0  0  0  0  0  0  0  0
   11.5000   24.0883    1.4540 C   0  0  0  0  0  0  0  0  0  0  0  0
   12.1231   24.4746    0.1950 C   0  0  0  0  0  0  0  0  0  0  0  0
   11.4664   24.8602   -0.9309 C   0  0  0  0  0  0  0  0  0  0  0  0
   12.1414   25.2103   -2.0803 C   0  0  0  0  0  0  0  0  0  0  0  0
   13.5162   25.1905   -2.1572 C   0  0  0  0  0  0  0  0  0  0  0  0
   14.2211   25.5332   -3.2904 O   0  0  0  0  0  0  0  0  0  0  0  0
   14.1914   24.8025   -1.0260 C   0  0  0  0  0  0  0  0  0  0  0  0
   13.5122   24.4525    0.1255 C   0  0  0  0  0  0  0  0  0  0  0  0
   14.4256   24.7823   -3.9479 H   0  0  0  0  0  0  0  0  0  0  0  0
 17 18  1  0  0  0
 18 15  1  0  0  0
 15 16  1  0  0  0
 15 10  1  0  0  0
 10  6  1  0  0  0
  6  7  1  0  0  0
  7  8  2  0  0  0
  7  5  1  0  0  0
  5 19  1  0  0  0
 19 20  1  0  0  0
 20 21  2  0  0  0
 21 22  1  0  0  0
 22 23  2  0  0  0
 23 24  1  0  0  0
 23 25  1  0  0  0
 25 26  2  0  0  0
  5  1  1  0  0  0
  1  2  1  0  0  0
  2  3  2  0  0  0
  2 28  1  0  0  0
 28 46  1  0  0  0
 46 47  1  0  0  0
 47 48  2  0  0  0
 48 49  1  0  0  0
 49 50  2  0  0  0
 50 51  1  0  0  0
 50 52  1  0  0  0
 52 53  2  0  0  0
 28 29  1  0  0  0
 29 30  1  0  0  0
 30 31  2  0  0  0
 30 33  1  0  0  0
 33 34  1  0  0  0
 33 37  1  0  0  0
 37 38  1  0  0  0
 38 39  2  0  0  0
 39 40  1  0  0  0
 40 41  2  0  0  0
 41 42  1  0  0  0
 41 43  1  0  0  0
 43 44  2  0  0  0
 10 11  1  0  0  0
 11 12  1  0  0  0
 11 13  2  0  0  0
 26 20  1  0  0  0
 53 47  1  0  0  0
 44 38  1  0  0  0
  6  9  1  0  0  0
 24 27  1  0  0  0
  1  4  1  0  0  0
 51 54  1  0  0  0
 29 32  1  0  0  0
 34 35  1  0  0  0
 34 36  1  0  0  0
 42 45  1  0  0  0
 12 14  1  0  0  0
M  END
> <minimizedAffinity>
-8.58285

> <CNNscore>
0.2541534901

> <CNNaffinity>
7.2145166397

> <CNN_VS>
1.8335945606

> <CNNaffinity_variance>
0.0161189549

$$$$
[H]OC(=O)[C@@]([H])(N([H])C(=O)[C@@]([H])(N([H])C(=O)[C@@]([H])(N([H])C(=O)[C@@]([H])(N([H])[H])C([H])([H])c1c([H])c([H])c(O[H])c([H])c1[H])C([H])([H])c1c([H])c([H])c(O[H])c([H])c1[H])C([H])([H])c1c([H])c([H])c(O[H])c([H])c1[H])[C@@]([H])(C([H])([H])[H])C([H])([H])C([H])([H])[H]


 54 56  0  0  0  0  0  0  0  0999 V2000
   10.1304   22.2359    0.2511 N   0  0  0  0  0  0  0  0  0  0  0  0
   10.4670   23.4736   -0.3332 C   0  0  0  0  0  0  0  0  0  0  0  0
   10.3129   23.6337   -1.5637 O   0  0  0  0  0  0  0  0  0  0  0  0
   10.2140   22.0666    1.2744 H   0  0  0  0  0  0  0  0  0  0  0  0
    9.6214   21.1058   -0.5599 C   0  0  0  0  0  0  0  0  0  0  0  0
    7.4801   19.8188   -0.7458 N   0  0  0  0  0  0  0  0  0  0  0  0
    8.3915   20.5953   -0.0199 C   0  0  0  0  0  0  0  0  0  0  0  0
    8.0801   20.8620    1.1902 O   0  0  0  0  0  0  0  0  0  0  0  0
    7.6987   19.5336   -1.7139 H   0  0  0  0  0  0  0  0  0  0  0  0
    6.1768   19.3502   -0.2124 C   0  0  0  0  0  0  0  0  0  0  0  0
    6.1127   17.9078   -0.3137 C   0  0  0  0  0  0  0  0  0  0  0  0
    5.2587   17.3080   -1.2835 O   0  0  0  0  0  0  0  0  0  0  0  0
    6.7355   17.0840    0.3739 O   0  0  0  0  0  0  0  0  0  0  0  0
    5.4978   16.4438   -1.7448 H   0  0  0  0  0  0  0  0  0  0  0  0
    5.1626   20.1582   -0.9312 C   0  0  0  0  0  0  0  0  0  0  0  0
    4.4980   21.2232   -0.0453 C   0  0  0  0  0  0  0  0  0  0  0  0
    4.5915   20.0698   -3.3835 C   0  0  0  0  0  0  0  0  0  0  0  0
    5.4094   20.6896   -2.2770 C   0  0  0  0  0  0  0  0  0  0  0  0
   10.7585   20.2511   -0.8981 C   0  0  0  0  0  0  0  0  0  0  0  0
   12.0707   20.5173   -0.3116 C   0  0  0  0  0  0  0  0  0  0  0  0
   12.2061   20.7061    1.0408 C   0  0  0  0  0  0  0  0  0  0  0  0
   13.4251   20.9460    1.5970 C   0  0  0  0  0  0  0  0  0  0  0  0
   14.5541   21.0019    0.7906 C   0  0  0  0  0  0  0  0  0  0  0  0
   15.7825   21.2483    1.3838 O   0  0  0  0  0  0  0  0  0  0  0  0
   14.4056   20.8097   -0.5701 C   0  0  0  0  0  0  0  0  0  0  0  0
   13.1815   20.5694   -1.1236 C   0  0  0  0  0  0  0  0  0  0  0  0
   16.0921   22.2182    1.4808 H   0  0  0  0  0  0  0  0  0  0  0  0
   11.0068   24.6366    0.4359 C   0  0  0  0  0  0  0  0  0  0  0  0
   10.5585   24.5045    1.7938 N   0  0  0  0  0  0  0  0  0  0  0  0
    9.2113   24.3428    2.2321 C   0  0  0  0  0  0  0  0  0  0  0  0
    8.3423   24.3141    1.3368 O   0  0  0  0  0  0  0  0  0  0  0  0
   11.3071   24.5306    2.5416 H   0  0  0  0  0  0  0  0  0  0  0  0
    8.8579   24.2155    3.6531 C   0  0  0  0  0  0  0  0  0  0  0  0
    9.5947   23.1203    4.2915 N   0  0  0  0  0  0  0  0  0  0  0  0
   10.6170   23.3574    4.1613 H   0  0  0  0  0  0  0  0  0  0  0  0
    9.4158   22.2080    3.8536 H   0  0  0  0  0  0  0  0  0  0  0  0
    8.8119   25.4560    4.4558 C   0  0  0  0  0  0  0  0  0  0  0  0
    7.6963   26.3785    4.1920 C   0  0  0  0  0  0  0  0  0  0  0  0
    6.3950   26.0635    4.5536 C   0  0  0  0  0  0  0  0  0  0  0  0
    5.3544   26.9404    4.2764 C   0  0  0  0  0  0  0  0  0  0  0  0
    5.5449   28.1482    3.6404 C   0  0  0  0  0  0  0  0  0  0  0  0
    4.4995   29.0198    3.3657 O   0  0  0  0  0  0  0  0  0  0  0  0
    6.8452   28.4527    3.2843 C   0  0  0  0  0  0  0  0  0  0  0  0
    7.8670   27.5911    3.5566 C   0  0  0  0  0  0  0  0  0  0  0  0
    3.9646   28.9863    2.4996 H   0  0  0  0  0  0  0  0  0  0  0  0
   12.4696   24.7393    0.3282 C   0  0  0  0  0  0  0  0  0  0  0  0
   13.0406   24.9579   -0.9942 C   0  0  0  0  0  0  0  0  0  0  0  0
   12.5805   25.8379   -1.9225 C   0  0  0  0  0  0  0  0  0  0  0  0
   13.1872   25.9783   -3.1520 C   0  0  0  0  0  0  0  0  0  0  0  0
   14.2913   25.2386   -3.5127 C   0  0  0  0  0  0  0  0  0  0  0  0
   14.9203   25.3539   -4.7332 O   0  0  0  0  0  0  0  0  0  0  0  0
   14.7657   24.3457   -2.5833 C   0  0  0  0  0  0  0  0  0  0  0  0
   14.1559   24.2072   -1.3510 C   0  0  0  0  0  0  0  0  0  0  0  0
   14.5845   24.7490   -5.4811 H   0  0  0  0  0  0  0  0  0  0  0  0
 17 18  1  0  0  0
 18 15  1  0  0  0
 15 16  1  0  0  0
 15 10  1  0  0  0
 10  6  1  0  0  0
  6  7  1  0  0  0
  7  8  2  0  0  0
  7  5  1  0  0  0
  5 19  1  0  0  0
 19 20  1  0  0  0
 20 21  2  0  0  0
 21 22  1  0  0  0
 22 23  2  0  0  0
 23 24  1  0  0  0
 23 25  1  0  0  0
 25 26  2  0  0  0
  5  1  1  0  0  0
  1  2  1  0  0  0
  2  3  2  0  0  0
  2 28  1  0  0  0
 28 46  1  0  0  0
 46 47  1  0  0  0
 47 48  2  0  0  0
 48 49  1  0  0  0
 49 50  2  0  0  0
 50 51  1  0  0  0
 50 52  1  0  0  0
 52 53  2  0  0  0
 28 29  1  0  0  0
 29 30  1  0  0  0
 30 31  2  0  0  0
 30 33  1  0  0  0
 33 34  1  0  0  0
 33 37  1  0  0  0
 37 38  1  0  0  0
 38 39  2  0  0  0
 39 40  1  0  0  0
 40 41  2  0  0  0
 41 42  1  0  0  0
 41 43  1  0  0  0
 43 44  2  0  0  0
 10 11  1  0  0  0
 11 12  1  0  0  0
 11 13  2  0  0  0
 26 20  1  0  0  0
 53 47  1  0  0  0
 44 38  1  0  0  0
  6  9  1  0  0  0
 24 27  1  0  0  0
  1  4  1  0  0  0
 51 54  1  0  0  0
 29 32  1  0  0  0
 34 35  1  0  0  0
 34 36  1  0  0  0
 42 45  1  0  0  0
 12 14  1  0  0  0
M  END
> <minimizedAffinity>
-9.61755

> <CNNscore>
0.2429465652

> <CNNaffinity>
7.2873563766

> <CNN_VS>
1.7704381943

> <CNNaffinity_variance>
0.0754562840

$$$$
[H]c1nc([H])c(N([H])c2nc(-c3c([H])c([H])c(N([H])C(=O)C([H])([H])[H])c([H])c3[H])c(C([H])([H])[H])c([H])c2[H])c(C(=O)N([H])[H])n1


 31 33  0  0  0  0  0  0  0  0999 V2000
   12.8053   23.6983   -0.8674 C   0  0  0  0  0  0  0  0  0  0  0  0
   13.9584   23.8339   -1.5490 N   0  0  0  0  0  0  0  0  0  0  0  0
   14.1234   24.7494   -2.5625 C   0  0  0  0  0  0  0  0  0  0  0  0
   13.0629   25.5437   -2.8722 C   0  0  0  0  0  0  0  0  0  0  0  0
   11.8250   25.4555   -2.2012 C   0  0  0  0  0  0  0  0  0  0  0  0
   11.7479   24.5005   -1.1904 C   0  0  0  0  0  0  0  0  0  0  0  0
   10.4568   24.3750   -0.4879 C   0  0  0  0  0  0  0  0  0  0  0  0
   12.2318   20.8746    2.3005 C   0  0  0  0  0  0  0  0  0  0  0  0
   11.5294   22.0962    2.2205 C   0  0  0  0  0  0  0  0  0  0  0  0
   11.7349   22.9866    1.2023 C   0  0  0  0  0  0  0  0  0  0  0  0
   12.6654   22.7051    0.1924 C   0  0  0  0  0  0  0  0  0  0  0  0
   13.3275   21.5300    0.2871 C   0  0  0  0  0  0  0  0  0  0  0  0
   13.1385   20.5970    1.3191 C   0  0  0  0  0  0  0  0  0  0  0  0
   10.8442   18.7676    5.2295 C   0  0  0  0  0  0  0  0  0  0  0  0
   10.8363   19.7931    4.1238 C   0  0  0  0  0  0  0  0  0  0  0  0
    9.7712   20.4029    3.9627 O   0  0  0  0  0  0  0  0  0  0  0  0
   11.9815   19.9922    3.3723 N   0  0  0  0  0  0  0  0  0  0  0  0
   12.8223   19.3717    3.6500 H   0  0  0  0  0  0  0  0  0  0  0  0
   15.3802   24.8792   -3.1925 N   0  0  0  0  0  0  0  0  0  0  0  0
   15.7671   23.9359   -3.5524 H   0  0  0  0  0  0  0  0  0  0  0  0
   16.1614   25.9811   -3.4654 C   0  0  0  0  0  0  0  0  0  0  0  0
   17.0801   26.4476   -2.5465 C   0  0  0  0  0  0  0  0  0  0  0  0
   17.7558   27.6066   -2.7640 N   0  0  0  0  0  0  0  0  0  0  0  0
   17.5687   28.3374   -3.8527 C   0  0  0  0  0  0  0  0  0  0  0  0
   16.6836   27.9031   -4.7541 N   0  0  0  0  0  0  0  0  0  0  0  0
   15.9664   26.7376   -4.5976 C   0  0  0  0  0  0  0  0  0  0  0  0
   15.1131   26.4186   -5.7094 C   0  0  0  0  0  0  0  0  0  0  0  0
   15.4801   25.4738   -6.7157 N   0  0  0  0  0  0  0  0  0  0  0  0
   13.9951   26.9597   -5.8504 O   0  0  0  0  0  0  0  0  0  0  0  0
   16.3046   25.6792   -7.2982 H   0  0  0  0  0  0  0  0  0  0  0  0
   14.9274   24.6145   -6.8454 H   0  0  0  0  0  0  0  0  0  0  0  0
 14 15  1  0  0  0
 15 16  2  0  0  0
 15 17  1  0  0  0
 17  8  1  0  0  0
  8  9  2  0  0  0
  9 10  1  0  0  0
 10 11  2  0  0  0
 11 12  1  0  0  0
 12 13  2  0  0  0
 11  1  1  0  0  0
  1  2  2  0  0  0
  2  3  1  0  0  0
  3 19  1  0  0  0
 19 21  1  0  0  0
 21 22  2  0  0  0
 22 23  1  0  0  0
 23 24  2  0  0  0
 24 25  1  0  0  0
 25 26  2  0  0  0
 26 27  1  0  0  0
 27 28  1  0  0  0
 27 29  2  0  0  0
  3  4  2  0  0  0
  4  5  1  0  0  0
  5  6  2  0  0  0
  6  7  1  0  0  0
 13  8  1  0  0  0
  6  1  1  0  0  0
 26 21  1  0  0  0
 17 18  1  0  0  0
 19 20  1  0  0  0
 28 30  1  0  0  0
 28 31  1  0  0  0
M  END
> <minimizedAffinity>
-7.79786

> <CNNscore>
0.3991757035

> <CNNaffinity>
7.0920014381

> <CNN_VS>
2.8309545517

> <CNNaffinity_variance>
0.2172826082

$$$$
[H]c1nc([H])c(N([H])c2nc(-c3c([H])c([H])c(N([H])C(=O)C([H])([H])[H])c([H])c3[H])c(C([H])([H])[H])c([H])c2[H])c(C(=O)N([H])[H])n1


 31 33  0  0  0  0  0  0  0  0999 V2000
   13.7650   22.8460    0.0493 C   0  0  0  0  0  0  0  0  0  0  0  0
   14.1931   24.0468   -0.3836 N   0  0  0  0  0  0  0  0  0  0  0  0
   15.5065   24.4470   -0.2966 C   0  0  0  0  0  0  0  0  0  0  0  0
   16.3951   23.5753    0.2526 C   0  0  0  0  0  0  0  0  0  0  0  0
   16.0169   22.3020    0.7280 C   0  0  0  0  0  0  0  0  0  0  0  0
   14.6676   21.9815    0.6008 C   0  0  0  0  0  0  0  0  0  0  0  0
   14.2438   20.6635    1.1098 C   0  0  0  0  0  0  0  0  0  0  0  0
    9.5999   21.8633   -0.1056 C   0  0  0  0  0  0  0  0  0  0  0  0
   10.1616   22.6829    0.8969 C   0  0  0  0  0  0  0  0  0  0  0  0
   11.4972   22.9772    0.9302 C   0  0  0  0  0  0  0  0  0  0  0  0
   12.3601   22.4637   -0.0479 C   0  0  0  0  0  0  0  0  0  0  0  0
   11.8026   21.6813   -0.9993 C   0  0  0  0  0  0  0  0  0  0  0  0
   10.4368   21.3616   -1.0596 C   0  0  0  0  0  0  0  0  0  0  0  0
    6.0235   20.4028   -0.2469 C   0  0  0  0  0  0  0  0  0  0  0  0
    7.5294   20.4121   -0.3264 C   0  0  0  0  0  0  0  0  0  0  0  0
    8.0606   19.3291   -0.6040 O   0  0  0  0  0  0  0  0  0  0  0  0
    8.2158   21.5912   -0.0930 N   0  0  0  0  0  0  0  0  0  0  0  0
    7.5917   22.4439    0.1367 H   0  0  0  0  0  0  0  0  0  0  0  0
   15.8954   25.6961   -0.8275 N   0  0  0  0  0  0  0  0  0  0  0  0
   16.0800   26.4369   -0.0619 H   0  0  0  0  0  0  0  0  0  0  0  0
   16.1224   26.1139   -2.1209 C   0  0  0  0  0  0  0  0  0  0  0  0
   17.2055   26.9116   -2.4316 C   0  0  0  0  0  0  0  0  0  0  0  0
   17.3555   27.4270   -3.6801 N   0  0  0  0  0  0  0  0  0  0  0  0
   16.4818   27.1943   -4.6480 C   0  0  0  0  0  0  0  0  0  0  0  0
   15.4264   26.4248   -4.3674 N   0  0  0  0  0  0  0  0  0  0  0  0
   15.2143   25.8696   -3.1248 C   0  0  0  0  0  0  0  0  0  0  0  0
   14.0538   25.0248   -3.0487 C   0  0  0  0  0  0  0  0  0  0  0  0
   12.8031   25.4791   -2.5300 N   0  0  0  0  0  0  0  0  0  0  0  0
   14.0845   23.8372   -3.4378 O   0  0  0  0  0  0  0  0  0  0  0  0
   12.7622   25.7679   -1.5420 H   0  0  0  0  0  0  0  0  0  0  0  0
   11.9719   25.5125   -3.1374 H   0  0  0  0  0  0  0  0  0  0  0  0
 14 15  1  0  0  0
 15 16  2  0  0  0
 15 17  1  0  0  0
 17  8  1  0  0  0
  8  9  2  0  0  0
  9 10  1  0  0  0
 10 11  2  0  0  0
 11 12  1  0  0  0
 12 13  2  0  0  0
 11  1  1  0  0  0
  1  2  2  0  0  0
  2  3  1  0  0  0
  3 19  1  0  0  0
 19 21  1  0  0  0
 21 22  2  0  0  0
 22 23  1  0  0  0
 23 24  2  0  0  0
 24 25  1  0  0  0
 25 26  2  0  0  0
 26 27  1  0  0  0
 27 28  1  0  0  0
 27 29  2  0  0  0
  3  4  2  0  0  0
  4  5  1  0  0  0
  5  6  2  0  0  0
  6  7  1  0  0  0
 13  8  1  0  0  0
  6  1  1  0  0  0
 26 21  1  0  0  0
 17 18  1  0  0  0
 19 20  1  0  0  0
 28 30  1  0  0  0
 28 31  1  0  0  0
M  END
> <minimizedAffinity>
-5.45986

> <CNNscore>
0.3176157475

> <CNNaffinity>
7.0712051392

> <CNN_VS>
2.2459261417

> <CNNaffinity_variance>
0.3072253764

$$$$
[H]c1nc([H])c(N([H])c2nc(-c3c([H])c([H])c(N([H])C(=O)C([H])([H])[H])c([H])c3[H])c(C([H])([H])[H])c([H])c2[H])c(C(=O)N([H])[H])n1


 31 33  0  0  0  0  0  0  0  0999 V2000
   12.8581   23.3697   -0.8328 C   0  0  0  0  0  0  0  0  0  0  0  0
   13.0162   24.5455   -1.4693 N   0  0  0  0  0  0  0  0  0  0  0  0
   14.2449   25.1369   -1.6509 C   0  0  0  0  0  0  0  0  0  0  0  0
   15.3349   24.4876   -1.1595 C   0  0  0  0  0  0  0  0  0  0  0  0
   15.2437   23.2540   -0.4811 C   0  0  0  0  0  0  0  0  0  0  0  0
   13.9609   22.7298   -0.3422 C   0  0  0  0  0  0  0  0  0  0  0  0
   13.8374   21.4506    0.3820 C   0  0  0  0  0  0  0  0  0  0  0  0
    9.0139   21.5241   -0.4408 C   0  0  0  0  0  0  0  0  0  0  0  0
    9.8382   21.3547   -1.5739 C   0  0  0  0  0  0  0  0  0  0  0  0
   11.0601   21.9608   -1.6801 C   0  0  0  0  0  0  0  0  0  0  0  0
   11.5357   22.7813   -0.6479 C   0  0  0  0  0  0  0  0  0  0  0  0
   10.7315   22.9305    0.4287 C   0  0  0  0  0  0  0  0  0  0  0  0
    9.4736   22.3221    0.5662 C   0  0  0  0  0  0  0  0  0  0  0  0
    5.9993   19.1061   -0.3475 C   0  0  0  0  0  0  0  0  0  0  0  0
    7.4440   19.5299   -0.4324 C   0  0  0  0  0  0  0  0  0  0  0  0
    8.2683   18.6132   -0.5441 O   0  0  0  0  0  0  0  0  0  0  0  0
    7.7623   20.8760   -0.3826 N   0  0  0  0  0  0  0  0  0  0  0  0
    6.9155   21.5410   -0.2829 H   0  0  0  0  0  0  0  0  0  0  0  0
   14.3424   26.3405   -2.3826 N   0  0  0  0  0  0  0  0  0  0  0  0
   14.2020   27.2174   -1.7660 H   0  0  0  0  0  0  0  0  0  0  0  0
   14.6266   26.5893   -3.7078 C   0  0  0  0  0  0  0  0  0  0  0  0
   13.6777   26.3858   -4.6897 C   0  0  0  0  0  0  0  0  0  0  0  0
   13.9988   26.5081   -6.0046 N   0  0  0  0  0  0  0  0  0  0  0  0
   15.2215   26.8231   -6.4049 C   0  0  0  0  0  0  0  0  0  0  0  0
   16.1543   27.0238   -5.4700 N   0  0  0  0  0  0  0  0  0  0  0  0
   15.8969   26.9179   -4.1210 C   0  0  0  0  0  0  0  0  0  0  0  0
   17.0203   27.2331   -3.2816 C   0  0  0  0  0  0  0  0  0  0  0  0
   17.8816   28.3443   -3.5327 N   0  0  0  0  0  0  0  0  0  0  0  0
   17.3005   26.5408   -2.2791 O   0  0  0  0  0  0  0  0  0  0  0  0
   18.4256   28.3502   -4.4076 H   0  0  0  0  0  0  0  0  0  0  0  0
   17.9482   29.1126   -2.8500 H   0  0  0  0  0  0  0  0  0  0  0  0
 14 15  1  0  0  0
 15 16  2  0  0  0
 15 17  1  0  0  0
 17  8  1  0  0  0
  8  9  2  0  0  0
  9 10  1  0  0  0
 10 11  2  0  0  0
 11 12  1  0  0  0
 12 13  2  0  0  0
 11  1  1  0  0  0
  1  2  2  0  0  0
  2  3  1  0  0  0
  3 19  1  0  0  0
 19 21  1  0  0  0
 21 22  2  0  0  0
 22 23  1  0  0  0
 23 24  2  0  0  0
 24 25  1  0  0  0
 25 26  2  0  0  0
 26 27  1  0  0  0
 27 28  1  0  0  0
 27 29  2  0  0  0
  3  4  2  0  0  0
  4  5  1  0  0  0
  5  6  2  0  0  0
  6  7  1  0  0  0
 13  8  1  0  0  0
  6  1  1  0  0  0
 26 21  1  0  0  0
 17 18  1  0  0  0
 19 20  1  0  0  0
 28 30  1  0  0  0
 28 31  1  0  0  0
M  END
> <minimizedAffinity>
-6.36396

> <CNNscore>
0.2641712129

> <CNNaffinity>
7.0226564407

> <CNN_VS>
1.8551837206

> <CNNaffinity_variance>
0.2041895390

$$$$
[H]c1nc([H])c(N([H])c2nc(-c3c([H])c([H])c(N([H])C(=O)C([H])([H])[H])c([H])c3[H])c(C([H])([H])[H])c([H])c2[H])c(C(=O)N([H])[H])n1


 31 33  0  0  0  0  0  0  0  0999 V2000
   11.8526   21.8495    0.5546 C   0  0  0  0  0  0  0  0  0  0  0  0
   11.0083   21.0177   -0.0840 N   0  0  0  0  0  0  0  0  0  0  0  0
   10.1892   20.1324    0.5778 C   0  0  0  0  0  0  0  0  0  0  0  0
   10.2497   20.1144    1.9370 C   0  0  0  0  0  0  0  0  0  0  0  0
   11.1112   20.9563    2.6713 C   0  0  0  0  0  0  0  0  0  0  0  0
   11.9048   21.8191    1.9193 C   0  0  0  0  0  0  0  0  0  0  0  0
   12.8292   22.6950    2.6637 C   0  0  0  0  0  0  0  0  0  0  0  0
   14.2504   24.5437   -1.7541 C   0  0  0  0  0  0  0  0  0  0  0  0
   13.1236   23.8736   -2.2769 C   0  0  0  0  0  0  0  0  0  0  0  0
   12.3767   23.0111   -1.5220 C   0  0  0  0  0  0  0  0  0  0  0  0
   12.7159   22.7648   -0.1844 C   0  0  0  0  0  0  0  0  0  0  0  0
   13.7982   23.4166    0.2975 C   0  0  0  0  0  0  0  0  0  0  0  0
   14.5837   24.3066   -0.4522 C   0  0  0  0  0  0  0  0  0  0  0  0
   15.6122   27.0045   -4.4062 C   0  0  0  0  0  0  0  0  0  0  0  0
   14.6080   26.1199   -3.7109 C   0  0  0  0  0  0  0  0  0  0  0  0
   13.4812   26.0797   -4.2216 O   0  0  0  0  0  0  0  0  0  0  0  0
   14.9859   25.4227   -2.5764 N   0  0  0  0  0  0  0  0  0  0  0  0
   16.0112   25.5749   -2.2685 H   0  0  0  0  0  0  0  0  0  0  0  0
    9.2838   19.3335   -0.1538 N   0  0  0  0  0  0  0  0  0  0  0  0
    9.5219   18.2799   -0.1053 H   0  0  0  0  0  0  0  0  0  0  0  0
    8.1465   19.6501   -0.8645 C   0  0  0  0  0  0  0  0  0  0  0  0
    7.8020   18.9519   -2.0047 C   0  0  0  0  0  0  0  0  0  0  0  0
    6.7534   19.3474   -2.7734 N   0  0  0  0  0  0  0  0  0  0  0  0
    6.0200   20.4086   -2.4725 C   0  0  0  0  0  0  0  0  0  0  0  0
    6.3374   21.0980   -1.3732 N   0  0  0  0  0  0  0  0  0  0  0  0
    7.3854   20.7518   -0.5492 C   0  0  0  0  0  0  0  0  0  0  0  0
    7.5199   21.5865    0.6132 C   0  0  0  0  0  0  0  0  0  0  0  0
    8.1861   22.8494    0.5817 N   0  0  0  0  0  0  0  0  0  0  0  0
    7.0542   21.2424    1.7212 O   0  0  0  0  0  0  0  0  0  0  0  0
    9.1900   22.8641    0.3506 H   0  0  0  0  0  0  0  0  0  0  0  0
    7.6661   23.7145    0.7863 H   0  0  0  0  0  0  0  0  0  0  0  0
 14 15  1  0  0  0
 15 16  2  0  0  0
 15 17  1  0  0  0
 17  8  1  0  0  0
  8  9  2  0  0  0
  9 10  1  0  0  0
 10 11  2  0  0  0
 11 12  1  0  0  0
 12 13  2  0  0  0
 11  1  1  0  0  0
  1  2  2  0  0  0
  2  3  1  0  0  0
  3 19  1  0  0  0
 19 21  1  0  0  0
 21 22  2  0  0  0
 22 23  1  0  0  0
 23 24  2  0  0  0
 24 25  1  0  0  0
 25 26  2  0  0  0
 26 27  1  0  0  0
 27 28  1  0  0  0
 27 29  2  0  0  0
  3  4  2  0  0  0
  4  5  1  0  0  0
  5  6  2  0  0  0
  6  7  1  0  0  0
 13  8  1  0  0  0
  6  1  1  0  0  0
 26 21  1  0  0  0
 17 18  1  0  0  0
 19 20  1  0  0  0
 28 30  1  0  0  0
 28 31  1  0  0  0
M  END
> <minimizedAffinity>
-1.45533

> <CNNscore>
0.2481217980

> <CNNaffinity>
6.3127079010

> <CNN_VS>
1.5663204193

> <CNNaffinity_variance>
0.5503320694

$$$$
[H]c1nc([H])c(N([H])c2nc(-c3c([H])c([H])c(N([H])C(=O)C([H])([H])[H])c([H])c3[H])c(C([H])([H])[H])c([H])c2[H])c(C(=O)N([H])[H])n1


 31 33  0  0  0  0  0  0  0  0999 V2000
   14.0886   23.7646   -1.0687 C   0  0  0  0  0  0  0  0  0  0  0  0
   14.7269   24.2504   -2.1500 N   0  0  0  0  0  0  0  0  0  0  0  0
   15.9424   24.8902   -2.0747 C   0  0  0  0  0  0  0  0  0  0  0  0
   16.5074   25.0256   -0.8444 C   0  0  0  0  0  0  0  0  0  0  0  0
   15.8950   24.5426    0.3312 C   0  0  0  0  0  0  0  0  0  0  0  0
   14.6661   23.9098    0.1608 C   0  0  0  0  0  0  0  0  0  0  0  0
   13.9960   23.4143    1.3780 C   0  0  0  0  0  0  0  0  0  0  0  0
   10.3727   21.6579   -1.3713 C   0  0  0  0  0  0  0  0  0  0  0  0
   11.6233   21.0078   -1.2972 C   0  0  0  0  0  0  0  0  0  0  0  0
   12.7986   21.7025   -1.2085 C   0  0  0  0  0  0  0  0  0  0  0  0
   12.7930   23.1041   -1.1883 C   0  0  0  0  0  0  0  0  0  0  0  0
   11.5852   23.7076   -1.2599 C   0  0  0  0  0  0  0  0  0  0  0  0
   10.3632   23.0224   -1.3517 C   0  0  0  0  0  0  0  0  0  0  0  0
    7.1056   19.6564   -0.8577 C   0  0  0  0  0  0  0  0  0  0  0  0
    8.3109   20.4787   -0.4767 C   0  0  0  0  0  0  0  0  0  0  0  0
    8.4306   20.7321    0.7290 O   0  0  0  0  0  0  0  0  0  0  0  0
    9.1907   20.8932   -1.4616 N   0  0  0  0  0  0  0  0  0  0  0  0
    8.9321   20.5814   -2.4641 H   0  0  0  0  0  0  0  0  0  0  0  0
   16.5834   25.3193   -3.2573 N   0  0  0  0  0  0  0  0  0  0  0  0
   17.2117   24.5551   -3.6935 H   0  0  0  0  0  0  0  0  0  0  0  0
   16.5125   26.5003   -3.9638 C   0  0  0  0  0  0  0  0  0  0  0  0
   16.9254   27.6918   -3.4019 C   0  0  0  0  0  0  0  0  0  0  0  0
   16.7355   28.8707   -4.0509 N   0  0  0  0  0  0  0  0  0  0  0  0
   16.1518   28.9351   -5.2381 C   0  0  0  0  0  0  0  0  0  0  0  0
   15.7447   27.7930   -5.7988 N   0  0  0  0  0  0  0  0  0  0  0  0
   15.9072   26.5645   -5.1974 C   0  0  0  0  0  0  0  0  0  0  0  0
   15.4567   25.4559   -5.9937 C   0  0  0  0  0  0  0  0  0  0  0  0
   15.3566   25.5203   -7.4169 N   0  0  0  0  0  0  0  0  0  0  0  0
   15.1268   24.3689   -5.4718 O   0  0  0  0  0  0  0  0  0  0  0  0
   14.6946   26.1941   -7.8281 H   0  0  0  0  0  0  0  0  0  0  0  0
   15.9360   24.9046   -8.0052 H   0  0  0  0  0  0  0  0  0  0  0  0
 14 15  1  0  0  0
 15 16  2  0  0  0
 15 17  1  0  0  0
 17  8  1  0  0  0
  8  9  2  0  0  0
  9 10  1  0  0  0
 10 11  2  0  0  0
 11 12  1  0  0  0
 12 13  2  0  0  0
 11  1  1  0  0  0
  1  2  2  0  0  0
  2  3  1  0  0  0
  3 19  1  0  0  0
 19 21  1  0  0  0
 21 22  2  0  0  0
 22 23  1  0  0  0
 23 24  2  0  0  0
 24 25  1  0  0  0
 25 26  2  0  0  0
 26 27  1  0  0  0
 27 28  1  0  0  0
 27 29  2  0  0  0
  3  4  2  0  0  0
  4  5  1  0  0  0
  5  6  2  0  0  0
  6  7  1  0  0  0
 13  8  1  0  0  0
  6  1  1  0  0  0
 26 21  1  0  0  0
 17 18  1  0  0  0
 19 20  1  0  0  0
 28 30  1  0  0  0
 28 31  1  0  0  0
M  END
> <minimizedAffinity>
-5.40015

> <CNNscore>
0.2313401401

> <CNNaffinity>
6.8897218704

> <CNN_VS>
1.5938692093

> <CNNaffinity_variance>
0.2997411788

$$$$
[H]c1nc([H])c(N([H])c2nc(-c3c([H])c([H])c(N([H])C(=O)C([H])([H])[H])c([H])c3[H])c(C([H])([H])[H])c([H])c2[H])c(C(=O)N([H])[H])n1


 31 33  0  0  0  0  0  0  0  0999 V2000
   12.6987   23.3899   -1.0066 C   0  0  0  0  0  0  0  0  0  0  0  0
   13.1982   24.5726   -1.4121 N   0  0  0  0  0  0  0  0  0  0  0  0
   14.2974   24.6770   -2.2327 C   0  0  0  0  0  0  0  0  0  0  0  0
   14.8893   23.5223   -2.6421 C   0  0  0  0  0  0  0  0  0  0  0  0
   14.4210   22.2489   -2.2556 C   0  0  0  0  0  0  0  0  0  0  0  0
   13.3044   22.2385   -1.4232 C   0  0  0  0  0  0  0  0  0  0  0  0
   12.8083   20.9190   -0.9885 C   0  0  0  0  0  0  0  0  0  0  0  0
    9.4160   23.1893    1.7359 C   0  0  0  0  0  0  0  0  0  0  0  0
   10.7546   22.9554    2.1177 C   0  0  0  0  0  0  0  0  0  0  0  0
   11.7866   23.0177    1.2217 C   0  0  0  0  0  0  0  0  0  0  0  0
   11.5387   23.3212   -0.1242 C   0  0  0  0  0  0  0  0  0  0  0  0
   10.2502   23.5421   -0.4694 C   0  0  0  0  0  0  0  0  0  0  0  0
    9.1707   23.4851    0.4265 C   0  0  0  0  0  0  0  0  0  0  0  0
    6.6881   22.2194    4.2974 C   0  0  0  0  0  0  0  0  0  0  0  0
    7.7764   22.0118    3.2744 C   0  0  0  0  0  0  0  0  0  0  0  0
    8.0521   20.8337    3.0130 O   0  0  0  0  0  0  0  0  0  0  0  0
    8.3895   23.1121    2.7004 N   0  0  0  0  0  0  0  0  0  0  0  0
    8.0239   24.0692    3.0459 H   0  0  0  0  0  0  0  0  0  0  0  0
   14.7288   25.9488   -2.6684 N   0  0  0  0  0  0  0  0  0  0  0  0
   14.9911   26.6046   -1.8499 H   0  0  0  0  0  0  0  0  0  0  0  0
   14.9155   26.4732   -3.9290 C   0  0  0  0  0  0  0  0  0  0  0  0
   13.9700   26.2989   -4.9198 C   0  0  0  0  0  0  0  0  0  0  0  0
   14.2133   26.7046   -6.1938 N   0  0  0  0  0  0  0  0  0  0  0  0
   15.3543   27.2786   -6.5446 C   0  0  0  0  0  0  0  0  0  0  0  0
   16.2824   27.4561   -5.6003 N   0  0  0  0  0  0  0  0  0  0  0  0
   16.1008   27.0704   -4.2905 C   0  0  0  0  0  0  0  0  0  0  0  0
   17.1952   27.4068   -3.4215 C   0  0  0  0  0  0  0  0  0  0  0  0
   18.1394   28.4320   -3.7334 N   0  0  0  0  0  0  0  0  0  0  0  0
   17.3750   26.8104   -2.3376 O   0  0  0  0  0  0  0  0  0  0  0  0
   18.7292   28.3121   -4.5695 H   0  0  0  0  0  0  0  0  0  0  0  0
   18.2187   29.2636   -3.1310 H   0  0  0  0  0  0  0  0  0  0  0  0
 14 15  1  0  0  0
 15 16  2  0  0  0
 15 17  1  0  0  0
 17  8  1  0  0  0
  8  9  2  0  0  0
  9 10  1  0  0  0
 10 11  2  0  0  0
 11 12  1  0  0  0
 12 13  2  0  0  0
 11  1  1  0  0  0
  1  2  2  0  0  0
  2  3  1  0  0  0
  3 19  1  0  0  0
 19 21  1  0  0  0
 21 22  2  0  0  0
 22 23  1  0  0  0
 23 24  2  0  0  0
 24 25  1  0  0  0
 25 26  2  0  0  0
 26 27  1  0  0  0
 27 28  1  0  0  0
 27 29  2  0  0  0
  3  4  2  0  0  0
  4  5  1  0  0  0
  5  6  2  0  0  0
  6  7  1  0  0  0
 13  8  1  0  0  0
  6  1  1  0  0  0
 26 21  1  0  0  0
 17 18  1  0  0  0
 19 20  1  0  0  0
 28 30  1  0  0  0
 28 31  1  0  0  0
M  END
> <minimizedAffinity>
-7.96426

> <CNNscore>
0.2312628180

> <CNNaffinity>
6.7786664963

> <CNN_VS>
1.5676535368

> <CNNaffinity_variance>
0.1219717115

$$$$
[H]c1nc([H])c(N([H])c2nc(-c3c([H])c([H])c(N([H])C(=O)C([H])([H])[H])c([H])c3[H])c(C([H])([H])[H])c([H])c2[H])c(C(=O)N([H])[H])n1


 31 33  0  0  0  0  0  0  0  0999 V2000
   12.6906   23.1038   -1.1597 C   0  0  0  0  0  0  0  0  0  0  0  0
   13.1404   24.0308   -2.0262 N   0  0  0  0  0  0  0  0  0  0  0  0
   14.2481   23.8370   -2.8186 C   0  0  0  0  0  0  0  0  0  0  0  0
   14.9017   22.6489   -2.7072 C   0  0  0  0  0  0  0  0  0  0  0  0
   14.4877   21.6332   -1.8199 C   0  0  0  0  0  0  0  0  0  0  0  0
   13.3579   21.9163   -1.0562 C   0  0  0  0  0  0  0  0  0  0  0  0
   12.9175   20.8777   -0.1058 C   0  0  0  0  0  0  0  0  0  0  0  0
    9.3431   23.9926    1.3587 C   0  0  0  0  0  0  0  0  0  0  0  0
   10.6067   24.6023    1.5127 C   0  0  0  0  0  0  0  0  0  0  0  0
   11.6642   24.2967    0.7003 C   0  0  0  0  0  0  0  0  0  0  0  0
   11.5193   23.3528   -0.3259 C   0  0  0  0  0  0  0  0  0  0  0  0
   10.3013   22.7806   -0.4570 C   0  0  0  0  0  0  0  0  0  0  0  0
    9.1981   23.0733    0.3606 C   0  0  0  0  0  0  0  0  0  0  0  0
    6.8586   24.5837    4.2606 C   0  0  0  0  0  0  0  0  0  0  0  0
    8.1017   24.0810    3.5706 C   0  0  0  0  0  0  0  0  0  0  0  0
    8.8935   23.4484    4.2813 O   0  0  0  0  0  0  0  0  0  0  0  0
    8.2863   24.3442    2.2243 N   0  0  0  0  0  0  0  0  0  0  0  0
    7.4926   24.9115    1.7580 H   0  0  0  0  0  0  0  0  0  0  0  0
   14.6263   24.8287   -3.7497 N   0  0  0  0  0  0  0  0  0  0  0  0
   13.9848   24.8520   -4.6197 H   0  0  0  0  0  0  0  0  0  0  0  0
   15.6198   25.7833   -3.7223 C   0  0  0  0  0  0  0  0  0  0  0  0
   16.4120   25.9543   -2.6046 C   0  0  0  0  0  0  0  0  0  0  0  0
   17.3024   26.9785   -2.5321 N   0  0  0  0  0  0  0  0  0  0  0  0
   17.4521   27.8527   -3.5159 C   0  0  0  0  0  0  0  0  0  0  0  0
   16.6945   27.7046   -4.6061 N   0  0  0  0  0  0  0  0  0  0  0  0
   15.7744   26.6892   -4.7458 C   0  0  0  0  0  0  0  0  0  0  0  0
   15.1071   26.6716   -6.0187 C   0  0  0  0  0  0  0  0  0  0  0  0
   15.7614   26.2794   -7.2261 N   0  0  0  0  0  0  0  0  0  0  0  0
   13.9069   27.0030   -6.1311 O   0  0  0  0  0  0  0  0  0  0  0  0
   16.5560   26.8466   -7.5552 H   0  0  0  0  0  0  0  0  0  0  0  0
   15.4382   25.4501   -7.7445 H   0  0  0  0  0  0  0  0  0  0  0  0
 14 15  1  0  0  0
 15 16  2  0  0  0
 15 17  1  0  0  0
 17  8  1  0  0  0
  8  9  2  0  0  0
  9 10  1  0  0  0
 10 11  2  0  0  0
 11 12  1  0  0  0
 12 13  2  0  0  0
 11  1  1  0  0  0
  1  2  2  0  0  0
  2  3  1  0  0  0
  3 19  1  0  0  0
 19 21  1  0  0  0
 21 22  2  0  0  0
 22 23  1  0  0  0
 23 24  2  0  0  0
 24 25  1  0  0  0
 25 26  2  0  0  0
 26 27  1  0  0  0
 27 28  1  0  0  0
 27 29  2  0  0  0
  3  4  2  0  0  0
  4  5  1  0  0  0
  5  6  2  0  0  0
  6  7  1  0  0  0
 13  8  1  0  0  0
  6  1  1  0  0  0
 26 21  1  0  0  0
 17 18  1  0  0  0
 19 20  1  0  0  0
 28 30  1  0  0  0
 28 31  1  0  0  0
M  END
> <minimizedAffinity>
-8.78522

> <CNNscore>
0.2050046474

> <CNNaffinity>
6.8447852135

> <CNN_VS>
1.4032127857

> <CNNaffinity_variance>
0.2160342932

$$$$
[H]c1nc([H])c(N([H])c2nc(-c3c([H])c([H])c(N([H])C(=O)C([H])([H])[H])c([H])c3[H])c(C([H])([H])[H])c([H])c2[H])c(C(=O)N([H])[H])n1


 31 33  0  0  0  0  0  0  0  0999 V2000
   12.1434   22.9000    0.1333 C   0  0  0  0  0  0  0  0  0  0  0  0
   11.4454   23.4274    1.1568 N   0  0  0  0  0  0  0  0  0  0  0  0
   10.7467   22.6587    2.0587 C   0  0  0  0  0  0  0  0  0  0  0  0
   10.7772   21.3087    1.8918 C   0  0  0  0  0  0  0  0  0  0  0  0
   11.4862   20.6878    0.8420 C   0  0  0  0  0  0  0  0  0  0  0  0
   12.1633   21.5432   -0.0238 C   0  0  0  0  0  0  0  0  0  0  0  0
   12.8952   20.9187   -1.1420 C   0  0  0  0  0  0  0  0  0  0  0  0
   14.0875   25.5059   -2.6537 C   0  0  0  0  0  0  0  0  0  0  0  0
   12.6927   25.5111   -2.4377 C   0  0  0  0  0  0  0  0  0  0  0  0
   12.0927   24.6636   -1.5469 C   0  0  0  0  0  0  0  0  0  0  0  0
   12.8605   23.7504   -0.8110 C   0  0  0  0  0  0  0  0  0  0  0  0
   14.1943   23.7615   -1.0322 C   0  0  0  0  0  0  0  0  0  0  0  0
   14.8383   24.6184   -1.9390 C   0  0  0  0  0  0  0  0  0  0  0  0
   15.7522   27.3291   -5.6283 C   0  0  0  0  0  0  0  0  0  0  0  0
   15.2100   26.1695   -4.8311 C   0  0  0  0  0  0  0  0  0  0  0  0
   15.3036   25.0574   -5.3666 O   0  0  0  0  0  0  0  0  0  0  0  0
   14.6548   26.4012   -3.5845 N   0  0  0  0  0  0  0  0  0  0  0  0
   14.6549   27.4360   -3.2710 H   0  0  0  0  0  0  0  0  0  0  0  0
   10.0878   23.2761    3.1440 N   0  0  0  0  0  0  0  0  0  0  0  0
   10.4937   22.9819    4.1020 H   0  0  0  0  0  0  0  0  0  0  0  0
    9.0710   24.2050    3.1931 C   0  0  0  0  0  0  0  0  0  0  0  0
    9.3436   25.5581    3.2177 C   0  0  0  0  0  0  0  0  0  0  0  0
    8.3480   26.4660    3.3956 N   0  0  0  0  0  0  0  0  0  0  0  0
    7.0839   26.1034    3.5534 C   0  0  0  0  0  0  0  0  0  0  0  0
    6.7994   24.7983    3.5329 N   0  0  0  0  0  0  0  0  0  0  0  0
    7.7587   23.8259    3.3554 C   0  0  0  0  0  0  0  0  0  0  0  0
    7.2367   22.4877    3.3031 C   0  0  0  0  0  0  0  0  0  0  0  0
    7.6210   21.4742    4.2330 N   0  0  0  0  0  0  0  0  0  0  0  0
    6.4111   22.1429    2.4300 O   0  0  0  0  0  0  0  0  0  0  0  0
    8.6079   21.1792    4.2508 H   0  0  0  0  0  0  0  0  0  0  0  0
    6.9211   21.0574    4.8634 H   0  0  0  0  0  0  0  0  0  0  0  0
 14 15  1  0  0  0
 15 16  2  0  0  0
 15 17  1  0  0  0
 17  8  1  0  0  0
  8  9  2  0  0  0
  9 10  1  0  0  0
 10 11  2  0  0  0
 11 12  1  0  0  0
 12 13  2  0  0  0
 11  1  1  0  0  0
  1  2  2  0  0  0
  2  3  1  0  0  0
  3 19  1  0  0  0
 19 21  1  0  0  0
 21 22  2  0  0  0
 22 23  1  0  0  0
 23 24  2  0  0  0
 24 25  1  0  0  0
 25 26  2  0  0  0
 26 27  1  0  0  0
 27 28  1  0  0  0
 27 29  2  0  0  0
  3  4  2  0  0  0
  4  5  1  0  0  0
  5  6  2  0  0  0
  6  7  1  0  0  0
 13  8  1  0  0  0
  6  1  1  0  0  0
 26 21  1  0  0  0
 17 18  1  0  0  0
 19 20  1  0  0  0
 28 30  1  0  0  0
 28 31  1  0  0  0
M  END
> <minimizedAffinity>
-8.66133

> <CNNscore>
0.1693751663

> <CNNaffinity>
6.2469015121

> <CNN_VS>
1.0580699444

> <CNNaffinity_variance>
0.1379371732

$$$$
[H]c1nc([H])c(N([H])c2nc(-c3c([H])c([H])c(N([H])C(=O)C([H])([H])[H])c([H])c3[H])c(C([H])([H])[H])c([H])c2[H])c(C(=O)N([H])[H])n1


 31 33  0  0  0  0  0  0  0  0999 V2000
   12.1290   23.0803   -0.4311 C   0  0  0  0  0  0  0  0  0  0  0  0
   12.9025   24.1196   -0.7976 N   0  0  0  0  0  0  0  0  0  0  0  0
   14.0514   23.9703   -1.5394 C   0  0  0  0  0  0  0  0  0  0  0  0
   14.4020   22.7089   -1.9098 C   0  0  0  0  0  0  0  0  0  0  0  0
   13.6403   21.5740   -1.5603 C   0  0  0  0  0  0  0  0  0  0  0  0
   12.4943   21.8190   -0.8077 C   0  0  0  0  0  0  0  0  0  0  0  0
   11.6922   20.6459   -0.4121 C   0  0  0  0  0  0  0  0  0  0  0  0
    8.7080   23.7009    2.0688 C   0  0  0  0  0  0  0  0  0  0  0  0
   10.0154   23.5436    2.5768 C   0  0  0  0  0  0  0  0  0  0  0  0
   11.0926   23.3388    1.7586 C   0  0  0  0  0  0  0  0  0  0  0  0
   10.9245   23.2786    0.3683 C   0  0  0  0  0  0  0  0  0  0  0  0
    9.6648   23.4319   -0.0983 C   0  0  0  0  0  0  0  0  0  0  0  0
    8.5404   23.6430    0.7157 C   0  0  0  0  0  0  0  0  0  0  0  0
    6.2055   24.8275    4.7912 C   0  0  0  0  0  0  0  0  0  0  0  0
    7.4806   24.8229    3.9861 C   0  0  0  0  0  0  0  0  0  0  0  0
    8.3275   25.6638    4.3142 O   0  0  0  0  0  0  0  0  0  0  0  0
    7.6324   23.9095    2.9572 N   0  0  0  0  0  0  0  0  0  0  0  0
    6.7908   23.2471    2.8082 H   0  0  0  0  0  0  0  0  0  0  0  0
   14.7802   25.1110   -1.9405 N   0  0  0  0  0  0  0  0  0  0  0  0
   15.5610   25.3758   -1.2412 H   0  0  0  0  0  0  0  0  0  0  0  0
   14.7032   25.9008   -3.0671 C   0  0  0  0  0  0  0  0  0  0  0  0
   13.5511   25.9473   -3.8265 C   0  0  0  0  0  0  0  0  0  0  0  0
   13.5203   26.6244   -5.0045 N   0  0  0  0  0  0  0  0  0  0  0  0
   14.5794   27.2640   -5.4773 C   0  0  0  0  0  0  0  0  0  0  0  0
   15.7042   27.2308   -4.7573 N   0  0  0  0  0  0  0  0  0  0  0  0
   15.8041   26.5655   -3.5555 C   0  0  0  0  0  0  0  0  0  0  0  0
   17.0814   26.7042   -2.9111 C   0  0  0  0  0  0  0  0  0  0  0  0
   18.0331   27.6981   -3.2935 N   0  0  0  0  0  0  0  0  0  0  0  0
   17.4245   25.9519   -1.9735 O   0  0  0  0  0  0  0  0  0  0  0  0
   18.4231   27.6571   -4.2462 H   0  0  0  0  0  0  0  0  0  0  0  0
   18.3136   28.4305   -2.6259 H   0  0  0  0  0  0  0  0  0  0  0  0
 14 15  1  0  0  0
 15 16  2  0  0  0
 15 17  1  0  0  0
 17  8  1  0  0  0
  8  9  2  0  0  0
  9 10  1  0  0  0
 10 11  2  0  0  0
 11 12  1  0  0  0
 12 13  2  0  0  0
 11  1  1  0  0  0
  1  2  2  0  0  0
  2  3  1  0  0  0
  3 19  1  0  0  0
 19 21  1  0  0  0
 21 22  2  0  0  0
 22 23  1  0  0  0
 23 24  2  0  0  0
 24 25  1  0  0  0
 25 26  2  0  0  0
 26 27  1  0  0  0
 27 28  1  0  0  0
 27 29  2  0  0  0
  3  4  2  0  0  0
  4  5  1  0  0  0
  5  6  2  0  0  0
  6  7  1  0  0  0
 13  8  1  0  0  0
  6  1  1  0  0  0
 26 21  1  0  0  0
 17 18  1  0  0  0
 19 20  1  0  0  0
 28 30  1  0  0  0
 28 31  1  0  0  0
M  END
> <minimizedAffinity>
-7.43289

> <CNNscore>
0.1679693162

> <CNNaffinity>
6.7015442848

> <CNN_VS>
1.1256538630

> <CNNaffinity_variance>
0.2388942540

$$$$
