[H]OC(=O)c1c([H])c([H])c(-c2c([H])c([H])c(N3C(=O)N(c4nc([H])nc(OC([H])([H])[H])c4[H])C4(C3=O)C([H])([H])C([H])([H])N(C([H])([H])c3nc([H])c([H])c([H])c3C([H])([H])[H])C([H])([H])C4([H])[H])c([H])c2[H])c([H])c1[H]


 44 49  0  0  0  0  0  0  0  0999 V2000
   12.9219   25.0401   -1.9661 N   0  0  0  0  0  0  0  0  0  0  0  0
   11.6930   24.4824   -1.5120 C   0  0  0  0  0  0  0  0  0  0  0  0
   10.6161   24.3016   -2.1652 O   0  0  0  0  0  0  0  0  0  0  0  0
   11.8104   24.1239   -0.1471 N   0  0  0  0  0  0  0  0  0  0  0  0
   13.1183   24.4585    0.2550 C   0  0  0  0  0  0  0  0  0  0  0  0
   13.5316   24.6069    1.4555 O   0  0  0  0  0  0  0  0  0  0  0  0
   13.9212   24.6047   -1.0020 C   0  0  0  0  0  0  0  0  0  0  0  0
   14.8948   25.7115   -0.8114 C   0  0  0  0  0  0  0  0  0  0  0  0
   16.2550   25.3055   -0.3688 C   0  0  0  0  0  0  0  0  0  0  0  0
   16.4259   23.9714    0.0085 N   0  0  0  0  0  0  0  0  0  0  0  0
   15.8277   22.9630   -0.7568 C   0  0  0  0  0  0  0  0  0  0  0  0
   14.5185   23.2832   -1.3765 C   0  0  0  0  0  0  0  0  0  0  0  0
   14.0892   26.5169   -5.1820 C   0  0  0  0  0  0  0  0  0  0  0  0
   14.0337   25.7100   -4.0733 C   0  0  0  0  0  0  0  0  0  0  0  0
   13.0283   25.8330   -3.1281 C   0  0  0  0  0  0  0  0  0  0  0  0
   12.1035   26.7850   -3.3499 N   0  0  0  0  0  0  0  0  0  0  0  0
   12.1259   27.5884   -4.4177 C   0  0  0  0  0  0  0  0  0  0  0  0
   13.0996   27.4507   -5.3083 N   0  0  0  0  0  0  0  0  0  0  0  0
   16.2578   27.1829   -6.0334 C   0  0  0  0  0  0  0  0  0  0  0  0
   15.0902   26.4058   -6.1362 O   0  0  0  0  0  0  0  0  0  0  0  0
   10.8061   23.5408    0.6734 C   0  0  0  0  0  0  0  0  0  0  0  0
   10.6608   22.1616    0.6820 C   0  0  0  0  0  0  0  0  0  0  0  0
    9.7056   21.5630    1.4616 C   0  0  0  0  0  0  0  0  0  0  0  0
    8.8713   22.3296    2.2525 C   0  0  0  0  0  0  0  0  0  0  0  0
    9.0287   23.6908    2.2318 C   0  0  0  0  0  0  0  0  0  0  0  0
    9.9762   24.3095    1.4607 C   0  0  0  0  0  0  0  0  0  0  0  0
    7.8751   21.6642    3.0579 C   0  0  0  0  0  0  0  0  0  0  0  0
    8.0635   21.4882    4.4025 C   0  0  0  0  0  0  0  0  0  0  0  0
    7.1144   20.8545    5.1759 C   0  0  0  0  0  0  0  0  0  0  0  0
    5.9411   20.3828    4.5843 C   0  0  0  0  0  0  0  0  0  0  0  0
    5.7553   20.5616    3.2306 C   0  0  0  0  0  0  0  0  0  0  0  0
    6.7221   21.1971    2.4934 C   0  0  0  0  0  0  0  0  0  0  0  0
    4.9272   19.7104    5.3886 C   0  0  0  0  0  0  0  0  0  0  0  0
    4.5861   18.4147    5.0545 O   0  0  0  0  0  0  0  0  0  0  0  0
    4.4067   20.3236    6.3436 O   0  0  0  0  0  0  0  0  0  0  0  0
    3.7029   18.0427    5.3837 H   0  0  0  0  0  0  0  0  0  0  0  0
   17.2324   23.6366    1.1083 C   0  0  0  0  0  0  0  0  0  0  0  0
   18.6687   23.9648    0.9243 C   0  0  0  0  0  0  0  0  0  0  0  0
   19.2809   23.8568   -0.2564 N   0  0  0  0  0  0  0  0  0  0  0  0
   20.5742   24.1391   -0.4579 C   0  0  0  0  0  0  0  0  0  0  0  0
   21.3246   24.5678    0.6149 C   0  0  0  0  0  0  0  0  0  0  0  0
   20.7614   24.6998    1.8458 C   0  0  0  0  0  0  0  0  0  0  0  0
   19.4226   24.3967    2.0061 C   0  0  0  0  0  0  0  0  0  0  0  0
   18.7483   24.5142    3.3059 C   0  0  0  0  0  0  0  0  0  0  0  0
 19 20  1  0  0  0
 20 13  1  0  0  0
 13 14  2  0  0  0
 14 15  1  0  0  0
 15 16  2  0  0  0
 16 17  1  0  0  0
 17 18  2  0  0  0
 15  1  1  0  0  0
  1  2  1  0  0  0
  2  3  2  0  0  0
  2  4  1  0  0  0
  4  5  1  0  0  0
  5  6  2  0  0  0
  5  7  1  0  0  0
  7  8  1  0  0  0
  8  9  1  0  0  0
  9 10  1  0  0  0
 10 37  1  0  0  0
 37 38  1  0  0  0
 38 39  2  0  0  0
 39 40  1  0  0  0
 40 41  2  0  0  0
 41 42  1  0  0  0
 42 43  2  0  0  0
 43 44  1  0  0  0
 10 11  1  0  0  0
 11 12  1  0  0  0
  4 21  1  0  0  0
 21 22  2  0  0  0
 22 23  1  0  0  0
 23 24  2  0  0  0
 24 25  1  0  0  0
 25 26  2  0  0  0
 24 27  1  0  0  0
 27 28  2  0  0  0
 28 29  1  0  0  0
 29 30  2  0  0  0
 30 31  1  0  0  0
 31 32  2  0  0  0
 30 33  1  0  0  0
 33 34  1  0  0  0
 33 35  2  0  0  0
 18 13  1  0  0  0
  7  1  1  0  0  0
 12  7  1  0  0  0
 26 21  1  0  0  0
 32 27  1  0  0  0
 43 38  1  0  0  0
 34 36  1  0  0  0
M  END
> <minimizedAffinity>
20.05363

> <CNNscore>
0.6262192130

> <CNNaffinity>
7.7832899094

> <CNN_VS>
4.8740458488

> <CNNaffinity_variance>
0.5391997099

$$$$
[H]OC(=O)c1c([H])c([H])c(-c2c([H])c([H])c(N3C(=O)N(c4nc([H])nc(OC([H])([H])[H])c4[H])C4(C3=O)C([H])([H])C([H])([H])N(C([H])([H])c3nc([H])c([H])c([H])c3C([H])([H])[H])C([H])([H])C4([H])[H])c([H])c2[H])c([H])c1[H]


 44 49  0  0  0  0  0  0  0  0999 V2000
   13.8029   26.9181   -3.5177 N   0  0  0  0  0  0  0  0  0  0  0  0
   13.6503   26.2220   -2.2850 C   0  0  0  0  0  0  0  0  0  0  0  0
   14.5189   26.0181   -1.3778 O   0  0  0  0  0  0  0  0  0  0  0  0
   12.3223   25.7439   -2.1714 N   0  0  0  0  0  0  0  0  0  0  0  0
   11.6404   26.1424   -3.3379 C   0  0  0  0  0  0  0  0  0  0  0  0
   10.5480   25.6532   -3.7864 O   0  0  0  0  0  0  0  0  0  0  0  0
   12.4509   27.2487   -3.9424 C   0  0  0  0  0  0  0  0  0  0  0  0
   12.3862   27.1238   -5.4222 C   0  0  0  0  0  0  0  0  0  0  0  0
   11.3473   27.9481   -6.0946 C   0  0  0  0  0  0  0  0  0  0  0  0
   10.4218   28.5946   -5.2718 N   0  0  0  0  0  0  0  0  0  0  0  0
   10.8670   29.2128   -4.0970 C   0  0  0  0  0  0  0  0  0  0  0  0
   11.9994   28.5657   -3.3901 C   0  0  0  0  0  0  0  0  0  0  0  0
   17.3727   27.8478   -4.0453 C   0  0  0  0  0  0  0  0  0  0  0  0
   16.1791   27.6024   -3.4140 C   0  0  0  0  0  0  0  0  0  0  0  0
   15.0574   27.1788   -4.1080 C   0  0  0  0  0  0  0  0  0  0  0  0
   15.1943   27.0174   -5.4369 N   0  0  0  0  0  0  0  0  0  0  0  0
   16.3404   27.2468   -6.0849 C   0  0  0  0  0  0  0  0  0  0  0  0
   17.4002   27.6522   -5.3974 N   0  0  0  0  0  0  0  0  0  0  0  0
   19.7821   28.0679   -3.9124 C   0  0  0  0  0  0  0  0  0  0  0  0
   18.5036   28.2731   -3.3636 O   0  0  0  0  0  0  0  0  0  0  0  0
   11.7708   24.9989   -1.0932 C   0  0  0  0  0  0  0  0  0  0  0  0
   10.8920   23.9626   -1.3711 C   0  0  0  0  0  0  0  0  0  0  0  0
   10.3417   23.2206   -0.3585 C   0  0  0  0  0  0  0  0  0  0  0  0
   10.6570   23.4970    0.9581 C   0  0  0  0  0  0  0  0  0  0  0  0
   11.5269   24.5244    1.2146 C   0  0  0  0  0  0  0  0  0  0  0  0
   12.0882   25.2781    0.2186 C   0  0  0  0  0  0  0  0  0  0  0  0
   10.0557   22.6962    1.9978 C   0  0  0  0  0  0  0  0  0  0  0  0
    8.6953   22.5706    2.0881 C   0  0  0  0  0  0  0  0  0  0  0  0
    8.1166   21.8060    3.0784 C   0  0  0  0  0  0  0  0  0  0  0  0
    8.9251   21.1472    4.0066 C   0  0  0  0  0  0  0  0  0  0  0  0
   10.2939   21.2764    3.9127 C   0  0  0  0  0  0  0  0  0  0  0  0
   10.8336   22.0458    2.9133 C   0  0  0  0  0  0  0  0  0  0  0  0
    8.3285   20.3344    5.0603 C   0  0  0  0  0  0  0  0  0  0  0  0
    7.7108   19.1533    4.6996 O   0  0  0  0  0  0  0  0  0  0  0  0
    8.3960   20.7305    6.2425 O   0  0  0  0  0  0  0  0  0  0  0  0
    7.0446   18.7363    5.3391 H   0  0  0  0  0  0  0  0  0  0  0  0
    9.0694   28.6749   -5.6412 C   0  0  0  0  0  0  0  0  0  0  0  0
    8.1835   29.2033   -4.5733 C   0  0  0  0  0  0  0  0  0  0  0  0
    8.6265   30.0221   -3.6173 N   0  0  0  0  0  0  0  0  0  0  0  0
    7.8582   30.5134   -2.6369 C   0  0  0  0  0  0  0  0  0  0  0  0
    6.5281   30.1561   -2.6073 C   0  0  0  0  0  0  0  0  0  0  0  0
    6.0127   29.3251   -3.5527 C   0  0  0  0  0  0  0  0  0  0  0  0
    6.8440   28.8423   -4.5456 C   0  0  0  0  0  0  0  0  0  0  0  0
    6.3573   27.9400   -5.5976 C   0  0  0  0  0  0  0  0  0  0  0  0
 19 20  1  0  0  0
 20 13  1  0  0  0
 13 14  2  0  0  0
 14 15  1  0  0  0
 15 16  2  0  0  0
 16 17  1  0  0  0
 17 18  2  0  0  0
 15  1  1  0  0  0
  1  2  1  0  0  0
  2  3  2  0  0  0
  2  4  1  0  0  0
  4  5  1  0  0  0
  5  6  2  0  0  0
  5  7  1  0  0  0
  7  8  1  0  0  0
  8  9  1  0  0  0
  9 10  1  0  0  0
 10 37  1  0  0  0
 37 38  1  0  0  0
 38 39  2  0  0  0
 39 40  1  0  0  0
 40 41  2  0  0  0
 41 42  1  0  0  0
 42 43  2  0  0  0
 43 44  1  0  0  0
 10 11  1  0  0  0
 11 12  1  0  0  0
  4 21  1  0  0  0
 21 22  2  0  0  0
 22 23  1  0  0  0
 23 24  2  0  0  0
 24 25  1  0  0  0
 25 26  2  0  0  0
 24 27  1  0  0  0
 27 28  2  0  0  0
 28 29  1  0  0  0
 29 30  2  0  0  0
 30 31  1  0  0  0
 31 32  2  0  0  0
 30 33  1  0  0  0
 33 34  1  0  0  0
 33 35  2  0  0  0
 18 13  1  0  0  0
  7  1  1  0  0  0
 12  7  1  0  0  0
 26 21  1  0  0  0
 32 27  1  0  0  0
 43 38  1  0  0  0
 34 36  1  0  0  0
M  END
> <minimizedAffinity>
22.86485

> <CNNscore>
0.5680992603

> <CNNaffinity>
7.1210966110

> <CNN_VS>
4.0454897881

> <CNNaffinity_variance>
0.4298028052

$$$$
[H]OC(=O)c1c([H])c([H])c(-c2c([H])c([H])c(N3C(=O)N(c4nc([H])nc(OC([H])([H])[H])c4[H])C4(C3=O)C([H])([H])C([H])([H])N(C([H])([H])c3nc([H])c([H])c([H])c3C([H])([H])[H])C([H])([H])C4([H])[H])c([H])c2[H])c([H])c1[H]


 44 49  0  0  0  0  0  0  0  0999 V2000
   11.2383   22.0660    0.9059 N   0  0  0  0  0  0  0  0  0  0  0  0
   11.9682   22.3850   -0.2742 C   0  0  0  0  0  0  0  0  0  0  0  0
   12.4248   21.5949   -1.1610 O   0  0  0  0  0  0  0  0  0  0  0  0
   12.1442   23.7876   -0.3587 N   0  0  0  0  0  0  0  0  0  0  0  0
   11.5218   24.3490    0.7735 C   0  0  0  0  0  0  0  0  0  0  0  0
   11.7215   25.5176    1.2515 O   0  0  0  0  0  0  0  0  0  0  0  0
   10.5847   23.3048    1.3004 C   0  0  0  0  0  0  0  0  0  0  0  0
   10.5869   23.3779    2.7850 C   0  0  0  0  0  0  0  0  0  0  0  0
    9.5058   24.1983    3.3924 C   0  0  0  0  0  0  0  0  0  0  0  0
    8.7287   24.9660    2.5217 N   0  0  0  0  0  0  0  0  0  0  0  0
    8.3104   24.4084    1.3073 C   0  0  0  0  0  0  0  0  0  0  0  0
    9.2426   23.4576    0.6533 C   0  0  0  0  0  0  0  0  0  0  0  0
   11.6260   19.2092    3.2669 C   0  0  0  0  0  0  0  0  0  0  0  0
   11.6577   20.4856    2.7638 C   0  0  0  0  0  0  0  0  0  0  0  0
   11.2235   20.7779    1.4811 C   0  0  0  0  0  0  0  0  0  0  0  0
   10.7659   19.7462    0.7483 N   0  0  0  0  0  0  0  0  0  0  0  0
   10.7204   18.4911    1.2051 C   0  0  0  0  0  0  0  0  0  0  0  0
   11.1425   18.2372    2.4370 N   0  0  0  0  0  0  0  0  0  0  0  0
   13.0003   17.8777    4.7535 C   0  0  0  0  0  0  0  0  0  0  0  0
   12.0582   18.9016    4.5489 O   0  0  0  0  0  0  0  0  0  0  0  0
   12.8215   24.5045   -1.3829 C   0  0  0  0  0  0  0  0  0  0  0  0
   12.1945   25.5935   -1.9697 C   0  0  0  0  0  0  0  0  0  0  0  0
   12.8164   26.3105   -2.9585 C   0  0  0  0  0  0  0  0  0  0  0  0
   14.0819   25.9557   -3.3852 C   0  0  0  0  0  0  0  0  0  0  0  0
   14.6866   24.8771   -2.7946 C   0  0  0  0  0  0  0  0  0  0  0  0
   14.0837   24.1470   -1.8053 C   0  0  0  0  0  0  0  0  0  0  0  0
   14.7041   26.7325   -4.4308 C   0  0  0  0  0  0  0  0  0  0  0  0
   14.6280   26.3359   -5.7390 C   0  0  0  0  0  0  0  0  0  0  0  0
   15.2194   27.0751   -6.7411 C   0  0  0  0  0  0  0  0  0  0  0  0
   15.9081   28.2471   -6.4230 C   0  0  0  0  0  0  0  0  0  0  0  0
   15.9828   28.6428   -5.1051 C   0  0  0  0  0  0  0  0  0  0  0  0
   15.3815   27.8815   -4.1352 C   0  0  0  0  0  0  0  0  0  0  0  0
   16.5393   29.0405   -7.4714 C   0  0  0  0  0  0  0  0  0  0  0  0
   17.1477   28.3723   -8.5154 O   0  0  0  0  0  0  0  0  0  0  0  0
   16.5084   30.2860   -7.3901 O   0  0  0  0  0  0  0  0  0  0  0  0
   17.8345   28.8641   -9.0750 H   0  0  0  0  0  0  0  0  0  0  0  0
    8.3222   26.2618    2.8790 C   0  0  0  0  0  0  0  0  0  0  0  0
    7.2134   26.2948    3.8660 C   0  0  0  0  0  0  0  0  0  0  0  0
    5.9306   26.2512    3.5014 N   0  0  0  0  0  0  0  0  0  0  0  0
    4.9058   26.2840    4.3627 C   0  0  0  0  0  0  0  0  0  0  0  0
    5.1858   26.3675    5.7090 C   0  0  0  0  0  0  0  0  0  0  0  0
    6.4724   26.4149    6.1475 C   0  0  0  0  0  0  0  0  0  0  0  0
    7.4977   26.3786    5.2215 C   0  0  0  0  0  0  0  0  0  0  0  0
    8.9101   26.4278    5.6221 C   0  0  0  0  0  0  0  0  0  0  0  0
 19 20  1  0  0  0
 20 13  1  0  0  0
 13 14  2  0  0  0
 14 15  1  0  0  0
 15 16  2  0  0  0
 16 17  1  0  0  0
 17 18  2  0  0  0
 15  1  1  0  0  0
  1  2  1  0  0  0
  2  3  2  0  0  0
  2  4  1  0  0  0
  4  5  1  0  0  0
  5  6  2  0  0  0
  5  7  1  0  0  0
  7  8  1  0  0  0
  8  9  1  0  0  0
  9 10  1  0  0  0
 10 37  1  0  0  0
 37 38  1  0  0  0
 38 39  2  0  0  0
 39 40  1  0  0  0
 40 41  2  0  0  0
 41 42  1  0  0  0
 42 43  2  0  0  0
 43 44  1  0  0  0
 10 11  1  0  0  0
 11 12  1  0  0  0
  4 21  1  0  0  0
 21 22  2  0  0  0
 22 23  1  0  0  0
 23 24  2  0  0  0
 24 25  1  0  0  0
 25 26  2  0  0  0
 24 27  1  0  0  0
 27 28  2  0  0  0
 28 29  1  0  0  0
 29 30  2  0  0  0
 30 31  1  0  0  0
 31 32  2  0  0  0
 30 33  1  0  0  0
 33 34  1  0  0  0
 33 35  2  0  0  0
 18 13  1  0  0  0
  7  1  1  0  0  0
 12  7  1  0  0  0
 26 21  1  0  0  0
 32 27  1  0  0  0
 43 38  1  0  0  0
 34 36  1  0  0  0
M  END
> <minimizedAffinity>
6.81422

> <CNNscore>
0.5432296991

> <CNNaffinity>
7.3656525612

> <CNN_VS>
4.0012412071

> <CNNaffinity_variance>
0.1916520298

$$$$
[H]OC(=O)c1c([H])c([H])c(-c2c([H])c([H])c(N3C(=O)N(c4nc([H])nc(OC([H])([H])[H])c4[H])C4(C3=O)C([H])([H])C([H])([H])N(C([H])([H])c3nc([H])c([H])c([H])c3C([H])([H])[H])C([H])([H])C4([H])[H])c([H])c2[H])c([H])c1[H]


 44 49  0  0  0  0  0  0  0  0999 V2000
   13.8176   25.5108   -2.9227 N   0  0  0  0  0  0  0  0  0  0  0  0
   12.5900   25.7991   -2.2615 C   0  0  0  0  0  0  0  0  0  0  0  0
   11.7085   26.6636   -2.5694 O   0  0  0  0  0  0  0  0  0  0  0  0
   12.4473   24.9522   -1.1355 N   0  0  0  0  0  0  0  0  0  0  0  0
   13.5905   24.1302   -1.0917 C   0  0  0  0  0  0  0  0  0  0  0  0
   14.0160   23.4705   -0.0829 O   0  0  0  0  0  0  0  0  0  0  0  0
   14.2025   24.1864   -2.4585 C   0  0  0  0  0  0  0  0  0  0  0  0
   15.6814   24.1579   -2.3125 C   0  0  0  0  0  0  0  0  0  0  0  0
   16.3160   22.8185   -2.4319 C   0  0  0  0  0  0  0  0  0  0  0  0
   15.4613   21.7143   -2.4706 N   0  0  0  0  0  0  0  0  0  0  0  0
   14.2910   21.7827   -3.2364 C   0  0  0  0  0  0  0  0  0  0  0  0
   13.6223   23.1045   -3.3167 C   0  0  0  0  0  0  0  0  0  0  0  0
   14.9158   28.5945   -4.7033 C   0  0  0  0  0  0  0  0  0  0  0  0
   14.2924   27.7785   -3.7928 C   0  0  0  0  0  0  0  0  0  0  0  0
   14.4375   26.4011   -3.8245 C   0  0  0  0  0  0  0  0  0  0  0  0
   15.2234   25.8985   -4.7943 N   0  0  0  0  0  0  0  0  0  0  0  0
   15.8457   26.6622   -5.6973 C   0  0  0  0  0  0  0  0  0  0  0  0
   15.6902   27.9788   -5.6458 N   0  0  0  0  0  0  0  0  0  0  0  0
   13.7272   30.5739   -3.9681 C   0  0  0  0  0  0  0  0  0  0  0  0
   14.7789   29.9749   -4.6843 O   0  0  0  0  0  0  0  0  0  0  0  0
   11.3642   24.9290   -0.2147 C   0  0  0  0  0  0  0  0  0  0  0  0
   11.4689   25.6491    0.9659 C   0  0  0  0  0  0  0  0  0  0  0  0
   10.4449   25.6528    1.8771 C   0  0  0  0  0  0  0  0  0  0  0  0
    9.2900   24.9357    1.6297 C   0  0  0  0  0  0  0  0  0  0  0  0
    9.2035   24.2297    0.4583 C   0  0  0  0  0  0  0  0  0  0  0  0
   10.2141   24.2122   -0.4656 C   0  0  0  0  0  0  0  0  0  0  0  0
    8.2342   24.9608    2.6138 C   0  0  0  0  0  0  0  0  0  0  0  0
    7.6936   23.7975    3.0924 C   0  0  0  0  0  0  0  0  0  0  0  0
    6.6861   23.8165    4.0331 C   0  0  0  0  0  0  0  0  0  0  0  0
    6.2054   25.0379    4.5088 C   0  0  0  0  0  0  0  0  0  0  0  0
    6.7518   26.2066    4.0244 C   0  0  0  0  0  0  0  0  0  0  0  0
    7.7533   26.1481    3.0887 C   0  0  0  0  0  0  0  0  0  0  0  0
    5.1400   25.0752    5.5040 C   0  0  0  0  0  0  0  0  0  0  0  0
    4.2860   26.1602    5.5020 O   0  0  0  0  0  0  0  0  0  0  0  0
    5.0371   24.1330    6.3168 O   0  0  0  0  0  0  0  0  0  0  0  0
    3.7508   26.3610    6.3387 H   0  0  0  0  0  0  0  0  0  0  0  0
   15.7939   20.5279   -1.7969 C   0  0  0  0  0  0  0  0  0  0  0  0
   15.1296   20.3777   -0.4775 C   0  0  0  0  0  0  0  0  0  0  0  0
   15.8027   20.4420    0.6728 N   0  0  0  0  0  0  0  0  0  0  0  0
   15.2379   20.3062    1.8793 C   0  0  0  0  0  0  0  0  0  0  0  0
   13.8795   20.0866    1.9443 C   0  0  0  0  0  0  0  0  0  0  0  0
   13.1348   20.0108    0.8088 C   0  0  0  0  0  0  0  0  0  0  0  0
   13.7613   20.1569   -0.4144 C   0  0  0  0  0  0  0  0  0  0  0  0
   13.0211   20.0850   -1.6813 C   0  0  0  0  0  0  0  0  0  0  0  0
 19 20  1  0  0  0
 20 13  1  0  0  0
 13 14  2  0  0  0
 14 15  1  0  0  0
 15 16  2  0  0  0
 16 17  1  0  0  0
 17 18  2  0  0  0
 15  1  1  0  0  0
  1  2  1  0  0  0
  2  3  2  0  0  0
  2  4  1  0  0  0
  4  5  1  0  0  0
  5  6  2  0  0  0
  5  7  1  0  0  0
  7  8  1  0  0  0
  8  9  1  0  0  0
  9 10  1  0  0  0
 10 37  1  0  0  0
 37 38  1  0  0  0
 38 39  2  0  0  0
 39 40  1  0  0  0
 40 41  2  0  0  0
 41 42  1  0  0  0
 42 43  2  0  0  0
 43 44  1  0  0  0
 10 11  1  0  0  0
 11 12  1  0  0  0
  4 21  1  0  0  0
 21 22  2  0  0  0
 22 23  1  0  0  0
 23 24  2  0  0  0
 24 25  1  0  0  0
 25 26  2  0  0  0
 24 27  1  0  0  0
 27 28  2  0  0  0
 28 29  1  0  0  0
 29 30  2  0  0  0
 30 31  1  0  0  0
 31 32  2  0  0  0
 30 33  1  0  0  0
 33 34  1  0  0  0
 33 35  2  0  0  0
 18 13  1  0  0  0
  7  1  1  0  0  0
 12  7  1  0  0  0
 26 21  1  0  0  0
 32 27  1  0  0  0
 43 38  1  0  0  0
 34 36  1  0  0  0
M  END
> <minimizedAffinity>
16.94759

> <CNNscore>
0.5406494141

> <CNNaffinity>
7.4903984070

> <CNN_VS>
4.0496792793

> <CNNaffinity_variance>
0.9504747391

$$$$
[H]OC(=O)c1c([H])c([H])c(-c2c([H])c([H])c(N3C(=O)N(c4nc([H])nc(OC([H])([H])[H])c4[H])C4(C3=O)C([H])([H])C([H])([H])N(C([H])([H])c3nc([H])c([H])c([H])c3C([H])([H])[H])C([H])([H])C4([H])[H])c([H])c2[H])c([H])c1[H]


 44 49  0  0  0  0  0  0  0  0999 V2000
   13.5330   25.2310   -2.4677 N   0  0  0  0  0  0  0  0  0  0  0  0
   12.3242   25.6452   -1.8398 C   0  0  0  0  0  0  0  0  0  0  0  0
   11.5235   26.5685   -2.1942 O   0  0  0  0  0  0  0  0  0  0  0  0
   12.0934   24.8553   -0.6873 N   0  0  0  0  0  0  0  0  0  0  0  0
   13.1624   23.9427   -0.5934 C   0  0  0  0  0  0  0  0  0  0  0  0
   13.5153   23.2873    0.4457 O   0  0  0  0  0  0  0  0  0  0  0  0
   13.7978   23.8971   -1.9500 C   0  0  0  0  0  0  0  0  0  0  0  0
   15.2667   23.7503   -1.7759 C   0  0  0  0  0  0  0  0  0  0  0  0
   15.7879   22.3591   -1.8361 C   0  0  0  0  0  0  0  0  0  0  0  0
   14.8438   21.3296   -1.8514 N   0  0  0  0  0  0  0  0  0  0  0  0
   13.6954   21.4674   -2.6404 C   0  0  0  0  0  0  0  0  0  0  0  0
   13.1417   22.8367   -2.7797 C   0  0  0  0  0  0  0  0  0  0  0  0
   15.9720   27.5914   -4.0059 C   0  0  0  0  0  0  0  0  0  0  0  0
   15.3286   26.8257   -3.0661 C   0  0  0  0  0  0  0  0  0  0  0  0
   14.2396   26.0325   -3.3889 C   0  0  0  0  0  0  0  0  0  0  0  0
   13.8409   26.0475   -4.6741 N   0  0  0  0  0  0  0  0  0  0  0  0
   14.4430   26.7803   -5.6156 C   0  0  0  0  0  0  0  0  0  0  0  0
   15.4837   27.5319   -5.2808 N   0  0  0  0  0  0  0  0  0  0  0  0
   18.3665   27.8665   -3.7573 C   0  0  0  0  0  0  0  0  0  0  0  0
   17.0629   28.3909   -3.6972 O   0  0  0  0  0  0  0  0  0  0  0  0
   10.9982   24.9567    0.2138 C   0  0  0  0  0  0  0  0  0  0  0  0
   11.1585   25.6738    1.3900 C   0  0  0  0  0  0  0  0  0  0  0  0
   10.1252   25.7956    2.2822 C   0  0  0  0  0  0  0  0  0  0  0  0
    8.9050   25.2027    2.0199 C   0  0  0  0  0  0  0  0  0  0  0  0
    8.7641   24.4979    0.8531 C   0  0  0  0  0  0  0  0  0  0  0  0
    9.7829   24.3636   -0.0520 C   0  0  0  0  0  0  0  0  0  0  0  0
    7.8410   25.3499    2.9842 C   0  0  0  0  0  0  0  0  0  0  0  0
    7.5626   24.3520    3.8793 C   0  0  0  0  0  0  0  0  0  0  0  0
    6.5484   24.4887    4.8029 C   0  0  0  0  0  0  0  0  0  0  0  0
    5.7899   25.6605    4.8307 C   0  0  0  0  0  0  0  0  0  0  0  0
    6.0730   26.6625    3.9279 C   0  0  0  0  0  0  0  0  0  0  0  0
    7.0901   26.4906    3.0236 C   0  0  0  0  0  0  0  0  0  0  0  0
    4.7135   25.8207    5.8016 C   0  0  0  0  0  0  0  0  0  0  0  0
    4.1255   24.6815    6.3145 O   0  0  0  0  0  0  0  0  0  0  0  0
    4.3634   26.9724    6.1333 O   0  0  0  0  0  0  0  0  0  0  0  0
    3.2076   24.7547    6.7374 H   0  0  0  0  0  0  0  0  0  0  0  0
   15.0650   20.1452   -1.1301 C   0  0  0  0  0  0  0  0  0  0  0  0
   14.1697   19.9778    0.0426 C   0  0  0  0  0  0  0  0  0  0  0  0
   12.9162   19.5351   -0.0727 N   0  0  0  0  0  0  0  0  0  0  0  0
   12.0800   19.3768    0.9611 C   0  0  0  0  0  0  0  0  0  0  0  0
   12.5350   19.6878    2.2236 C   0  0  0  0  0  0  0  0  0  0  0  0
   13.8027   20.1437    2.4104 C   0  0  0  0  0  0  0  0  0  0  0  0
   14.6302   20.2914    1.3134 C   0  0  0  0  0  0  0  0  0  0  0  0
   16.0098   20.7799    1.4394 C   0  0  0  0  0  0  0  0  0  0  0  0
 19 20  1  0  0  0
 20 13  1  0  0  0
 13 14  2  0  0  0
 14 15  1  0  0  0
 15 16  2  0  0  0
 16 17  1  0  0  0
 17 18  2  0  0  0
 15  1  1  0  0  0
  1  2  1  0  0  0
  2  3  2  0  0  0
  2  4  1  0  0  0
  4  5  1  0  0  0
  5  6  2  0  0  0
  5  7  1  0  0  0
  7  8  1  0  0  0
  8  9  1  0  0  0
  9 10  1  0  0  0
 10 37  1  0  0  0
 37 38  1  0  0  0
 38 39  2  0  0  0
 39 40  1  0  0  0
 40 41  2  0  0  0
 41 42  1  0  0  0
 42 43  2  0  0  0
 43 44  1  0  0  0
 10 11  1  0  0  0
 11 12  1  0  0  0
  4 21  1  0  0  0
 21 22  2  0  0  0
 22 23  1  0  0  0
 23 24  2  0  0  0
 24 25  1  0  0  0
 25 26  2  0  0  0
 24 27  1  0  0  0
 27 28  2  0  0  0
 28 29  1  0  0  0
 29 30  2  0  0  0
 30 31  1  0  0  0
 31 32  2  0  0  0
 30 33  1  0  0  0
 33 34  1  0  0  0
 33 35  2  0  0  0
 18 13  1  0  0  0
  7  1  1  0  0  0
 12  7  1  0  0  0
 26 21  1  0  0  0
 32 27  1  0  0  0
 43 38  1  0  0  0
 34 36  1  0  0  0
M  END
> <minimizedAffinity>
10.50287

> <CNNscore>
0.5195165277

> <CNNaffinity>
7.4181442261

> <CNN_VS>
3.8538484573

> <CNNaffinity_variance>
0.8441376686

$$$$
[H]OC(=O)c1c([H])c([H])c(-c2c([H])c([H])c(N3C(=O)N(c4nc([H])nc(OC([H])([H])[H])c4[H])C4(C3=O)C([H])([H])C([H])([H])N(C([H])([H])c3nc([H])c([H])c([H])c3C([H])([H])[H])C([H])([H])C4([H])[H])c([H])c2[H])c([H])c1[H]


 44 49  0  0  0  0  0  0  0  0999 V2000
   13.2891   22.1397    0.0333 N   0  0  0  0  0  0  0  0  0  0  0  0
   13.9200   22.8550   -1.0239 C   0  0  0  0  0  0  0  0  0  0  0  0
   14.8349   22.4572   -1.8138 O   0  0  0  0  0  0  0  0  0  0  0  0
   13.3752   24.1595   -1.1054 N   0  0  0  0  0  0  0  0  0  0  0  0
   12.3989   24.2614   -0.0949 C   0  0  0  0  0  0  0  0  0  0  0  0
   11.9112   25.3401    0.3870 O   0  0  0  0  0  0  0  0  0  0  0  0
   12.0513   22.8575    0.2980 C   0  0  0  0  0  0  0  0  0  0  0  0
   11.8023   22.8278    1.7631 C   0  0  0  0  0  0  0  0  0  0  0  0
   10.3806   22.9570    2.1789 C   0  0  0  0  0  0  0  0  0  0  0  0
    9.4574   23.2861    1.1835 N   0  0  0  0  0  0  0  0  0  0  0  0
    9.5573   22.6721   -0.0709 C   0  0  0  0  0  0  0  0  0  0  0  0
   10.9246   22.3588   -0.5537 C   0  0  0  0  0  0  0  0  0  0  0  0
   15.5027   19.2461    0.8163 C   0  0  0  0  0  0  0  0  0  0  0  0
   15.0166   20.3760    0.2076 C   0  0  0  0  0  0  0  0  0  0  0  0
   13.8427   20.9836    0.6225 C   0  0  0  0  0  0  0  0  0  0  0  0
   13.1989   20.4115    1.6564 N   0  0  0  0  0  0  0  0  0  0  0  0
   13.6424   19.3119    2.2729 C   0  0  0  0  0  0  0  0  0  0  0  0
   14.7690   18.7487    1.8563 N   0  0  0  0  0  0  0  0  0  0  0  0
   16.6793   17.2591    0.0825 C   0  0  0  0  0  0  0  0  0  0  0  0
   16.6760   18.6265    0.4112 O   0  0  0  0  0  0  0  0  0  0  0  0
   13.7383   25.1822   -2.0241 C   0  0  0  0  0  0  0  0  0  0  0  0
   15.0775   25.3617   -2.3366 C   0  0  0  0  0  0  0  0  0  0  0  0
   15.4661   26.3355   -3.2194 C   0  0  0  0  0  0  0  0  0  0  0  0
   14.5241   27.1546   -3.8118 C   0  0  0  0  0  0  0  0  0  0  0  0
   13.2054   26.9634   -3.4916 C   0  0  0  0  0  0  0  0  0  0  0  0
   12.7952   25.9968   -2.6126 C   0  0  0  0  0  0  0  0  0  0  0  0
   14.9710   28.1712   -4.7341 C   0  0  0  0  0  0  0  0  0  0  0  0
   15.8032   27.8570   -5.7749 C   0  0  0  0  0  0  0  0  0  0  0  0
   16.2316   28.8241   -6.6589 C   0  0  0  0  0  0  0  0  0  0  0  0
   15.8138   30.1462   -6.4953 C   0  0  0  0  0  0  0  0  0  0  0  0
   14.9765   30.4585   -5.4463 C   0  0  0  0  0  0  0  0  0  0  0  0
   14.5709   29.4691   -4.5870 C   0  0  0  0  0  0  0  0  0  0  0  0
   16.2580   31.1811   -7.4219 C   0  0  0  0  0  0  0  0  0  0  0  0
   17.5925   31.5354   -7.4101 O   0  0  0  0  0  0  0  0  0  0  0  0
   15.4238   31.7070   -8.1878 O   0  0  0  0  0  0  0  0  0  0  0  0
   17.8635   32.4284   -7.8048 H   0  0  0  0  0  0  0  0  0  0  0  0
    8.4066   24.1791    1.4491 C   0  0  0  0  0  0  0  0  0  0  0  0
    7.8591   24.0731    2.8251 C   0  0  0  0  0  0  0  0  0  0  0  0
    7.9294   25.0769    3.7015 N   0  0  0  0  0  0  0  0  0  0  0  0
    7.4514   25.0150    4.9508 C   0  0  0  0  0  0  0  0  0  0  0  0
    6.8489   23.8468    5.3631 C   0  0  0  0  0  0  0  0  0  0  0  0
    6.7442   22.7857    4.5188 C   0  0  0  0  0  0  0  0  0  0  0  0
    7.2524   22.8956    3.2383 C   0  0  0  0  0  0  0  0  0  0  0  0
    7.1765   21.7906    2.2734 C   0  0  0  0  0  0  0  0  0  0  0  0
 19 20  1  0  0  0
 20 13  1  0  0  0
 13 14  2  0  0  0
 14 15  1  0  0  0
 15 16  2  0  0  0
 16 17  1  0  0  0
 17 18  2  0  0  0
 15  1  1  0  0  0
  1  2  1  0  0  0
  2  3  2  0  0  0
  2  4  1  0  0  0
  4  5  1  0  0  0
  5  6  2  0  0  0
  5  7  1  0  0  0
  7  8  1  0  0  0
  8  9  1  0  0  0
  9 10  1  0  0  0
 10 37  1  0  0  0
 37 38  1  0  0  0
 38 39  2  0  0  0
 39 40  1  0  0  0
 40 41  2  0  0  0
 41 42  1  0  0  0
 42 43  2  0  0  0
 43 44  1  0  0  0
 10 11  1  0  0  0
 11 12  1  0  0  0
  4 21  1  0  0  0
 21 22  2  0  0  0
 22 23  1  0  0  0
 23 24  2  0  0  0
 24 25  1  0  0  0
 25 26  2  0  0  0
 24 27  1  0  0  0
 27 28  2  0  0  0
 28 29  1  0  0  0
 29 30  2  0  0  0
 30 31  1  0  0  0
 31 32  2  0  0  0
 30 33  1  0  0  0
 33 34  1  0  0  0
 33 35  2  0  0  0
 18 13  1  0  0  0
  7  1  1  0  0  0
 12  7  1  0  0  0
 26 21  1  0  0  0
 32 27  1  0  0  0
 43 38  1  0  0  0
 34 36  1  0  0  0
M  END
> <minimizedAffinity>
27.05450

> <CNNscore>
0.4964980483

> <CNNaffinity>
7.4597396851

> <CNN_VS>
3.7037460804

> <CNNaffinity_variance>
0.2530711889

$$$$
[H]OC(=O)c1c([H])c([H])c(-c2c([H])c([H])c(N3C(=O)N(c4nc([H])nc(OC([H])([H])[H])c4[H])C4(C3=O)C([H])([H])C([H])([H])N(C([H])([H])c3nc([H])c([H])c([H])c3C([H])([H])[H])C([H])([H])C4([H])[H])c([H])c2[H])c([H])c1[H]


 44 49  0  0  0  0  0  0  0  0999 V2000
   13.9187   26.9750   -4.1462 N   0  0  0  0  0  0  0  0  0  0  0  0
   14.0574   25.9983   -3.1195 C   0  0  0  0  0  0  0  0  0  0  0  0
   15.1084   25.3864   -2.7452 O   0  0  0  0  0  0  0  0  0  0  0  0
   12.7988   25.7642   -2.5142 N   0  0  0  0  0  0  0  0  0  0  0  0
   11.8681   26.5980   -3.1648 C   0  0  0  0  0  0  0  0  0  0  0  0
   10.5964   26.4693   -3.1597 O   0  0  0  0  0  0  0  0  0  0  0  0
   12.6666   27.6589   -3.8596 C   0  0  0  0  0  0  0  0  0  0  0  0
   12.0041   27.9744   -5.1523 C   0  0  0  0  0  0  0  0  0  0  0  0
   11.0744   29.1346   -5.1347 C   0  0  0  0  0  0  0  0  0  0  0  0
   10.7679   29.6813   -3.8863 N   0  0  0  0  0  0  0  0  0  0  0  0
   11.7895   29.8454   -2.9429 C   0  0  0  0  0  0  0  0  0  0  0  0
   12.8659   28.8246   -2.9404 C   0  0  0  0  0  0  0  0  0  0  0  0
   15.9253   26.5600   -7.2587 C   0  0  0  0  0  0  0  0  0  0  0  0
   14.9765   26.3402   -6.2918 C   0  0  0  0  0  0  0  0  0  0  0  0
   14.8662   27.1539   -5.1760 C   0  0  0  0  0  0  0  0  0  0  0  0
   15.7370   28.1758   -5.0849 N   0  0  0  0  0  0  0  0  0  0  0  0
   16.6735   28.4199   -6.0066 C   0  0  0  0  0  0  0  0  0  0  0  0
   16.7586   27.6256   -7.0659 N   0  0  0  0  0  0  0  0  0  0  0  0
   15.0818   24.7690   -8.6558 C   0  0  0  0  0  0  0  0  0  0  0  0
   16.0479   25.7532   -8.3806 O   0  0  0  0  0  0  0  0  0  0  0  0
   12.5144   24.8599   -1.4545 C   0  0  0  0  0  0  0  0  0  0  0  0
   11.9093   25.3412   -0.3031 C   0  0  0  0  0  0  0  0  0  0  0  0
   11.6176   24.4997    0.7388 C   0  0  0  0  0  0  0  0  0  0  0  0
   11.9242   23.1550    0.6548 C   0  0  0  0  0  0  0  0  0  0  0  0
   12.5219   22.6965   -0.4901 C   0  0  0  0  0  0  0  0  0  0  0  0
   12.8220   23.5194   -1.5427 C   0  0  0  0  0  0  0  0  0  0  0  0
   11.6049   22.3000    1.7731 C   0  0  0  0  0  0  0  0  0  0  0  0
   12.2347   21.0954    1.9374 C   0  0  0  0  0  0  0  0  0  0  0  0
   11.9340   20.2762    3.0045 C   0  0  0  0  0  0  0  0  0  0  0  0
   10.9732   20.6755    3.9353 C   0  0  0  0  0  0  0  0  0  0  0  0
   10.3412   21.8884    3.7664 C   0  0  0  0  0  0  0  0  0  0  0  0
   10.6669   22.6770    2.6921 C   0  0  0  0  0  0  0  0  0  0  0  0
   10.6437   19.8204    5.0698 C   0  0  0  0  0  0  0  0  0  0  0  0
   10.9702   18.4811    4.9911 O   0  0  0  0  0  0  0  0  0  0  0  0
   10.0825   20.3239    6.0651 O   0  0  0  0  0  0  0  0  0  0  0  0
   10.4976   17.8271    5.6039 H   0  0  0  0  0  0  0  0  0  0  0  0
    9.4641   30.1143   -3.5953 C   0  0  0  0  0  0  0  0  0  0  0  0
    8.4164   29.4755   -4.4313 C   0  0  0  0  0  0  0  0  0  0  0  0
    8.6706   28.9894   -5.6477 N   0  0  0  0  0  0  0  0  0  0  0  0
    7.7505   28.4120   -6.4306 C   0  0  0  0  0  0  0  0  0  0  0  0
    6.4606   28.3101   -5.9577 C   0  0  0  0  0  0  0  0  0  0  0  0
    6.1348   28.7853   -4.7257 C   0  0  0  0  0  0  0  0  0  0  0  0
    7.1180   29.3737   -3.9529 C   0  0  0  0  0  0  0  0  0  0  0  0
    6.8385   29.9102   -2.6142 C   0  0  0  0  0  0  0  0  0  0  0  0
 19 20  1  0  0  0
 20 13  1  0  0  0
 13 14  2  0  0  0
 14 15  1  0  0  0
 15 16  2  0  0  0
 16 17  1  0  0  0
 17 18  2  0  0  0
 15  1  1  0  0  0
  1  2  1  0  0  0
  2  3  2  0  0  0
  2  4  1  0  0  0
  4  5  1  0  0  0
  5  6  2  0  0  0
  5  7  1  0  0  0
  7  8  1  0  0  0
  8  9  1  0  0  0
  9 10  1  0  0  0
 10 37  1  0  0  0
 37 38  1  0  0  0
 38 39  2  0  0  0
 39 40  1  0  0  0
 40 41  2  0  0  0
 41 42  1  0  0  0
 42 43  2  0  0  0
 43 44  1  0  0  0
 10 11  1  0  0  0
 11 12  1  0  0  0
  4 21  1  0  0  0
 21 22  2  0  0  0
 22 23  1  0  0  0
 23 24  2  0  0  0
 24 25  1  0  0  0
 25 26  2  0  0  0
 24 27  1  0  0  0
 27 28  2  0  0  0
 28 29  1  0  0  0
 29 30  2  0  0  0
 30 31  1  0  0  0
 31 32  2  0  0  0
 30 33  1  0  0  0
 33 34  1  0  0  0
 33 35  2  0  0  0
 18 13  1  0  0  0
  7  1  1  0  0  0
 12  7  1  0  0  0
 26 21  1  0  0  0
 32 27  1  0  0  0
 43 38  1  0  0  0
 34 36  1  0  0  0
M  END
> <minimizedAffinity>
20.68034

> <CNNscore>
0.4738743007

> <CNNaffinity>
7.2458496094

> <CNN_VS>
3.4336218834

> <CNNaffinity_variance>
0.6106885672

$$$$
[H]OC(=O)c1c([H])c([H])c(-c2c([H])c([H])c(N3C(=O)N(c4nc([H])nc(OC([H])([H])[H])c4[H])C4(C3=O)C([H])([H])C([H])([H])N(C([H])([H])c3nc([H])c([H])c([H])c3C([H])([H])[H])C([H])([H])C4([H])[H])c([H])c2[H])c([H])c1[H]


 44 49  0  0  0  0  0  0  0  0999 V2000
   14.7662   26.1590   -3.3817 N   0  0  0  0  0  0  0  0  0  0  0  0
   13.4609   25.7461   -2.9909 C   0  0  0  0  0  0  0  0  0  0  0  0
   12.3816   25.7903   -3.6634 O   0  0  0  0  0  0  0  0  0  0  0  0
   13.4990   25.2420   -1.6681 N   0  0  0  0  0  0  0  0  0  0  0  0
   14.8340   25.3399   -1.2289 C   0  0  0  0  0  0  0  0  0  0  0  0
   15.2417   25.3074   -0.0180 O   0  0  0  0  0  0  0  0  0  0  0  0
   15.6731   25.4892   -2.4617 C   0  0  0  0  0  0  0  0  0  0  0  0
   16.7938   26.4169   -2.1574 C   0  0  0  0  0  0  0  0  0  0  0  0
   18.0718   25.7741   -1.7518 C   0  0  0  0  0  0  0  0  0  0  0  0
   18.0393   24.3989   -1.5087 N   0  0  0  0  0  0  0  0  0  0  0  0
   17.3151   23.5692   -2.3734 C   0  0  0  0  0  0  0  0  0  0  0  0
   16.0784   24.1375   -2.9637 C   0  0  0  0  0  0  0  0  0  0  0  0
   15.6075   27.5400   -6.7390 C   0  0  0  0  0  0  0  0  0  0  0  0
   15.3770   26.6364   -5.7321 C   0  0  0  0  0  0  0  0  0  0  0  0
   15.0090   27.0379   -4.4583 C   0  0  0  0  0  0  0  0  0  0  0  0
   14.8866   28.3623   -4.2539 N   0  0  0  0  0  0  0  0  0  0  0  0
   15.1030   29.2705   -5.2101 C   0  0  0  0  0  0  0  0  0  0  0  0
   15.4549   28.8603   -6.4218 N   0  0  0  0  0  0  0  0  0  0  0  0
   15.5859   25.8989   -8.5216 C   0  0  0  0  0  0  0  0  0  0  0  0
   15.9773   27.1526   -8.0188 O   0  0  0  0  0  0  0  0  0  0  0  0
   12.4052   24.7351   -0.9141 C   0  0  0  0  0  0  0  0  0  0  0  0
   12.1171   25.3019    0.3184 C   0  0  0  0  0  0  0  0  0  0  0  0
   11.0695   24.8418    1.0730 C   0  0  0  0  0  0  0  0  0  0  0  0
   10.2836   23.8026    0.6132 C   0  0  0  0  0  0  0  0  0  0  0  0
   10.5824   23.2542   -0.6067 C   0  0  0  0  0  0  0  0  0  0  0  0
   11.6239   23.6983   -1.3768 C   0  0  0  0  0  0  0  0  0  0  0  0
    9.1909   23.3427    1.4369 C   0  0  0  0  0  0  0  0  0  0  0  0
    8.8449   22.0184    1.4677 C   0  0  0  0  0  0  0  0  0  0  0  0
    7.8031   21.5744    2.2538 C   0  0  0  0  0  0  0  0  0  0  0  0
    7.0860   22.4847    3.0325 C   0  0  0  0  0  0  0  0  0  0  0  0
    7.4371   23.8168    2.9985 C   0  0  0  0  0  0  0  0  0  0  0  0
    8.4799   24.2214    2.2042 C   0  0  0  0  0  0  0  0  0  0  0  0
    5.9812   22.0310    3.8695 C   0  0  0  0  0  0  0  0  0  0  0  0
    5.8179   22.6213    5.1070 O   0  0  0  0  0  0  0  0  0  0  0  0
    5.2270   21.1323    3.4423 O   0  0  0  0  0  0  0  0  0  0  0  0
    5.2737   22.1362    5.8107 H   0  0  0  0  0  0  0  0  0  0  0  0
   18.7675   23.8430   -0.4445 C   0  0  0  0  0  0  0  0  0  0  0  0
   17.9341   23.0929    0.5290 C   0  0  0  0  0  0  0  0  0  0  0  0
   17.0924   22.1277    0.1546 N   0  0  0  0  0  0  0  0  0  0  0  0
   16.3227   21.4347    1.0034 C   0  0  0  0  0  0  0  0  0  0  0  0
   16.3996   21.7310    2.3465 C   0  0  0  0  0  0  0  0  0  0  0  0
   17.2380   22.7037    2.7945 C   0  0  0  0  0  0  0  0  0  0  0  0
   18.0134   23.3929    1.8814 C   0  0  0  0  0  0  0  0  0  0  0  0
   18.9394   24.4565    2.2926 C   0  0  0  0  0  0  0  0  0  0  0  0
 19 20  1  0  0  0
 20 13  1  0  0  0
 13 14  2  0  0  0
 14 15  1  0  0  0
 15 16  2  0  0  0
 16 17  1  0  0  0
 17 18  2  0  0  0
 15  1  1  0  0  0
  1  2  1  0  0  0
  2  3  2  0  0  0
  2  4  1  0  0  0
  4  5  1  0  0  0
  5  6  2  0  0  0
  5  7  1  0  0  0
  7  8  1  0  0  0
  8  9  1  0  0  0
  9 10  1  0  0  0
 10 37  1  0  0  0
 37 38  1  0  0  0
 38 39  2  0  0  0
 39 40  1  0  0  0
 40 41  2  0  0  0
 41 42  1  0  0  0
 42 43  2  0  0  0
 43 44  1  0  0  0
 10 11  1  0  0  0
 11 12  1  0  0  0
  4 21  1  0  0  0
 21 22  2  0  0  0
 22 23  1  0  0  0
 23 24  2  0  0  0
 24 25  1  0  0  0
 25 26  2  0  0  0
 24 27  1  0  0  0
 27 28  2  0  0  0
 28 29  1  0  0  0
 29 30  2  0  0  0
 30 31  1  0  0  0
 31 32  2  0  0  0
 30 33  1  0  0  0
 33 34  1  0  0  0
 33 35  2  0  0  0
 18 13  1  0  0  0
  7  1  1  0  0  0
 12  7  1  0  0  0
 26 21  1  0  0  0
 32 27  1  0  0  0
 43 38  1  0  0  0
 34 36  1  0  0  0
M  END
> <minimizedAffinity>
20.49406

> <CNNscore>
0.4717042744

> <CNNaffinity>
7.4586853981

> <CNN_VS>
3.5182938576

> <CNNaffinity_variance>
0.5181044340

$$$$
[H]OC(=O)c1c([H])c([H])c(-c2c([H])c([H])c(N3C(=O)N(c4nc([H])nc(OC([H])([H])[H])c4[H])C4(C3=O)C([H])([H])C([H])([H])N(C([H])([H])c3nc([H])c([H])c([H])c3C([H])([H])[H])C([H])([H])C4([H])[H])c([H])c2[H])c([H])c1[H]


 44 49  0  0  0  0  0  0  0  0999 V2000
    9.4435   22.4083    0.4809 N   0  0  0  0  0  0  0  0  0  0  0  0
    9.8036   23.4952   -0.3653 C   0  0  0  0  0  0  0  0  0  0  0  0
    9.1186   24.5239   -0.6681 O   0  0  0  0  0  0  0  0  0  0  0  0
   11.1094   23.2890   -0.8729 N   0  0  0  0  0  0  0  0  0  0  0  0
   11.5688   22.0677   -0.3421 C   0  0  0  0  0  0  0  0  0  0  0  0
   12.5350   21.3591   -0.7873 O   0  0  0  0  0  0  0  0  0  0  0  0
   10.7002   21.7698    0.8423 C   0  0  0  0  0  0  0  0  0  0  0  0
   10.4742   20.3019    0.9017 C   0  0  0  0  0  0  0  0  0  0  0  0
   11.3951   19.5424    1.7883 C   0  0  0  0  0  0  0  0  0  0  0  0
   12.4857   20.2394    2.3140 N   0  0  0  0  0  0  0  0  0  0  0  0
   12.2989   21.5438    2.7874 C   0  0  0  0  0  0  0  0  0  0  0  0
   11.2996   22.3762    2.0738 C   0  0  0  0  0  0  0  0  0  0  0  0
    6.3179   21.7765    2.4089 C   0  0  0  0  0  0  0  0  0  0  0  0
    7.6264   22.0813    2.1291 C   0  0  0  0  0  0  0  0  0  0  0  0
    8.1098   22.1102    0.8311 C   0  0  0  0  0  0  0  0  0  0  0  0
    7.2312   21.8247   -0.1474 N   0  0  0  0  0  0  0  0  0  0  0  0
    5.9506   21.5237    0.0878 C   0  0  0  0  0  0  0  0  0  0  0  0
    5.5123   21.5024    1.3398 N   0  0  0  0  0  0  0  0  0  0  0  0
    5.3520   20.5359    4.2526 C   0  0  0  0  0  0  0  0  0  0  0  0
    5.8202   21.7430    3.7035 O   0  0  0  0  0  0  0  0  0  0  0  0
   11.8290   24.1417   -1.7542 C   0  0  0  0  0  0  0  0  0  0  0  0
   13.0890   23.7548   -2.1857 C   0  0  0  0  0  0  0  0  0  0  0  0
   13.8121   24.5491   -3.0371 C   0  0  0  0  0  0  0  0  0  0  0  0
   13.2925   25.7511   -3.4781 C   0  0  0  0  0  0  0  0  0  0  0  0
   12.0463   26.1179   -3.0417 C   0  0  0  0  0  0  0  0  0  0  0  0
   11.3068   25.3398   -2.1915 C   0  0  0  0  0  0  0  0  0  0  0  0
   14.0844   26.5625   -4.3717 C   0  0  0  0  0  0  0  0  0  0  0  0
   14.7744   27.6495   -3.9063 C   0  0  0  0  0  0  0  0  0  0  0  0
   15.5330   28.4265   -4.7556 C   0  0  0  0  0  0  0  0  0  0  0  0
   15.6023   28.1048   -6.1124 C   0  0  0  0  0  0  0  0  0  0  0  0
   14.9060   27.0102   -6.5771 C   0  0  0  0  0  0  0  0  0  0  0  0
   14.1619   26.2604   -5.7018 C   0  0  0  0  0  0  0  0  0  0  0  0
   16.4003   28.9166   -7.0240 C   0  0  0  0  0  0  0  0  0  0  0  0
   17.0813   28.2751   -8.0395 O   0  0  0  0  0  0  0  0  0  0  0  0
   16.4403   30.1533   -6.8568 O   0  0  0  0  0  0  0  0  0  0  0  0
   17.8585   28.7513   -8.4822 H   0  0  0  0  0  0  0  0  0  0  0  0
   13.7438   19.6248    2.4203 C   0  0  0  0  0  0  0  0  0  0  0  0
   14.8225   20.3284    1.6812 C   0  0  0  0  0  0  0  0  0  0  0  0
   15.7480   21.0655    2.2980 N   0  0  0  0  0  0  0  0  0  0  0  0
   16.7310   21.7172    1.6640 C   0  0  0  0  0  0  0  0  0  0  0  0
   16.7970   21.6252    0.2910 C   0  0  0  0  0  0  0  0  0  0  0  0
   15.8845   20.8894   -0.3987 C   0  0  0  0  0  0  0  0  0  0  0  0
   14.8872   20.2341    0.2984 C   0  0  0  0  0  0  0  0  0  0  0  0
   13.8672   19.4233   -0.3801 C   0  0  0  0  0  0  0  0  0  0  0  0
 19 20  1  0  0  0
 20 13  1  0  0  0
 13 14  2  0  0  0
 14 15  1  0  0  0
 15 16  2  0  0  0
 16 17  1  0  0  0
 17 18  2  0  0  0
 15  1  1  0  0  0
  1  2  1  0  0  0
  2  3  2  0  0  0
  2  4  1  0  0  0
  4  5  1  0  0  0
  5  6  2  0  0  0
  5  7  1  0  0  0
  7  8  1  0  0  0
  8  9  1  0  0  0
  9 10  1  0  0  0
 10 37  1  0  0  0
 37 38  1  0  0  0
 38 39  2  0  0  0
 39 40  1  0  0  0
 40 41  2  0  0  0
 41 42  1  0  0  0
 42 43  2  0  0  0
 43 44  1  0  0  0
 10 11  1  0  0  0
 11 12  1  0  0  0
  4 21  1  0  0  0
 21 22  2  0  0  0
 22 23  1  0  0  0
 23 24  2  0  0  0
 24 25  1  0  0  0
 25 26  2  0  0  0
 24 27  1  0  0  0
 27 28  2  0  0  0
 28 29  1  0  0  0
 29 30  2  0  0  0
 30 31  1  0  0  0
 31 32  2  0  0  0
 30 33  1  0  0  0
 33 34  1  0  0  0
 33 35  2  0  0  0
 18 13  1  0  0  0
  7  1  1  0  0  0
 12  7  1  0  0  0
 26 21  1  0  0  0
 32 27  1  0  0  0
 43 38  1  0  0  0
 34 36  1  0  0  0
M  END
> <minimizedAffinity>
14.74833

> <CNNscore>
0.4422036111

> <CNNaffinity>
7.4260683060

> <CNN_VS>
3.2838342190

> <CNNaffinity_variance>
0.7983694077

$$$$
[H]OC(=O)c1c([H])c([H])c(-c2c([H])c([H])c(N3C(=O)N(c4nc([H])nc(OC([H])([H])[H])c4[H])C4(C3=O)C([H])([H])C([H])([H])N(C([H])([H])c3nc([H])c([H])c([H])c3C([H])([H])[H])C([H])([H])C4([H])[H])c([H])c2[H])c(C([H])([H])[H])c1[H]


 45 50  0  0  0  0  0  0  0  0999 V2000
   13.8076   26.7440   -3.6766 N   0  0  0  0  0  0  0  0  0  0  0  0
   14.0476   26.0204   -2.4377 C   0  0  0  0  0  0  0  0  0  0  0  0
   15.1408   25.8612   -1.8568 O   0  0  0  0  0  0  0  0  0  0  0  0
   12.7399   25.5434   -2.0410 N   0  0  0  0  0  0  0  0  0  0  0  0
   11.7798   25.9644   -2.9676 C   0  0  0  0  0  0  0  0  0  0  0  0
   10.6760   25.4402   -3.1961 O   0  0  0  0  0  0  0  0  0  0  0  0
   12.4444   27.1862   -3.5924 C   0  0  0  0  0  0  0  0  0  0  0  0
   12.3253   28.3465   -2.6783 C   0  0  0  0  0  0  0  0  0  0  0  0
   11.6726   29.5901   -3.3017 C   0  0  0  0  0  0  0  0  0  0  0  0
   10.7495   29.3278   -4.2363 N   0  0  0  0  0  0  0  0  0  0  0  0
   10.4640   27.9707   -4.6740 C   0  0  0  0  0  0  0  0  0  0  0  0
   11.8311   27.3409   -4.9479 C   0  0  0  0  0  0  0  0  0  0  0  0
   16.8691   27.6299   -5.4277 C   0  0  0  0  0  0  0  0  0  0  0  0
   16.0050   27.4152   -4.3982 C   0  0  0  0  0  0  0  0  0  0  0  0
   14.7947   26.8607   -4.6857 C   0  0  0  0  0  0  0  0  0  0  0  0
   14.5303   26.5455   -5.9428 N   0  0  0  0  0  0  0  0  0  0  0  0
   15.3847   26.7462   -6.9658 C   0  0  0  0  0  0  0  0  0  0  0  0
   16.5717   27.3051   -6.7072 N   0  0  0  0  0  0  0  0  0  0  0  0
   18.6000   28.2769   -3.8333 C   0  0  0  0  0  0  0  0  0  0  0  0
   18.0968   28.2037   -5.1448 O   0  0  0  0  0  0  0  0  0  0  0  0
   12.5920   24.6182   -0.9610 C   0  0  0  0  0  0  0  0  0  0  0  0
   12.5921   23.2614   -1.0480 C   0  0  0  0  0  0  0  0  0  0  0  0
   12.1470   22.4382   -0.0163 C   0  0  0  0  0  0  0  0  0  0  0  0
   11.6806   23.0063    1.1478 C   0  0  0  0  0  0  0  0  0  0  0  0
   11.6914   24.4152    1.2252 C   0  0  0  0  0  0  0  0  0  0  0  0
   12.1279   25.2176    0.2158 C   0  0  0  0  0  0  0  0  0  0  0  0
   10.9626   22.2620    2.1774 C   0  0  0  0  0  0  0  0  0  0  0  0
   11.4973   21.4457    3.0924 C   0  0  0  0  0  0  0  0  0  0  0  0
   10.6530   20.8080    4.0118 C   0  0  0  0  0  0  0  0  0  0  0  0
    9.3155   21.0043    4.0046 C   0  0  0  0  0  0  0  0  0  0  0  0
    8.7774   21.8607    3.0408 C   0  0  0  0  0  0  0  0  0  0  0  0
    9.5515   22.4706    2.1478 C   0  0  0  0  0  0  0  0  0  0  0  0
    8.9385   23.2258    0.9859 C   0  0  0  0  0  0  0  0  0  0  0  0
    8.3727   20.2520    4.8005 C   0  0  0  0  0  0  0  0  0  0  0  0
    8.8846   19.3459    5.7089 O   0  0  0  0  0  0  0  0  0  0  0  0
    7.1553   20.4070    4.6480 O   0  0  0  0  0  0  0  0  0  0  0  0
    9.6342   18.6956    5.3158 H   0  0  0  0  0  0  0  0  0  0  0  0
    9.8849   30.2324   -4.8277 C   0  0  0  0  0  0  0  0  0  0  0  0
    8.5831   29.5888   -5.0692 C   0  0  0  0  0  0  0  0  0  0  0  0
    8.3163   28.8277   -6.1426 N   0  0  0  0  0  0  0  0  0  0  0  0
    7.1527   28.1416   -6.2276 C   0  0  0  0  0  0  0  0  0  0  0  0
    6.2025   28.2151   -5.2282 C   0  0  0  0  0  0  0  0  0  0  0  0
    6.4529   28.9990   -4.1285 C   0  0  0  0  0  0  0  0  0  0  0  0
    7.6379   29.6627   -4.0730 C   0  0  0  0  0  0  0  0  0  0  0  0
    7.8946   30.5778   -2.9080 C   0  0  0  0  0  0  0  0  0  0  0  0
 19 20  1  0  0  0
 20 13  1  0  0  0
 13 14  2  0  0  0
 14 15  1  0  0  0
 15 16  2  0  0  0
 16 17  1  0  0  0
 17 18  2  0  0  0
 15  1  1  0  0  0
  1  2  1  0  0  0
  2  3  2  0  0  0
  2  4  1  0  0  0
  4  5  1  0  0  0
  5  6  2  0  0  0
  5  7  1  0  0  0
  7  8  1  0  0  0
  8  9  1  0  0  0
  9 10  1  0  0  0
 10 38  1  0  0  0
 38 39  1  0  0  0
 39 40  2  0  0  0
 40 41  1  0  0  0
 41 42  2  0  0  0
 42 43  1  0  0  0
 43 44  2  0  0  0
 44 45  1  0  0  0
 10 11  1  0  0  0
 11 12  1  0  0  0
  4 21  1  0  0  0
 21 22  2  0  0  0
 22 23  1  0  0  0
 23 24  2  0  0  0
 24 25  1  0  0  0
 25 26  2  0  0  0
 24 27  1  0  0  0
 27 28  2  0  0  0
 28 29  1  0  0  0
 29 30  2  0  0  0
 30 31  1  0  0  0
 31 32  2  0  0  0
 32 33  1  0  0  0
 30 34  1  0  0  0
 34 35  1  0  0  0
 34 36  2  0  0  0
 18 13  1  0  0  0
  7  1  1  0  0  0
 12  7  1  0  0  0
 26 21  1  0  0  0
 32 27  1  0  0  0
 44 39  1  0  0  0
 35 37  1  0  0  0
M  END
> <minimizedAffinity>
15.90636

> <CNNscore>
0.5771999359

> <CNNaffinity>
7.5628499985

> <CNN_VS>
4.3652763367

> <CNNaffinity_variance>
0.4822467864

$$$$
[H]OC(=O)c1c([H])c([H])c(-c2c([H])c([H])c(N3C(=O)N(c4nc([H])nc(OC([H])([H])[H])c4[H])C4(C3=O)C([H])([H])C([H])([H])N(C([H])([H])c3nc([H])c([H])c([H])c3C([H])([H])[H])C([H])([H])C4([H])[H])c([H])c2[H])c(C([H])([H])[H])c1[H]


 45 50  0  0  0  0  0  0  0  0999 V2000
   16.0047   24.5796   -0.6857 N   0  0  0  0  0  0  0  0  0  0  0  0
   14.8078   24.3138    0.0972 C   0  0  0  0  0  0  0  0  0  0  0  0
   14.7107   24.2871    1.3413 O   0  0  0  0  0  0  0  0  0  0  0  0
   13.7724   24.0986   -0.8910 N   0  0  0  0  0  0  0  0  0  0  0  0
   14.3061   24.2411   -2.1765 C   0  0  0  0  0  0  0  0  0  0  0  0
   13.8662   23.7511   -3.2309 O   0  0  0  0  0  0  0  0  0  0  0  0
   15.5264   25.1204   -1.9266 C   0  0  0  0  0  0  0  0  0  0  0  0
   15.1042   26.5306   -1.7556 C   0  0  0  0  0  0  0  0  0  0  0  0
   15.7906   27.5253   -2.7045 C   0  0  0  0  0  0  0  0  0  0  0  0
   16.1113   27.0232   -3.9042 N   0  0  0  0  0  0  0  0  0  0  0  0
   15.8975   25.6227   -4.2324 C   0  0  0  0  0  0  0  0  0  0  0  0
   16.4731   24.8405   -3.0503 C   0  0  0  0  0  0  0  0  0  0  0  0
   18.9139   24.2944    1.4774 C   0  0  0  0  0  0  0  0  0  0  0  0
   17.6199   24.4792    1.0977 C   0  0  0  0  0  0  0  0  0  0  0  0
   17.3020   24.2689   -0.2098 C   0  0  0  0  0  0  0  0  0  0  0  0
   18.2602   23.8814   -1.0352 N   0  0  0  0  0  0  0  0  0  0  0  0
   19.5415   23.6871   -0.6644 C   0  0  0  0  0  0  0  0  0  0  0  0
   19.8779   23.9045    0.6115 N   0  0  0  0  0  0  0  0  0  0  0  0
   19.3200   25.8133    3.3441 C   0  0  0  0  0  0  0  0  0  0  0  0
   19.2469   24.5172    2.8026 O   0  0  0  0  0  0  0  0  0  0  0  0
   12.4813   23.6171   -0.5094 C   0  0  0  0  0  0  0  0  0  0  0  0
   11.3037   24.2903   -0.6008 C   0  0  0  0  0  0  0  0  0  0  0  0
   10.1470   23.8823    0.0594 C   0  0  0  0  0  0  0  0  0  0  0  0
   10.1806   22.7523    0.8451 C   0  0  0  0  0  0  0  0  0  0  0  0
   11.4083   22.0615    0.9261 C   0  0  0  0  0  0  0  0  0  0  0  0
   12.5372   22.4617    0.2790 C   0  0  0  0  0  0  0  0  0  0  0  0
    9.1156   22.3820    1.7715 C   0  0  0  0  0  0  0  0  0  0  0  0
    8.3912   21.2577    1.7476 C   0  0  0  0  0  0  0  0  0  0  0  0
    7.4018   21.0648    2.7217 C   0  0  0  0  0  0  0  0  0  0  0  0
    7.1682   21.9792    3.6896 C   0  0  0  0  0  0  0  0  0  0  0  0
    7.9359   23.1465    3.6966 C   0  0  0  0  0  0  0  0  0  0  0  0
    8.8735   23.3633    2.7786 C   0  0  0  0  0  0  0  0  0  0  0  0
    9.5498   24.7152    2.6735 C   0  0  0  0  0  0  0  0  0  0  0  0
    6.0572   21.9300    4.6123 C   0  0  0  0  0  0  0  0  0  0  0  0
    6.1780   22.6345    5.7944 O   0  0  0  0  0  0  0  0  0  0  0  0
    5.0511   21.2601    4.3512 O   0  0  0  0  0  0  0  0  0  0  0  0
    7.0956   22.4762    6.3161 H   0  0  0  0  0  0  0  0  0  0  0  0
   16.5673   27.7271   -5.0052 C   0  0  0  0  0  0  0  0  0  0  0  0
   16.1180   27.0623   -6.2395 C   0  0  0  0  0  0  0  0  0  0  0  0
   16.9429   26.7117   -7.2391 N   0  0  0  0  0  0  0  0  0  0  0  0
   16.4907   25.9679   -8.2756 C   0  0  0  0  0  0  0  0  0  0  0  0
   15.1723   25.5631   -8.3461 C   0  0  0  0  0  0  0  0  0  0  0  0
   14.3110   25.9234   -7.3387 C   0  0  0  0  0  0  0  0  0  0  0  0
   14.8049   26.6596   -6.3081 C   0  0  0  0  0  0  0  0  0  0  0  0
   13.8575   27.1186   -5.2347 C   0  0  0  0  0  0  0  0  0  0  0  0
 19 20  1  0  0  0
 20 13  1  0  0  0
 13 14  2  0  0  0
 14 15  1  0  0  0
 15 16  2  0  0  0
 16 17  1  0  0  0
 17 18  2  0  0  0
 15  1  1  0  0  0
  1  2  1  0  0  0
  2  3  2  0  0  0
  2  4  1  0  0  0
  4  5  1  0  0  0
  5  6  2  0  0  0
  5  7  1  0  0  0
  7  8  1  0  0  0
  8  9  1  0  0  0
  9 10  1  0  0  0
 10 38  1  0  0  0
 38 39  1  0  0  0
 39 40  2  0  0  0
 40 41  1  0  0  0
 41 42  2  0  0  0
 42 43  1  0  0  0
 43 44  2  0  0  0
 44 45  1  0  0  0
 10 11  1  0  0  0
 11 12  1  0  0  0
  4 21  1  0  0  0
 21 22  2  0  0  0
 22 23  1  0  0  0
 23 24  2  0  0  0
 24 25  1  0  0  0
 25 26  2  0  0  0
 24 27  1  0  0  0
 27 28  2  0  0  0
 28 29  1  0  0  0
 29 30  2  0  0  0
 30 31  1  0  0  0
 31 32  2  0  0  0
 32 33  1  0  0  0
 30 34  1  0  0  0
 34 35  1  0  0  0
 34 36  2  0  0  0
 18 13  1  0  0  0
  7  1  1  0  0  0
 12  7  1  0  0  0
 26 21  1  0  0  0
 32 27  1  0  0  0
 44 39  1  0  0  0
 35 37  1  0  0  0
M  END
> <minimizedAffinity>
12.37876

> <CNNscore>
0.5750544667

> <CNNaffinity>
7.9009337425

> <CNN_VS>
4.5434670448

> <CNNaffinity_variance>
0.5094350576

$$$$
[H]OC(=O)c1c([H])c([H])c(-c2c([H])c([H])c(N3C(=O)N(c4nc([H])nc(OC([H])([H])[H])c4[H])C4(C3=O)C([H])([H])C([H])([H])N(C([H])([H])c3nc([H])c([H])c([H])c3C([H])([H])[H])C([H])([H])C4([H])[H])c([H])c2[H])c(C([H])([H])[H])c1[H]


 45 50  0  0  0  0  0  0  0  0999 V2000
   13.8366   27.0218   -4.1375 N   0  0  0  0  0  0  0  0  0  0  0  0
   14.2380   26.2569   -2.9671 C   0  0  0  0  0  0  0  0  0  0  0  0
   15.3951   26.1093   -2.5229 O   0  0  0  0  0  0  0  0  0  0  0  0
   12.9985   25.7227   -2.4443 N   0  0  0  0  0  0  0  0  0  0  0  0
   11.9265   26.1499   -3.2354 C   0  0  0  0  0  0  0  0  0  0  0  0
   10.8182   25.6005   -3.3585 O   0  0  0  0  0  0  0  0  0  0  0  0
   12.4809   27.4165   -3.8783 C   0  0  0  0  0  0  0  0  0  0  0  0
   12.4372   28.5347   -2.9067 C   0  0  0  0  0  0  0  0  0  0  0  0
   11.6832   29.7809   -3.3962 C   0  0  0  0  0  0  0  0  0  0  0  0
   10.6655   29.5272   -4.2293 N   0  0  0  0  0  0  0  0  0  0  0  0
   10.3680   28.1804   -4.6903 C   0  0  0  0  0  0  0  0  0  0  0  0
   11.7106   27.6061   -5.1464 C   0  0  0  0  0  0  0  0  0  0  0  0
   15.6900   26.4338   -7.2104 C   0  0  0  0  0  0  0  0  0  0  0  0
   14.7529   26.2758   -6.2359 C   0  0  0  0  0  0  0  0  0  0  0  0
   14.6965   27.2105   -5.2470 C   0  0  0  0  0  0  0  0  0  0  0  0
   15.5407   28.2277   -5.2946 N   0  0  0  0  0  0  0  0  0  0  0  0
   16.4646   28.3958   -6.2615 C   0  0  0  0  0  0  0  0  0  0  0  0
   16.5477   27.4801   -7.2326 N   0  0  0  0  0  0  0  0  0  0  0  0
   16.9906   24.9930   -8.6901 C   0  0  0  0  0  0  0  0  0  0  0  0
   15.7609   25.4815   -8.2128 O   0  0  0  0  0  0  0  0  0  0  0  0
   13.0018   24.7505   -1.3960 C   0  0  0  0  0  0  0  0  0  0  0  0
   13.0559   23.3998   -1.5411 C   0  0  0  0  0  0  0  0  0  0  0  0
   12.7542   22.5163   -0.5073 C   0  0  0  0  0  0  0  0  0  0  0  0
   12.3806   23.0152    0.7203 C   0  0  0  0  0  0  0  0  0  0  0  0
   12.3340   24.4188    0.8570 C   0  0  0  0  0  0  0  0  0  0  0  0
   12.6303   25.2803   -0.1547 C   0  0  0  0  0  0  0  0  0  0  0  0
   11.8039   22.1968    1.7820 C   0  0  0  0  0  0  0  0  0  0  0  0
   10.7373   22.4967    2.5317 C   0  0  0  0  0  0  0  0  0  0  0  0
   10.3182   21.5880    3.5132 C   0  0  0  0  0  0  0  0  0  0  0  0
   10.9565   20.4134    3.7145 C   0  0  0  0  0  0  0  0  0  0  0  0
   12.0680   20.1195    2.9208 C   0  0  0  0  0  0  0  0  0  0  0  0
   12.4967   20.9670    1.9898 C   0  0  0  0  0  0  0  0  0  0  0  0
   13.8172   20.7324    1.2847 C   0  0  0  0  0  0  0  0  0  0  0  0
   10.6918   19.5151    4.8151 C   0  0  0  0  0  0  0  0  0  0  0  0
   11.1614   18.2203    4.7090 O   0  0  0  0  0  0  0  0  0  0  0  0
   10.0480   19.8977    5.7992 O   0  0  0  0  0  0  0  0  0  0  0  0
   10.9397   17.7401    3.7819 H   0  0  0  0  0  0  0  0  0  0  0  0
    9.7140   30.4268   -4.6776 C   0  0  0  0  0  0  0  0  0  0  0  0
    8.4619   29.7144   -4.9806 C   0  0  0  0  0  0  0  0  0  0  0  0
    8.2653   28.9965   -6.0981 N   0  0  0  0  0  0  0  0  0  0  0  0
    7.1509   28.2422   -6.2441 C   0  0  0  0  0  0  0  0  0  0  0  0
    6.1800   28.2001   -5.2630 C   0  0  0  0  0  0  0  0  0  0  0  0
    6.3584   28.9382   -4.1185 C   0  0  0  0  0  0  0  0  0  0  0  0
    7.4960   29.6732   -4.0026 C   0  0  0  0  0  0  0  0  0  0  0  0
    7.6709   30.5389   -2.7858 C   0  0  0  0  0  0  0  0  0  0  0  0
 19 20  1  0  0  0
 20 13  1  0  0  0
 13 14  2  0  0  0
 14 15  1  0  0  0
 15 16  2  0  0  0
 16 17  1  0  0  0
 17 18  2  0  0  0
 15  1  1  0  0  0
  1  2  1  0  0  0
  2  3  2  0  0  0
  2  4  1  0  0  0
  4  5  1  0  0  0
  5  6  2  0  0  0
  5  7  1  0  0  0
  7  8  1  0  0  0
  8  9  1  0  0  0
  9 10  1  0  0  0
 10 38  1  0  0  0
 38 39  1  0  0  0
 39 40  2  0  0  0
 40 41  1  0  0  0
 41 42  2  0  0  0
 42 43  1  0  0  0
 43 44  2  0  0  0
 44 45  1  0  0  0
 10 11  1  0  0  0
 11 12  1  0  0  0
  4 21  1  0  0  0
 21 22  2  0  0  0
 22 23  1  0  0  0
 23 24  2  0  0  0
 24 25  1  0  0  0
 25 26  2  0  0  0
 24 27  1  0  0  0
 27 28  2  0  0  0
 28 29  1  0  0  0
 29 30  2  0  0  0
 30 31  1  0  0  0
 31 32  2  0  0  0
 32 33  1  0  0  0
 30 34  1  0  0  0
 34 35  1  0  0  0
 34 36  2  0  0  0
 18 13  1  0  0  0
  7  1  1  0  0  0
 12  7  1  0  0  0
 26 21  1  0  0  0
 32 27  1  0  0  0
 44 39  1  0  0  0
 35 37  1  0  0  0
M  END
> <minimizedAffinity>
13.43947

> <CNNscore>
0.5611781478

> <CNNaffinity>
7.6412429810

> <CNN_VS>
4.2880988121

> <CNNaffinity_variance>
0.5822538137

$$$$
[H]OC(=O)c1c([H])c([H])c(-c2c([H])c([H])c(N3C(=O)N(c4nc([H])nc(OC([H])([H])[H])c4[H])C4(C3=O)C([H])([H])C([H])([H])N(C([H])([H])c3nc([H])c([H])c([H])c3C([H])([H])[H])C([H])([H])C4([H])[H])c([H])c2[H])c(C([H])([H])[H])c1[H]


 45 50  0  0  0  0  0  0  0  0999 V2000
   14.8921   24.6234   -0.5437 N   0  0  0  0  0  0  0  0  0  0  0  0
   14.1429   24.2890    0.6575 C   0  0  0  0  0  0  0  0  0  0  0  0
   14.4403   24.5740    1.8358 O   0  0  0  0  0  0  0  0  0  0  0  0
   12.9870   23.5666    0.1707 N   0  0  0  0  0  0  0  0  0  0  0  0
   13.0305   23.4867   -1.2255 C   0  0  0  0  0  0  0  0  0  0  0  0
   12.4777   22.6385   -1.9468 O   0  0  0  0  0  0  0  0  0  0  0  0
   13.9127   24.6751   -1.5921 C   0  0  0  0  0  0  0  0  0  0  0  0
   13.1265   25.9289   -1.5134 C   0  0  0  0  0  0  0  0  0  0  0  0
   13.1307   26.7705   -2.7990 C   0  0  0  0  0  0  0  0  0  0  0  0
   13.2194   26.0607   -3.9315 N   0  0  0  0  0  0  0  0  0  0  0  0
   13.3852   24.6160   -3.9213 C   0  0  0  0  0  0  0  0  0  0  0  0
   14.5127   24.3480   -2.9226 C   0  0  0  0  0  0  0  0  0  0  0  0
   18.2629   25.6020   -1.4947 C   0  0  0  0  0  0  0  0  0  0  0  0
   16.9023   25.5856   -1.4564 C   0  0  0  0  0  0  0  0  0  0  0  0
   16.2993   24.7839   -0.5351 C   0  0  0  0  0  0  0  0  0  0  0  0
   17.0645   24.0794    0.2819 N   0  0  0  0  0  0  0  0  0  0  0  0
   18.4120   24.0981    0.2562 C   0  0  0  0  0  0  0  0  0  0  0  0
   19.0236   24.8657   -0.6521 N   0  0  0  0  0  0  0  0  0  0  0  0
   18.2254   27.4970   -3.0324 C   0  0  0  0  0  0  0  0  0  0  0  0
   18.8828   26.4058   -2.4361 O   0  0  0  0  0  0  0  0  0  0  0  0
   12.1025   22.9005    1.0752 C   0  0  0  0  0  0  0  0  0  0  0  0
   12.0086   21.5597    1.2797 C   0  0  0  0  0  0  0  0  0  0  0  0
   10.9339   20.9698    1.9412 C   0  0  0  0  0  0  0  0  0  0  0  0
    9.9126   21.7637    2.4123 C   0  0  0  0  0  0  0  0  0  0  0  0
   10.0266   23.1536    2.1971 C   0  0  0  0  0  0  0  0  0  0  0  0
   11.0785   23.7278    1.5511 C   0  0  0  0  0  0  0  0  0  0  0  0
    8.6356   21.2391    2.8854 C   0  0  0  0  0  0  0  0  0  0  0  0
    7.5045   21.1333    2.1790 C   0  0  0  0  0  0  0  0  0  0  0  0
    6.3637   20.6022    2.7965 C   0  0  0  0  0  0  0  0  0  0  0  0
    6.3796   20.1849    4.0823 C   0  0  0  0  0  0  0  0  0  0  0  0
    7.5710   20.3041    4.8022 C   0  0  0  0  0  0  0  0  0  0  0  0
    8.6663   20.8151    4.2473 C   0  0  0  0  0  0  0  0  0  0  0  0
    9.8829   21.1301    5.0940 C   0  0  0  0  0  0  0  0  0  0  0  0
    5.2072   19.7944    4.8315 C   0  0  0  0  0  0  0  0  0  0  0  0
    4.6860   18.5378    4.5914 O   0  0  0  0  0  0  0  0  0  0  0  0
    4.6867   20.5743    5.6378 O   0  0  0  0  0  0  0  0  0  0  0  0
    4.5587   18.2976    3.5593 H   0  0  0  0  0  0  0  0  0  0  0  0
   13.0661   26.5337   -5.2232 C   0  0  0  0  0  0  0  0  0  0  0  0
   14.3162   27.1699   -5.6700 C   0  0  0  0  0  0  0  0  0  0  0  0
   14.8746   28.2261   -5.0573 N   0  0  0  0  0  0  0  0  0  0  0  0
   16.1006   28.6660   -5.4251 C   0  0  0  0  0  0  0  0  0  0  0  0
   16.8042   28.0576   -6.4458 C   0  0  0  0  0  0  0  0  0  0  0  0
   16.2430   26.9836   -7.0924 C   0  0  0  0  0  0  0  0  0  0  0  0
   15.0158   26.5628   -6.6864 C   0  0  0  0  0  0  0  0  0  0  0  0
   14.3613   25.4326   -7.4314 C   0  0  0  0  0  0  0  0  0  0  0  0
 19 20  1  0  0  0
 20 13  1  0  0  0
 13 14  2  0  0  0
 14 15  1  0  0  0
 15 16  2  0  0  0
 16 17  1  0  0  0
 17 18  2  0  0  0
 15  1  1  0  0  0
  1  2  1  0  0  0
  2  3  2  0  0  0
  2  4  1  0  0  0
  4  5  1  0  0  0
  5  6  2  0  0  0
  5  7  1  0  0  0
  7  8  1  0  0  0
  8  9  1  0  0  0
  9 10  1  0  0  0
 10 38  1  0  0  0
 38 39  1  0  0  0
 39 40  2  0  0  0
 40 41  1  0  0  0
 41 42  2  0  0  0
 42 43  1  0  0  0
 43 44  2  0  0  0
 44 45  1  0  0  0
 10 11  1  0  0  0
 11 12  1  0  0  0
  4 21  1  0  0  0
 21 22  2  0  0  0
 22 23  1  0  0  0
 23 24  2  0  0  0
 24 25  1  0  0  0
 25 26  2  0  0  0
 24 27  1  0  0  0
 27 28  2  0  0  0
 28 29  1  0  0  0
 29 30  2  0  0  0
 30 31  1  0  0  0
 31 32  2  0  0  0
 32 33  1  0  0  0
 30 34  1  0  0  0
 34 35  1  0  0  0
 34 36  2  0  0  0
 18 13  1  0  0  0
  7  1  1  0  0  0
 12  7  1  0  0  0
 26 21  1  0  0  0
 32 27  1  0  0  0
 44 39  1  0  0  0
 35 37  1  0  0  0
M  END
> <minimizedAffinity>
10.12356

> <CNNscore>
0.5569157004

> <CNNaffinity>
7.8240442276

> <CNN_VS>
4.3573331833

> <CNNaffinity_variance>
0.6611704826

$$$$
[H]OC(=O)c1c([H])c([H])c(-c2c([H])c([H])c(N3C(=O)N(c4nc([H])nc(OC([H])([H])[H])c4[H])C4(C3=O)C([H])([H])C([H])([H])N(C([H])([H])c3nc([H])c([H])c([H])c3C([H])([H])[H])C([H])([H])C4([H])[H])c([H])c2[H])c(C([H])([H])[H])c1[H]


 45 50  0  0  0  0  0  0  0  0999 V2000
   11.9699   22.5169    0.2312 N   0  0  0  0  0  0  0  0  0  0  0  0
   12.5310   22.6980   -1.0987 C   0  0  0  0  0  0  0  0  0  0  0  0
   13.0030   21.8157   -1.8448 O   0  0  0  0  0  0  0  0  0  0  0  0
   12.4075   24.1180   -1.3506 N   0  0  0  0  0  0  0  0  0  0  0  0
   11.8005   24.7432   -0.2560 C   0  0  0  0  0  0  0  0  0  0  0  0
   11.8935   25.9384    0.0729 O   0  0  0  0  0  0  0  0  0  0  0  0
   11.0350   23.5945    0.3916 C   0  0  0  0  0  0  0  0  0  0  0  0
    9.7912   23.3267   -0.3683 C   0  0  0  0  0  0  0  0  0  0  0  0
    8.5045   23.3728    0.4703 C   0  0  0  0  0  0  0  0  0  0  0  0
    8.5358   24.2345    1.4954 N   0  0  0  0  0  0  0  0  0  0  0  0
    9.7320   24.9934    1.8242 C   0  0  0  0  0  0  0  0  0  0  0  0
   10.8686   23.9693    1.8300 C   0  0  0  0  0  0  0  0  0  0  0  0
   13.9579   19.8645    1.7268 C   0  0  0  0  0  0  0  0  0  0  0  0
   13.6439   20.9506    0.9686 C   0  0  0  0  0  0  0  0  0  0  0  0
   12.3939   21.4767    1.0938 C   0  0  0  0  0  0  0  0  0  0  0  0
   11.5598   20.9173    1.9546 N   0  0  0  0  0  0  0  0  0  0  0  0
   11.8670   19.8481    2.7156 C   0  0  0  0  0  0  0  0  0  0  0  0
   13.0835   19.3059    2.5953 N   0  0  0  0  0  0  0  0  0  0  0  0
   16.3093   20.0622    1.1034 C   0  0  0  0  0  0  0  0  0  0  0  0
   15.2228   19.3173    1.5966 O   0  0  0  0  0  0  0  0  0  0  0  0
   13.0292   24.7188   -2.4893 C   0  0  0  0  0  0  0  0  0  0  0  0
   14.2818   24.4708   -2.9561 C   0  0  0  0  0  0  0  0  0  0  0  0
   14.9238   25.2991   -3.8737 C   0  0  0  0  0  0  0  0  0  0  0  0
   14.2777   26.4234   -4.3363 C   0  0  0  0  0  0  0  0  0  0  0  0
   12.9765   26.6647   -3.8468 C   0  0  0  0  0  0  0  0  0  0  0  0
   12.3508   25.8530   -2.9506 C   0  0  0  0  0  0  0  0  0  0  0  0
   14.9413   27.4825   -5.0897 C   0  0  0  0  0  0  0  0  0  0  0  0
   15.0386   28.7703   -4.7410 C   0  0  0  0  0  0  0  0  0  0  0  0
   15.7165   29.6559   -5.5900 C   0  0  0  0  0  0  0  0  0  0  0  0
   16.2829   29.2410   -6.7453 C   0  0  0  0  0  0  0  0  0  0  0  0
   16.1698   27.8921   -7.0909 C   0  0  0  0  0  0  0  0  0  0  0  0
   15.5224   27.0303   -6.3118 C   0  0  0  0  0  0  0  0  0  0  0  0
   15.2289   25.6249   -6.7963 C   0  0  0  0  0  0  0  0  0  0  0  0
   16.8396   30.1211   -7.7472 C   0  0  0  0  0  0  0  0  0  0  0  0
   17.0727   29.5927   -9.0021 O   0  0  0  0  0  0  0  0  0  0  0  0
   17.1135   31.2952   -7.4718 O   0  0  0  0  0  0  0  0  0  0  0  0
   17.5916   28.6600   -9.0037 H   0  0  0  0  0  0  0  0  0  0  0  0
    7.4727   24.6114    2.2974 C   0  0  0  0  0  0  0  0  0  0  0  0
    7.9630   25.4309    3.4178 C   0  0  0  0  0  0  0  0  0  0  0  0
    8.1263   26.7619    3.3514 N   0  0  0  0  0  0  0  0  0  0  0  0
    8.4330   27.4737    4.4610 C   0  0  0  0  0  0  0  0  0  0  0  0
    8.6029   26.8565    5.6845 C   0  0  0  0  0  0  0  0  0  0  0  0
    8.4522   25.4939    5.7688 C   0  0  0  0  0  0  0  0  0  0  0  0
    8.1315   24.8148    4.6357 C   0  0  0  0  0  0  0  0  0  0  0  0
    8.0317   23.3160    4.7006 C   0  0  0  0  0  0  0  0  0  0  0  0
 19 20  1  0  0  0
 20 13  1  0  0  0
 13 14  2  0  0  0
 14 15  1  0  0  0
 15 16  2  0  0  0
 16 17  1  0  0  0
 17 18  2  0  0  0
 15  1  1  0  0  0
  1  2  1  0  0  0
  2  3  2  0  0  0
  2  4  1  0  0  0
  4  5  1  0  0  0
  5  6  2  0  0  0
  5  7  1  0  0  0
  7  8  1  0  0  0
  8  9  1  0  0  0
  9 10  1  0  0  0
 10 38  1  0  0  0
 38 39  1  0  0  0
 39 40  2  0  0  0
 40 41  1  0  0  0
 41 42  2  0  0  0
 42 43  1  0  0  0
 43 44  2  0  0  0
 44 45  1  0  0  0
 10 11  1  0  0  0
 11 12  1  0  0  0
  4 21  1  0  0  0
 21 22  2  0  0  0
 22 23  1  0  0  0
 23 24  2  0  0  0
 24 25  1  0  0  0
 25 26  2  0  0  0
 24 27  1  0  0  0
 27 28  2  0  0  0
 28 29  1  0  0  0
 29 30  2  0  0  0
 30 31  1  0  0  0
 31 32  2  0  0  0
 32 33  1  0  0  0
 30 34  1  0  0  0
 34 35  1  0  0  0
 34 36  2  0  0  0
 18 13  1  0  0  0
  7  1  1  0  0  0
 12  7  1  0  0  0
 26 21  1  0  0  0
 32 27  1  0  0  0
 44 39  1  0  0  0
 35 37  1  0  0  0
M  END
> <minimizedAffinity>
9.41887

> <CNNscore>
0.5243815780

> <CNNaffinity>
7.8431730270

> <CNN_VS>
4.1128153801

> <CNNaffinity_variance>
0.4191984534

$$$$
[H]OC(=O)c1c([H])c([H])c(-c2c([H])c([H])c(N3C(=O)N(c4nc([H])nc(OC([H])([H])[H])c4[H])C4(C3=O)C([H])([H])C([H])([H])N(C([H])([H])c3nc([H])c([H])c([H])c3C([H])([H])[H])C([H])([H])C4([H])[H])c([H])c2[H])c(C([H])([H])[H])c1[H]


 45 50  0  0  0  0  0  0  0  0999 V2000
   13.8763   25.4600   -2.3782 N   0  0  0  0  0  0  0  0  0  0  0  0
   12.5287   25.0455   -2.0199 C   0  0  0  0  0  0  0  0  0  0  0  0
   11.5663   24.8592   -2.7925 O   0  0  0  0  0  0  0  0  0  0  0  0
   12.5696   24.8954   -0.5809 N   0  0  0  0  0  0  0  0  0  0  0  0
   13.8551   25.1837   -0.1098 C   0  0  0  0  0  0  0  0  0  0  0  0
   14.1701   25.5554    1.0339 O   0  0  0  0  0  0  0  0  0  0  0  0
   14.7173   24.9314   -1.3418 C   0  0  0  0  0  0  0  0  0  0  0  0
   14.9209   23.4749   -1.5240 C   0  0  0  0  0  0  0  0  0  0  0  0
   16.3918   23.0374   -1.6023 C   0  0  0  0  0  0  0  0  0  0  0  0
   17.2366   23.7851   -0.8802 N   0  0  0  0  0  0  0  0  0  0  0  0
   16.7908   24.9647   -0.1558 C   0  0  0  0  0  0  0  0  0  0  0  0
   15.9503   25.7580   -1.1582 C   0  0  0  0  0  0  0  0  0  0  0  0
   15.4873   27.7775   -4.6712 C   0  0  0  0  0  0  0  0  0  0  0  0
   15.3310   26.9150   -3.6298 C   0  0  0  0  0  0  0  0  0  0  0  0
   14.1420   26.2605   -3.5161 C   0  0  0  0  0  0  0  0  0  0  0  0
   13.2118   26.4836   -4.4295 N   0  0  0  0  0  0  0  0  0  0  0  0
   13.3630   27.3286   -5.4687 C   0  0  0  0  0  0  0  0  0  0  0  0
   14.5168   27.9940   -5.5889 N   0  0  0  0  0  0  0  0  0  0  0  0
   17.8370   28.0620   -4.0754 C   0  0  0  0  0  0  0  0  0  0  0  0
   16.6890   28.4551   -4.7869 O   0  0  0  0  0  0  0  0  0  0  0  0
   11.3716   24.6812    0.1697 C   0  0  0  0  0  0  0  0  0  0  0  0
   11.1166   25.1134    1.4332 C   0  0  0  0  0  0  0  0  0  0  0  0
   10.0667   24.6186    2.2034 C   0  0  0  0  0  0  0  0  0  0  0  0
    9.2436   23.6476    1.6792 C   0  0  0  0  0  0  0  0  0  0  0  0
    9.5175   23.2128    0.3651 C   0  0  0  0  0  0  0  0  0  0  0  0
   10.5438   23.6987   -0.3861 C   0  0  0  0  0  0  0  0  0  0  0  0
    8.2866   22.8856    2.4750 C   0  0  0  0  0  0  0  0  0  0  0  0
    8.0082   21.5824    2.3572 C   0  0  0  0  0  0  0  0  0  0  0  0
    7.0547   21.0105    3.2108 C   0  0  0  0  0  0  0  0  0  0  0  0
    6.4178   21.7380    4.1555 C   0  0  0  0  0  0  0  0  0  0  0  0
    6.7232   23.0972    4.2618 C   0  0  0  0  0  0  0  0  0  0  0  0
    7.6144   23.6708    3.4584 C   0  0  0  0  0  0  0  0  0  0  0  0
    7.7815   25.1768    3.4448 C   0  0  0  0  0  0  0  0  0  0  0  0
    5.3060   21.2610    4.9457 C   0  0  0  0  0  0  0  0  0  0  0  0
    4.6923   22.1628    5.7934 O   0  0  0  0  0  0  0  0  0  0  0  0
    4.9422   20.0813    4.8730 O   0  0  0  0  0  0  0  0  0  0  0  0
    5.3615   22.7269    6.4043 H   0  0  0  0  0  0  0  0  0  0  0  0
   18.5703   23.5192   -0.6230 C   0  0  0  0  0  0  0  0  0  0  0  0
   18.9206   23.9984    0.7242 C   0  0  0  0  0  0  0  0  0  0  0  0
   18.1026   23.9029    1.7846 N   0  0  0  0  0  0  0  0  0  0  0  0
   18.5429   24.2218    3.0241 C   0  0  0  0  0  0  0  0  0  0  0  0
   19.8328   24.6681    3.2340 C   0  0  0  0  0  0  0  0  0  0  0  0
   20.6797   24.7841    2.1590 C   0  0  0  0  0  0  0  0  0  0  0  0
   20.2055   24.4424    0.9317 C   0  0  0  0  0  0  0  0  0  0  0  0
   21.1003   24.6304   -0.2619 C   0  0  0  0  0  0  0  0  0  0  0  0
 19 20  1  0  0  0
 20 13  1  0  0  0
 13 14  2  0  0  0
 14 15  1  0  0  0
 15 16  2  0  0  0
 16 17  1  0  0  0
 17 18  2  0  0  0
 15  1  1  0  0  0
  1  2  1  0  0  0
  2  3  2  0  0  0
  2  4  1  0  0  0
  4  5  1  0  0  0
  5  6  2  0  0  0
  5  7  1  0  0  0
  7  8  1  0  0  0
  8  9  1  0  0  0
  9 10  1  0  0  0
 10 38  1  0  0  0
 38 39  1  0  0  0
 39 40  2  0  0  0
 40 41  1  0  0  0
 41 42  2  0  0  0
 42 43  1  0  0  0
 43 44  2  0  0  0
 44 45  1  0  0  0
 10 11  1  0  0  0
 11 12  1  0  0  0
  4 21  1  0  0  0
 21 22  2  0  0  0
 22 23  1  0  0  0
 23 24  2  0  0  0
 24 25  1  0  0  0
 25 26  2  0  0  0
 24 27  1  0  0  0
 27 28  2  0  0  0
 28 29  1  0  0  0
 29 30  2  0  0  0
 30 31  1  0  0  0
 31 32  2  0  0  0
 32 33  1  0  0  0
 30 34  1  0  0  0
 34 35  1  0  0  0
 34 36  2  0  0  0
 18 13  1  0  0  0
  7  1  1  0  0  0
 12  7  1  0  0  0
 26 21  1  0  0  0
 32 27  1  0  0  0
 44 39  1  0  0  0
 35 37  1  0  0  0
M  END
> <minimizedAffinity>
23.25165

> <CNNscore>
0.4928518534

> <CNNaffinity>
7.6960382462

> <CNN_VS>
3.7930066586

> <CNNaffinity_variance>
0.3526400030

$$$$
[H]OC(=O)c1c([H])c([H])c(-c2c([H])c([H])c(N3C(=O)N(c4nc([H])nc(OC([H])([H])[H])c4[H])C4(C3=O)C([H])([H])C([H])([H])N(C([H])([H])c3nc([H])c([H])c([H])c3C([H])([H])[H])C([H])([H])C4([H])[H])c([H])c2[H])c(C([H])([H])[H])c1[H]


 45 50  0  0  0  0  0  0  0  0999 V2000
   13.9901   25.0461   -3.0779 N   0  0  0  0  0  0  0  0  0  0  0  0
   13.9884   24.3196   -1.8176 C   0  0  0  0  0  0  0  0  0  0  0  0
   14.9585   23.7558   -1.2707 O   0  0  0  0  0  0  0  0  0  0  0  0
   12.6208   24.4102   -1.3524 N   0  0  0  0  0  0  0  0  0  0  0  0
   11.8585   25.1524   -2.2610 C   0  0  0  0  0  0  0  0  0  0  0  0
   10.6273   25.1026   -2.4253 O   0  0  0  0  0  0  0  0  0  0  0  0
   12.9182   25.9942   -2.9635 C   0  0  0  0  0  0  0  0  0  0  0  0
   13.3136   27.1304   -2.0982 C   0  0  0  0  0  0  0  0  0  0  0  0
   13.1732   28.5139   -2.7520 C   0  0  0  0  0  0  0  0  0  0  0  0
   12.1750   28.6142   -3.6395 N   0  0  0  0  0  0  0  0  0  0  0  0
   11.3552   27.4701   -4.0056 C   0  0  0  0  0  0  0  0  0  0  0  0
   12.3470   26.3433   -4.3011 C   0  0  0  0  0  0  0  0  0  0  0  0
   15.8704   25.2338   -6.1849 C   0  0  0  0  0  0  0  0  0  0  0  0
   15.1041   25.6295   -5.1318 C   0  0  0  0  0  0  0  0  0  0  0  0
   14.8900   24.7357   -4.1267 C   0  0  0  0  0  0  0  0  0  0  0  0
   15.4499   23.5408   -4.2182 N   0  0  0  0  0  0  0  0  0  0  0  0
   16.2177   23.1455   -5.2531 C   0  0  0  0  0  0  0  0  0  0  0  0
   16.4262   24.0023   -6.2585 N   0  0  0  0  0  0  0  0  0  0  0  0
   16.2054   25.7165   -8.5538 C   0  0  0  0  0  0  0  0  0  0  0  0
   16.0830   26.1330   -7.2159 O   0  0  0  0  0  0  0  0  0  0  0  0
   12.1756   23.6481   -0.2277 C   0  0  0  0  0  0  0  0  0  0  0  0
   12.0951   22.2934   -0.1449 C   0  0  0  0  0  0  0  0  0  0  0  0
   11.3783   21.6389    0.8541 C   0  0  0  0  0  0  0  0  0  0  0  0
   10.7143   22.3802    1.8053 C   0  0  0  0  0  0  0  0  0  0  0  0
   10.8112   23.7846    1.7094 C   0  0  0  0  0  0  0  0  0  0  0  0
   11.5133   24.4221    0.7325 C   0  0  0  0  0  0  0  0  0  0  0  0
    9.7381   21.8155    2.7315 C   0  0  0  0  0  0  0  0  0  0  0  0
   10.0013   21.1498    3.8616 C   0  0  0  0  0  0  0  0  0  0  0  0
    8.9338   20.6740    4.6355 C   0  0  0  0  0  0  0  0  0  0  0  0
    7.6469   20.8793    4.2755 C   0  0  0  0  0  0  0  0  0  0  0  0
    7.3939   21.5768    3.0918 C   0  0  0  0  0  0  0  0  0  0  0  0
    8.3858   22.0300    2.3304 C   0  0  0  0  0  0  0  0  0  0  0  0
    8.1023   22.5970    0.9541 C   0  0  0  0  0  0  0  0  0  0  0  0
    6.5077   20.2717    4.9246 C   0  0  0  0  0  0  0  0  0  0  0  0
    6.7509   19.2228    5.7900 O   0  0  0  0  0  0  0  0  0  0  0  0
    5.3614   20.6707    4.6878 O   0  0  0  0  0  0  0  0  0  0  0  0
    7.3994   18.4678    5.4045 H   0  0  0  0  0  0  0  0  0  0  0  0
   11.7082   29.7713   -4.2385 C   0  0  0  0  0  0  0  0  0  0  0  0
   10.3824   29.5240   -4.8288 C   0  0  0  0  0  0  0  0  0  0  0  0
    9.9284   28.3032   -5.1549 N   0  0  0  0  0  0  0  0  0  0  0  0
    8.6455   28.1291   -5.5497 C   0  0  0  0  0  0  0  0  0  0  0  0
    7.7737   29.1957   -5.6450 C   0  0  0  0  0  0  0  0  0  0  0  0
    8.2243   30.4537   -5.3276 C   0  0  0  0  0  0  0  0  0  0  0  0
    9.5152   30.5872   -4.9229 C   0  0  0  0  0  0  0  0  0  0  0  0
   10.0399   31.9672   -4.6391 C   0  0  0  0  0  0  0  0  0  0  0  0
 19 20  1  0  0  0
 20 13  1  0  0  0
 13 14  2  0  0  0
 14 15  1  0  0  0
 15 16  2  0  0  0
 16 17  1  0  0  0
 17 18  2  0  0  0
 15  1  1  0  0  0
  1  2  1  0  0  0
  2  3  2  0  0  0
  2  4  1  0  0  0
  4  5  1  0  0  0
  5  6  2  0  0  0
  5  7  1  0  0  0
  7  8  1  0  0  0
  8  9  1  0  0  0
  9 10  1  0  0  0
 10 38  1  0  0  0
 38 39  1  0  0  0
 39 40  2  0  0  0
 40 41  1  0  0  0
 41 42  2  0  0  0
 42 43  1  0  0  0
 43 44  2  0  0  0
 44 45  1  0  0  0
 10 11  1  0  0  0
 11 12  1  0  0  0
  4 21  1  0  0  0
 21 22  2  0  0  0
 22 23  1  0  0  0
 23 24  2  0  0  0
 24 25  1  0  0  0
 25 26  2  0  0  0
 24 27  1  0  0  0
 27 28  2  0  0  0
 28 29  1  0  0  0
 29 30  2  0  0  0
 30 31  1  0  0  0
 31 32  2  0  0  0
 32 33  1  0  0  0
 30 34  1  0  0  0
 34 35  1  0  0  0
 34 36  2  0  0  0
 18 13  1  0  0  0
  7  1  1  0  0  0
 12  7  1  0  0  0
 26 21  1  0  0  0
 32 27  1  0  0  0
 44 39  1  0  0  0
 35 37  1  0  0  0
M  END
> <minimizedAffinity>
22.34422

> <CNNscore>
0.4823185802

> <CNNaffinity>
7.4244894981

> <CNN_VS>
3.5809693336

> <CNNaffinity_variance>
0.7966338992

$$$$
[H]OC(=O)c1c([H])c([H])c(-c2c([H])c([H])c(N3C(=O)N(c4nc([H])nc(OC([H])([H])[H])c4[H])C4(C3=O)C([H])([H])C([H])([H])N(C([H])([H])c3nc([H])c([H])c([H])c3C([H])([H])[H])C([H])([H])C4([H])[H])c([H])c2[H])c(C([H])([H])[H])c1[H]


 45 50  0  0  0  0  0  0  0  0999 V2000
   14.8609   24.1039   -0.7904 N   0  0  0  0  0  0  0  0  0  0  0  0
   13.9079   23.4506    0.0935 C   0  0  0  0  0  0  0  0  0  0  0  0
   13.9783   23.3488    1.3356 O   0  0  0  0  0  0  0  0  0  0  0  0
   12.8730   22.9616   -0.7923 N   0  0  0  0  0  0  0  0  0  0  0  0
   13.1747   23.3104   -2.1132 C   0  0  0  0  0  0  0  0  0  0  0  0
   12.7776   22.7477   -3.1481 O   0  0  0  0  0  0  0  0  0  0  0  0
   14.0912   24.5153   -1.9302 C   0  0  0  0  0  0  0  0  0  0  0  0
   13.2850   25.7173   -1.6121 C   0  0  0  0  0  0  0  0  0  0  0  0
   13.5136   26.9106   -2.5528 C   0  0  0  0  0  0  0  0  0  0  0  0
   13.8207   26.5778   -3.8134 N   0  0  0  0  0  0  0  0  0  0  0  0
   14.0038   25.1934   -4.2192 C   0  0  0  0  0  0  0  0  0  0  0  0
   14.9315   24.5851   -3.1657 C   0  0  0  0  0  0  0  0  0  0  0  0
   17.9701   24.3763    1.0759 C   0  0  0  0  0  0  0  0  0  0  0  0
   16.6528   24.1503    0.8179 C   0  0  0  0  0  0  0  0  0  0  0  0
   16.2397   24.1939   -0.4792 C   0  0  0  0  0  0  0  0  0  0  0  0
   17.1398   24.4358   -1.4178 N   0  0  0  0  0  0  0  0  0  0  0  0
   18.4473   24.6509   -1.1707 C   0  0  0  0  0  0  0  0  0  0  0  0
   18.8703   24.6291    0.0977 N   0  0  0  0  0  0  0  0  0  0  0  0
   19.6766   24.7840    2.7724 C   0  0  0  0  0  0  0  0  0  0  0  0
   18.3953   24.3448    2.3930 O   0  0  0  0  0  0  0  0  0  0  0  0
   11.8470   22.0892   -0.3121 C   0  0  0  0  0  0  0  0  0  0  0  0
   11.9818   20.7740    0.0050 C   0  0  0  0  0  0  0  0  0  0  0  0
   10.8927   19.9222    0.1742 C   0  0  0  0  0  0  0  0  0  0  0  0
    9.6176   20.4161    0.0144 C   0  0  0  0  0  0  0  0  0  0  0  0
    9.4935   21.7838   -0.3096 C   0  0  0  0  0  0  0  0  0  0  0  0
   10.5595   22.6146   -0.4735 C   0  0  0  0  0  0  0  0  0  0  0  0
    8.4317   19.5713   -0.0834 C   0  0  0  0  0  0  0  0  0  0  0  0
    7.7598   19.0172    0.9321 C   0  0  0  0  0  0  0  0  0  0  0  0
    6.6346   18.2289    0.6539 C   0  0  0  0  0  0  0  0  0  0  0  0
    6.2052   18.0229   -0.6113 C   0  0  0  0  0  0  0  0  0  0  0  0
    6.9212   18.6106   -1.6573 C   0  0  0  0  0  0  0  0  0  0  0  0
    7.9995   19.3537   -1.4256 C   0  0  0  0  0  0  0  0  0  0  0  0
    8.8814   19.8086   -2.5707 C   0  0  0  0  0  0  0  0  0  0  0  0
    5.1683   17.0874   -0.9826 C   0  0  0  0  0  0  0  0  0  0  0  0
    4.7205   17.1166   -2.2891 O   0  0  0  0  0  0  0  0  0  0  0  0
    4.6924   16.3105   -0.1464 O   0  0  0  0  0  0  0  0  0  0  0  0
    4.4858   18.0902   -2.6583 H   0  0  0  0  0  0  0  0  0  0  0  0
   13.9013   27.4290   -4.9018 C   0  0  0  0  0  0  0  0  0  0  0  0
   14.6814   26.7900   -5.9743 C   0  0  0  0  0  0  0  0  0  0  0  0
   14.1468   25.9823   -6.9042 N   0  0  0  0  0  0  0  0  0  0  0  0
   14.8895   25.5514   -7.9504 C   0  0  0  0  0  0  0  0  0  0  0  0
   16.2156   25.9123   -8.0852 C   0  0  0  0  0  0  0  0  0  0  0  0
   16.7828   26.7278   -7.1366 C   0  0  0  0  0  0  0  0  0  0  0  0
   16.0018   27.1506   -6.1074 C   0  0  0  0  0  0  0  0  0  0  0  0
   16.6288   27.9866   -5.0265 C   0  0  0  0  0  0  0  0  0  0  0  0
 19 20  1  0  0  0
 20 13  1  0  0  0
 13 14  2  0  0  0
 14 15  1  0  0  0
 15 16  2  0  0  0
 16 17  1  0  0  0
 17 18  2  0  0  0
 15  1  1  0  0  0
  1  2  1  0  0  0
  2  3  2  0  0  0
  2  4  1  0  0  0
  4  5  1  0  0  0
  5  6  2  0  0  0
  5  7  1  0  0  0
  7  8  1  0  0  0
  8  9  1  0  0  0
  9 10  1  0  0  0
 10 38  1  0  0  0
 38 39  1  0  0  0
 39 40  2  0  0  0
 40 41  1  0  0  0
 41 42  2  0  0  0
 42 43  1  0  0  0
 43 44  2  0  0  0
 44 45  1  0  0  0
 10 11  1  0  0  0
 11 12  1  0  0  0
  4 21  1  0  0  0
 21 22  2  0  0  0
 22 23  1  0  0  0
 23 24  2  0  0  0
 24 25  1  0  0  0
 25 26  2  0  0  0
 24 27  1  0  0  0
 27 28  2  0  0  0
 28 29  1  0  0  0
 29 30  2  0  0  0
 30 31  1  0  0  0
 31 32  2  0  0  0
 32 33  1  0  0  0
 30 34  1  0  0  0
 34 35  1  0  0  0
 34 36  2  0  0  0
 18 13  1  0  0  0
  7  1  1  0  0  0
 12  7  1  0  0  0
 26 21  1  0  0  0
 32 27  1  0  0  0
 44 39  1  0  0  0
 35 37  1  0  0  0
M  END
> <minimizedAffinity>
11.53324

> <CNNscore>
0.4540259540

> <CNNaffinity>
7.7074913979

> <CNN_VS>
3.4994010925

> <CNNaffinity_variance>
0.5471364856

$$$$
[H]OC(=O)c1c([H])c([H])c(-c2c([H])c([H])c(N3C(=O)N(c4nc([H])nc(OC([H])([H])[H])c4[H])C4(C3=O)C([H])([H])C([H])([H])N(C([H])([H])c3nc([H])c([H])c([H])c3C([H])([H])[H])C([H])([H])C4([H])[H])c([H])c2[H])c(C([H])([H])[H])c1[H]


 45 50  0  0  0  0  0  0  0  0999 V2000
   13.5325   24.8910   -0.2465 N   0  0  0  0  0  0  0  0  0  0  0  0
   12.3890   24.3726    0.4883 C   0  0  0  0  0  0  0  0  0  0  0  0
   12.0391   24.6721    1.6484 O   0  0  0  0  0  0  0  0  0  0  0  0
   11.7597   23.4489   -0.4313 N   0  0  0  0  0  0  0  0  0  0  0  0
   12.4659   23.4261   -1.6388 C   0  0  0  0  0  0  0  0  0  0  0  0
   12.4907   22.5085   -2.4772 O   0  0  0  0  0  0  0  0  0  0  0  0
   13.1684   24.7794   -1.6306 C   0  0  0  0  0  0  0  0  0  0  0  0
   12.2111   25.8457   -2.0084 C   0  0  0  0  0  0  0  0  0  0  0  0
   12.6535   26.7134   -3.1969 C   0  0  0  0  0  0  0  0  0  0  0  0
   13.3972   26.0743   -4.1094 N   0  0  0  0  0  0  0  0  0  0  0  0
   13.8147   24.6930   -3.9288 C   0  0  0  0  0  0  0  0  0  0  0  0
   14.3716   24.6243   -2.5056 C   0  0  0  0  0  0  0  0  0  0  0  0
   16.9279   24.9961    1.0514 C   0  0  0  0  0  0  0  0  0  0  0  0
   15.8607   24.6083    0.3007 C   0  0  0  0  0  0  0  0  0  0  0  0
   14.7110   25.3312    0.4042 C   0  0  0  0  0  0  0  0  0  0  0  0
   14.6973   26.3780    1.2126 N   0  0  0  0  0  0  0  0  0  0  0  0
   15.7530   26.7736    1.9515 C   0  0  0  0  0  0  0  0  0  0  0  0
   16.8861   26.0673    1.8771 N   0  0  0  0  0  0  0  0  0  0  0  0
   19.0946   24.3208    1.9492 C   0  0  0  0  0  0  0  0  0  0  0  0
   18.0964   24.2594    0.9601 O   0  0  0  0  0  0  0  0  0  0  0  0
   10.7025   22.5885    0.0004 C   0  0  0  0  0  0  0  0  0  0  0  0
    9.3680   22.8146   -0.1269 C   0  0  0  0  0  0  0  0  0  0  0  0
    8.4084   22.0892    0.5756 C   0  0  0  0  0  0  0  0  0  0  0  0
    8.8114   21.0986    1.4426 C   0  0  0  0  0  0  0  0  0  0  0  0
   10.1992   20.8721    1.5602 C   0  0  0  0  0  0  0  0  0  0  0  0
   11.1350   21.5819    0.8718 C   0  0  0  0  0  0  0  0  0  0  0  0
    7.9216   20.4593    2.4066 C   0  0  0  0  0  0  0  0  0  0  0  0
    8.0849   20.4094    3.7334 C   0  0  0  0  0  0  0  0  0  0  0  0
    7.1251   19.7489    4.5127 C   0  0  0  0  0  0  0  0  0  0  0  0
    6.0348   19.1711    3.9602 C   0  0  0  0  0  0  0  0  0  0  0  0
    5.8834   19.2347    2.5729 C   0  0  0  0  0  0  0  0  0  0  0  0
    6.7832   19.8438    1.8060 C   0  0  0  0  0  0  0  0  0  0  0  0
    6.7151   19.7251    0.2969 C   0  0  0  0  0  0  0  0  0  0  0  0
    5.1032   18.3286    4.6748 C   0  0  0  0  0  0  0  0  0  0  0  0
    4.6861   17.1679    4.0528 O   0  0  0  0  0  0  0  0  0  0  0  0
    4.6854   18.6577    5.7912 O   0  0  0  0  0  0  0  0  0  0  0  0
    4.3665   17.2936    3.0422 H   0  0  0  0  0  0  0  0  0  0  0  0
   13.7778   26.5495   -5.3524 C   0  0  0  0  0  0  0  0  0  0  0  0
   15.0932   27.2028   -5.2519 C   0  0  0  0  0  0  0  0  0  0  0  0
   15.4488   28.0091   -4.2389 N   0  0  0  0  0  0  0  0  0  0  0  0
   16.7224   28.4538   -4.1280 C   0  0  0  0  0  0  0  0  0  0  0  0
   17.6856   28.1086   -5.0553 C   0  0  0  0  0  0  0  0  0  0  0  0
   17.3368   27.2948   -6.1053 C   0  0  0  0  0  0  0  0  0  0  0  0
   16.0515   26.8579   -6.1760 C   0  0  0  0  0  0  0  0  0  0  0  0
   15.6405   26.0236   -7.3573 C   0  0  0  0  0  0  0  0  0  0  0  0
 19 20  1  0  0  0
 20 13  1  0  0  0
 13 14  2  0  0  0
 14 15  1  0  0  0
 15 16  2  0  0  0
 16 17  1  0  0  0
 17 18  2  0  0  0
 15  1  1  0  0  0
  1  2  1  0  0  0
  2  3  2  0  0  0
  2  4  1  0  0  0
  4  5  1  0  0  0
  5  6  2  0  0  0
  5  7  1  0  0  0
  7  8  1  0  0  0
  8  9  1  0  0  0
  9 10  1  0  0  0
 10 38  1  0  0  0
 38 39  1  0  0  0
 39 40  2  0  0  0
 40 41  1  0  0  0
 41 42  2  0  0  0
 42 43  1  0  0  0
 43 44  2  0  0  0
 44 45  1  0  0  0
 10 11  1  0  0  0
 11 12  1  0  0  0
  4 21  1  0  0  0
 21 22  2  0  0  0
 22 23  1  0  0  0
 23 24  2  0  0  0
 24 25  1  0  0  0
 25 26  2  0  0  0
 24 27  1  0  0  0
 27 28  2  0  0  0
 28 29  1  0  0  0
 29 30  2  0  0  0
 30 31  1  0  0  0
 31 32  2  0  0  0
 32 33  1  0  0  0
 30 34  1  0  0  0
 34 35  1  0  0  0
 34 36  2  0  0  0
 18 13  1  0  0  0
  7  1  1  0  0  0
 12  7  1  0  0  0
 26 21  1  0  0  0
 32 27  1  0  0  0
 44 39  1  0  0  0
 35 37  1  0  0  0
M  END
> <minimizedAffinity>
9.27864

> <CNNscore>
0.4124970436

> <CNNaffinity>
7.6011443138

> <CNN_VS>
3.1354496479

> <CNNaffinity_variance>
0.4212717116

$$$$
[H]OC(=O)c1c([H])c([H])c(-c2c([H])c([H])c(N3C(=O)N(c4nc([H])n([H])c(=O)c4[H])C4(C3=O)C([H])([H])C([H])([H])N(C([H])([H])c3nc([H])c([H])c([H])c3C([H])([H])[H])C([H])([H])C4([H])[H])c([H])c2[H])c([H])c1[H]


 44 49  0  0  0  0  0  0  0  0999 V2000
   14.4013   24.2281   -4.3515 N   0  0  0  0  0  0  0  0  0  0  0  0
   14.9945   22.9594   -3.9377 C   0  0  0  0  0  0  0  0  0  0  0  0
   15.5988   22.9730   -2.5868 C   0  0  0  0  0  0  0  0  0  0  0  0
   14.7682   23.6147   -1.5373 C   0  0  0  0  0  0  0  0  0  0  0  0
   14.2422   24.9501   -2.0178 C   0  0  0  0  0  0  0  0  0  0  0  0
   14.7878   25.2628   -3.3909 C   0  0  0  0  0  0  0  0  0  0  0  0
   15.4324   23.7337   -0.2667 N   0  0  0  0  0  0  0  0  0  0  0  0
   14.4331   23.5676    0.7564 C   0  0  0  0  0  0  0  0  0  0  0  0
   14.5599   23.8813    1.9811 O   0  0  0  0  0  0  0  0  0  0  0  0
   13.2633   22.9923    0.1911 N   0  0  0  0  0  0  0  0  0  0  0  0
   13.5581   22.8061   -1.1878 C   0  0  0  0  0  0  0  0  0  0  0  0
   12.8675   22.0644   -1.9344 O   0  0  0  0  0  0  0  0  0  0  0  0
   16.7966   23.9825    0.0572 C   0  0  0  0  0  0  0  0  0  0  0  0
   17.2668   24.0667    1.3342 C   0  0  0  0  0  0  0  0  0  0  0  0
   18.6099   24.3146    1.5294 C   0  0  0  0  0  0  0  0  0  0  0  0
   19.0107   24.3854    2.7335 O   0  0  0  0  0  0  0  0  0  0  0  0
   19.4722   24.4761    0.5065 N   0  0  0  0  0  0  0  0  0  0  0  0
   19.0007   24.3918   -0.7556 C   0  0  0  0  0  0  0  0  0  0  0  0
   17.7165   24.1549   -0.9442 N   0  0  0  0  0  0  0  0  0  0  0  0
   20.4828   24.6621    0.6866 H   0  0  0  0  0  0  0  0  0  0  0  0
   12.0335   22.6716    0.8676 C   0  0  0  0  0  0  0  0  0  0  0  0
   10.9501   23.5211    0.8919 C   0  0  0  0  0  0  0  0  0  0  0  0
    9.7917   23.1770    1.5580 C   0  0  0  0  0  0  0  0  0  0  0  0
    9.6540   21.9797    2.2281 C   0  0  0  0  0  0  0  0  0  0  0  0
   10.7286   21.1190    2.2125 C   0  0  0  0  0  0  0  0  0  0  0  0
   11.8957   21.4736    1.5373 C   0  0  0  0  0  0  0  0  0  0  0  0
    8.3946   21.6843    2.9211 C   0  0  0  0  0  0  0  0  0  0  0  0
    8.2731   21.7844    4.2898 C   0  0  0  0  0  0  0  0  0  0  0  0
    7.1090   21.5073    4.9521 C   0  0  0  0  0  0  0  0  0  0  0  0
    6.0106   21.1111    4.2182 C   0  0  0  0  0  0  0  0  0  0  0  0
    6.1105   21.0035    2.8336 C   0  0  0  0  0  0  0  0  0  0  0  0
    7.3044   21.2923    2.2023 C   0  0  0  0  0  0  0  0  0  0  0  0
    4.7391   20.7977    4.8586 C   0  0  0  0  0  0  0  0  0  0  0  0
    4.1777   19.5448    4.7944 O   0  0  0  0  0  0  0  0  0  0  0  0
    4.1535   21.7129    5.4838 O   0  0  0  0  0  0  0  0  0  0  0  0
    3.8833   19.0975    5.6760 H   0  0  0  0  0  0  0  0  0  0  0  0
   15.0013   24.6163   -5.6127 C   0  0  0  0  0  0  0  0  0  0  0  0
   15.6556   25.6692   -8.1242 C   0  0  0  0  0  0  0  0  0  0  0  0
   15.7372   26.5275   -6.9239 C   0  0  0  0  0  0  0  0  0  0  0  0
   16.1161   27.8375   -7.0398 C   0  0  0  0  0  0  0  0  0  0  0  0
   16.2031   28.6506   -5.9466 C   0  0  0  0  0  0  0  0  0  0  0  0
   15.9011   28.1238   -4.7189 C   0  0  0  0  0  0  0  0  0  0  0  0
   15.5372   26.8499   -4.6392 N   0  0  0  0  0  0  0  0  0  0  0  0
   15.4348   26.0125   -5.6670 C   0  0  0  0  0  0  0  0  0  0  0  0
 38 39  1  0  0  0
 39 40  2  0  0  0
 40 41  1  0  0  0
 41 42  2  0  0  0
 42 43  1  0  0  0
 43 44  2  0  0  0
 44 37  1  0  0  0
 37  1  1  0  0  0
  1  2  1  0  0  0
  2  3  1  0  0  0
  3  4  1  0  0  0
  4  5  1  0  0  0
  5  6  1  0  0  0
  4  7  1  0  0  0
  7  8  1  0  0  0
  8  9  2  0  0  0
  8 10  1  0  0  0
 10 11  1  0  0  0
 11 12  2  0  0  0
 10 21  1  0  0  0
 21 22  2  0  0  0
 22 23  1  0  0  0
 23 24  2  0  0  0
 24 25  1  0  0  0
 25 26  2  0  0  0
 24 27  1  0  0  0
 27 28  2  0  0  0
 28 29  1  0  0  0
 29 30  2  0  0  0
 30 31  1  0  0  0
 31 32  2  0  0  0
 30 33  1  0  0  0
 33 34  1  0  0  0
 33 35  2  0  0  0
  7 13  1  0  0  0
 13 14  2  0  0  0
 14 15  1  0  0  0
 15 16  2  0  0  0
 15 17  1  0  0  0
 17 18  1  0  0  0
 18 19  2  0  0  0
 44 39  1  0  0  0
  6  1  1  0  0  0
 26 21  1  0  0  0
 32 27  1  0  0  0
 19 13  1  0  0  0
 11  4  1  0  0  0
 34 36  1  0  0  0
 17 20  1  0  0  0
M  END
> <minimizedAffinity>
5.63709

> <CNNscore>
0.5678572655

> <CNNaffinity>
8.0429029465

> <CNN_VS>
4.5672206879

> <CNNaffinity_variance>
0.8042182922

$$$$
[H]OC(=O)c1c([H])c([H])c(-c2c([H])c([H])c(N3C(=O)N(c4nc([H])n([H])c(=O)c4[H])C4(C3=O)C([H])([H])C([H])([H])N(C([H])([H])c3nc([H])c([H])c([H])c3C([H])([H])[H])C([H])([H])C4([H])[H])c([H])c2[H])c([H])c1[H]


 44 49  0  0  0  0  0  0  0  0999 V2000
   15.2059   26.3657   -3.9258 N   0  0  0  0  0  0  0  0  0  0  0  0
   15.7325   25.0082   -4.0376 C   0  0  0  0  0  0  0  0  0  0  0  0
   16.2164   24.4280   -2.7649 C   0  0  0  0  0  0  0  0  0  0  0  0
   15.3116   24.6241   -1.6049 C   0  0  0  0  0  0  0  0  0  0  0  0
   14.8591   26.0660   -1.5210 C   0  0  0  0  0  0  0  0  0  0  0  0
   15.5295   26.8872   -2.5968 C   0  0  0  0  0  0  0  0  0  0  0  0
   15.8644   24.1696   -0.3569 N   0  0  0  0  0  0  0  0  0  0  0  0
   14.7760   23.6521    0.4308 C   0  0  0  0  0  0  0  0  0  0  0  0
   14.8020   23.4237    1.6804 O   0  0  0  0  0  0  0  0  0  0  0  0
   13.6477   23.4289   -0.4037 N   0  0  0  0  0  0  0  0  0  0  0  0
   14.0580   23.8131   -1.7102 C   0  0  0  0  0  0  0  0  0  0  0  0
   13.4192   23.4867   -2.7446 O   0  0  0  0  0  0  0  0  0  0  0  0
   17.2001   24.1849    0.1364 C   0  0  0  0  0  0  0  0  0  0  0  0
   18.2938   23.9271   -0.6358 C   0  0  0  0  0  0  0  0  0  0  0  0
   19.5419   23.9675   -0.0492 C   0  0  0  0  0  0  0  0  0  0  0  0
   20.5370   23.7225   -0.8012 O   0  0  0  0  0  0  0  0  0  0  0  0
   19.7194   24.2518    1.2560 N   0  0  0  0  0  0  0  0  0  0  0  0
   18.6327   24.5059    2.0155 C   0  0  0  0  0  0  0  0  0  0  0  0
   17.4382   24.4677    1.4562 N   0  0  0  0  0  0  0  0  0  0  0  0
   20.6765   24.2751    1.6704 H   0  0  0  0  0  0  0  0  0  0  0  0
   12.3567   22.9272   -0.0108 C   0  0  0  0  0  0  0  0  0  0  0  0
   11.3014   23.7506    0.3124 C   0  0  0  0  0  0  0  0  0  0  0  0
   10.0816   23.2277    0.6901 C   0  0  0  0  0  0  0  0  0  0  0  0
    9.8523   21.8700    0.7648 C   0  0  0  0  0  0  0  0  0  0  0  0
   10.8978   21.0334    0.4441 C   0  0  0  0  0  0  0  0  0  0  0  0
   12.1273   21.5691    0.0631 C   0  0  0  0  0  0  0  0  0  0  0  0
    8.5311   21.3858    1.1817 C   0  0  0  0  0  0  0  0  0  0  0  0
    7.7944   20.5158    0.4081 C   0  0  0  0  0  0  0  0  0  0  0  0
    6.5595   20.0596    0.7785 C   0  0  0  0  0  0  0  0  0  0  0  0
    6.0298   20.4888    1.9775 C   0  0  0  0  0  0  0  0  0  0  0  0
    6.7570   21.3678    2.7756 C   0  0  0  0  0  0  0  0  0  0  0  0
    8.0011   21.8056    2.3657 C   0  0  0  0  0  0  0  0  0  0  0  0
    4.7184   20.0448    2.4335 C   0  0  0  0  0  0  0  0  0  0  0  0
    4.1246   20.5582    3.5618 O   0  0  0  0  0  0  0  0  0  0  0  0
    4.1280   19.1661    1.7621 O   0  0  0  0  0  0  0  0  0  0  0  0
    3.1571   20.9081    3.4865 H   0  0  0  0  0  0  0  0  0  0  0  0
   15.9224   27.2060   -4.8649 C   0  0  0  0  0  0  0  0  0  0  0  0
   13.4453   26.5604   -6.0013 C   0  0  0  0  0  0  0  0  0  0  0  0
   14.6808   26.4095   -6.7982 C   0  0  0  0  0  0  0  0  0  0  0  0
   14.6146   25.9708   -8.0928 C   0  0  0  0  0  0  0  0  0  0  0  0
   15.7410   25.8193   -8.8492 C   0  0  0  0  0  0  0  0  0  0  0  0
   16.9509   26.1176   -8.2808 C   0  0  0  0  0  0  0  0  0  0  0  0
   16.9820   26.5405   -7.0231 N   0  0  0  0  0  0  0  0  0  0  0  0
   15.9203   26.7070   -6.2401 C   0  0  0  0  0  0  0  0  0  0  0  0
 38 39  1  0  0  0
 39 40  2  0  0  0
 40 41  1  0  0  0
 41 42  2  0  0  0
 42 43  1  0  0  0
 43 44  2  0  0  0
 44 37  1  0  0  0
 37  1  1  0  0  0
  1  2  1  0  0  0
  2  3  1  0  0  0
  3  4  1  0  0  0
  4  5  1  0  0  0
  5  6  1  0  0  0
  4  7  1  0  0  0
  7  8  1  0  0  0
  8  9  2  0  0  0
  8 10  1  0  0  0
 10 11  1  0  0  0
 11 12  2  0  0  0
 10 21  1  0  0  0
 21 22  2  0  0  0
 22 23  1  0  0  0
 23 24  2  0  0  0
 24 25  1  0  0  0
 25 26  2  0  0  0
 24 27  1  0  0  0
 27 28  2  0  0  0
 28 29  1  0  0  0
 29 30  2  0  0  0
 30 31  1  0  0  0
 31 32  2  0  0  0
 30 33  1  0  0  0
 33 34  1  0  0  0
 33 35  2  0  0  0
  7 13  1  0  0  0
 13 14  2  0  0  0
 14 15  1  0  0  0
 15 16  2  0  0  0
 15 17  1  0  0  0
 17 18  1  0  0  0
 18 19  2  0  0  0
 44 39  1  0  0  0
  6  1  1  0  0  0
 26 21  1  0  0  0
 32 27  1  0  0  0
 19 13  1  0  0  0
 11  4  1  0  0  0
 34 36  1  0  0  0
 17 20  1  0  0  0
M  END
> <minimizedAffinity>
14.31040

> <CNNscore>
0.5525807142

> <CNNaffinity>
8.0169534683

> <CNN_VS>
4.4300136566

> <CNNaffinity_variance>
1.2198657990

$$$$
[H]OC(=O)c1c([H])c([H])c(-c2c([H])c([H])c(N3C(=O)N(c4nc([H])n([H])c(=O)c4[H])C4(C3=O)C([H])([H])C([H])([H])N(C([H])([H])c3nc([H])c([H])c([H])c3C([H])([H])[H])C([H])([H])C4([H])[H])c([H])c2[H])c([H])c1[H]


 44 49  0  0  0  0  0  0  0  0999 V2000
   13.0254   26.6471   -3.8650 N   0  0  0  0  0  0  0  0  0  0  0  0
   13.5604   25.3205   -4.1598 C   0  0  0  0  0  0  0  0  0  0  0  0
   14.3617   24.7226   -3.0685 C   0  0  0  0  0  0  0  0  0  0  0  0
   13.7600   24.8371   -1.7166 C   0  0  0  0  0  0  0  0  0  0  0  0
   13.2868   26.2523   -1.4631 C   0  0  0  0  0  0  0  0  0  0  0  0
   13.6430   27.1394   -2.6325 C   0  0  0  0  0  0  0  0  0  0  0  0
   14.6173   24.3687   -0.6605 N   0  0  0  0  0  0  0  0  0  0  0  0
   13.7743   23.7743    0.3439 C   0  0  0  0  0  0  0  0  0  0  0  0
   14.1127   23.5065    1.5390 O   0  0  0  0  0  0  0  0  0  0  0  0
   12.4860   23.5252   -0.2015 N   0  0  0  0  0  0  0  0  0  0  0  0
   12.5505   23.9712   -1.5505 C   0  0  0  0  0  0  0  0  0  0  0  0
   11.6919   23.6489   -2.4128 O   0  0  0  0  0  0  0  0  0  0  0  0
   16.0313   24.4314   -0.5050 C   0  0  0  0  0  0  0  0  0  0  0  0
   16.6729   24.1958    0.6748 C   0  0  0  0  0  0  0  0  0  0  0  0
   18.0492   24.2875    0.7089 C   0  0  0  0  0  0  0  0  0  0  0  0
   18.6113   24.0604    1.8260 O   0  0  0  0  0  0  0  0  0  0  0  0
   18.7809   24.6005   -0.3786 N   0  0  0  0  0  0  0  0  0  0  0  0
   18.1400   24.8328   -1.5437 C   0  0  0  0  0  0  0  0  0  0  0  0
   16.8238   24.7457   -1.5782 N   0  0  0  0  0  0  0  0  0  0  0  0
   19.8208   24.6617   -0.3209 H   0  0  0  0  0  0  0  0  0  0  0  0
   11.3498   22.9498    0.4700 C   0  0  0  0  0  0  0  0  0  0  0  0
   11.2601   21.6095    0.7726 C   0  0  0  0  0  0  0  0  0  0  0  0
   10.1495   21.0979    1.4119 C   0  0  0  0  0  0  0  0  0  0  0  0
    9.0806   21.8878    1.7793 C   0  0  0  0  0  0  0  0  0  0  0  0
    9.1555   23.2306    1.4840 C   0  0  0  0  0  0  0  0  0  0  0  0
   10.2811   23.7403    0.8380 C   0  0  0  0  0  0  0  0  0  0  0  0
    7.9291   21.2729    2.4498 C   0  0  0  0  0  0  0  0  0  0  0  0
    6.7898   20.9142    1.7632 C   0  0  0  0  0  0  0  0  0  0  0  0
    5.7057   20.3459    2.3731 C   0  0  0  0  0  0  0  0  0  0  0  0
    5.7557   20.1224    3.7331 C   0  0  0  0  0  0  0  0  0  0  0  0
    6.8972   20.4767    4.4472 C   0  0  0  0  0  0  0  0  0  0  0  0
    7.9713   21.0487    3.7940 C   0  0  0  0  0  0  0  0  0  0  0  0
    4.6360   19.5226    4.4484 C   0  0  0  0  0  0  0  0  0  0  0  0
    4.1258   20.0724    5.6002 O   0  0  0  0  0  0  0  0  0  0  0  0
    4.1350   18.4720    3.9829 O   0  0  0  0  0  0  0  0  0  0  0  0
    3.1085   20.2350    5.6528 H   0  0  0  0  0  0  0  0  0  0  0  0
   13.4587   27.5509   -4.9121 C   0  0  0  0  0  0  0  0  0  0  0  0
   16.1934   28.1153   -4.6943 C   0  0  0  0  0  0  0  0  0  0  0  0
   15.7116   27.2170   -5.7644 C   0  0  0  0  0  0  0  0  0  0  0  0
   16.5998   26.6493   -6.6373 C   0  0  0  0  0  0  0  0  0  0  0  0
   16.1806   25.8191   -7.6367 C   0  0  0  0  0  0  0  0  0  0  0  0
   14.8398   25.5633   -7.7499 C   0  0  0  0  0  0  0  0  0  0  0  0
   14.0037   26.1291   -6.8883 N   0  0  0  0  0  0  0  0  0  0  0  0
   14.3537   26.9438   -5.8973 C   0  0  0  0  0  0  0  0  0  0  0  0
 38 39  1  0  0  0
 39 40  2  0  0  0
 40 41  1  0  0  0
 41 42  2  0  0  0
 42 43  1  0  0  0
 43 44  2  0  0  0
 44 37  1  0  0  0
 37  1  1  0  0  0
  1  2  1  0  0  0
  2  3  1  0  0  0
  3  4  1  0  0  0
  4  5  1  0  0  0
  5  6  1  0  0  0
  4  7  1  0  0  0
  7  8  1  0  0  0
  8  9  2  0  0  0
  8 10  1  0  0  0
 10 11  1  0  0  0
 11 12  2  0  0  0
 10 21  1  0  0  0
 21 22  2  0  0  0
 22 23  1  0  0  0
 23 24  2  0  0  0
 24 25  1  0  0  0
 25 26  2  0  0  0
 24 27  1  0  0  0
 27 28  2  0  0  0
 28 29  1  0  0  0
 29 30  2  0  0  0
 30 31  1  0  0  0
 31 32  2  0  0  0
 30 33  1  0  0  0
 33 34  1  0  0  0
 33 35  2  0  0  0
  7 13  1  0  0  0
 13 14  2  0  0  0
 14 15  1  0  0  0
 15 16  2  0  0  0
 15 17  1  0  0  0
 17 18  1  0  0  0
 18 19  2  0  0  0
 44 39  1  0  0  0
  6  1  1  0  0  0
 26 21  1  0  0  0
 32 27  1  0  0  0
 19 13  1  0  0  0
 11  4  1  0  0  0
 34 36  1  0  0  0
 17 20  1  0  0  0
M  END
> <minimizedAffinity>
4.60885

> <CNNscore>
0.5505154133

> <CNNaffinity>
7.9550733566

> <CNN_VS>
4.3793907166

> <CNNaffinity_variance>
1.1161662340

$$$$
[H]OC(=O)c1c([H])c([H])c(-c2c([H])c([H])c(N3C(=O)N(c4nc([H])n([H])c(=O)c4[H])C4(C3=O)C([H])([H])C([H])([H])N(C([H])([H])c3nc([H])c([H])c([H])c3C([H])([H])[H])C([H])([H])C4([H])[H])c([H])c2[H])c([H])c1[H]


 44 49  0  0  0  0  0  0  0  0999 V2000
    9.2210   24.5114    0.8964 N   0  0  0  0  0  0  0  0  0  0  0  0
   10.3769   24.8228    1.7330 C   0  0  0  0  0  0  0  0  0  0  0  0
   11.5316   23.9149    1.5517 C   0  0  0  0  0  0  0  0  0  0  0  0
   11.8787   23.6199    0.1391 C   0  0  0  0  0  0  0  0  0  0  0  0
   10.6398   23.2463   -0.6461 C   0  0  0  0  0  0  0  0  0  0  0  0
    9.4358   23.2084    0.2648 C   0  0  0  0  0  0  0  0  0  0  0  0
   12.9157   22.6337   -0.0077 N   0  0  0  0  0  0  0  0  0  0  0  0
   13.6914   22.9966   -1.1651 C   0  0  0  0  0  0  0  0  0  0  0  0
   14.5033   22.2416   -1.7858 O   0  0  0  0  0  0  0  0  0  0  0  0
   13.4147   24.3441   -1.5210 N   0  0  0  0  0  0  0  0  0  0  0  0
   12.4634   24.8024   -0.5680 C   0  0  0  0  0  0  0  0  0  0  0  0
   12.2058   26.0231   -0.4006 O   0  0  0  0  0  0  0  0  0  0  0  0
   13.2178   21.4715    0.7576 C   0  0  0  0  0  0  0  0  0  0  0  0
   12.3567   20.9125    1.6547 C   0  0  0  0  0  0  0  0  0  0  0  0
   12.7579   19.7861    2.3431 C   0  0  0  0  0  0  0  0  0  0  0  0
   11.9277   19.2936    3.1700 O   0  0  0  0  0  0  0  0  0  0  0  0
   13.9669   19.2194    2.1617 N   0  0  0  0  0  0  0  0  0  0  0  0
   14.8153   19.7775    1.2723 C   0  0  0  0  0  0  0  0  0  0  0  0
   14.4333   20.8547    0.6130 N   0  0  0  0  0  0  0  0  0  0  0  0
   14.2411   18.3672    2.6974 H   0  0  0  0  0  0  0  0  0  0  0  0
   13.9721   25.0893   -2.6195 C   0  0  0  0  0  0  0  0  0  0  0  0
   13.1965   25.6828   -3.5902 C   0  0  0  0  0  0  0  0  0  0  0  0
   13.7723   26.3832   -4.6304 C   0  0  0  0  0  0  0  0  0  0  0  0
   15.1380   26.5271   -4.7561 C   0  0  0  0  0  0  0  0  0  0  0  0
   15.9272   25.9397   -3.7928 C   0  0  0  0  0  0  0  0  0  0  0  0
   15.3381   25.2337   -2.7447 C   0  0  0  0  0  0  0  0  0  0  0  0
   15.6800   27.2798   -5.8934 C   0  0  0  0  0  0  0  0  0  0  0  0
   15.7575   28.6553   -5.8887 C   0  0  0  0  0  0  0  0  0  0  0  0
   16.2540   29.3726   -6.9420 C   0  0  0  0  0  0  0  0  0  0  0  0
   16.6959   28.6894   -8.0556 C   0  0  0  0  0  0  0  0  0  0  0  0
   16.6273   27.2990   -8.0821 C   0  0  0  0  0  0  0  0  0  0  0  0
   16.1189   26.6113   -6.9976 C   0  0  0  0  0  0  0  0  0  0  0  0
   17.2347   29.3897   -9.2150 C   0  0  0  0  0  0  0  0  0  0  0  0
   18.5723   29.6823   -9.3355 O   0  0  0  0  0  0  0  0  0  0  0  0
   16.4376   29.7278  -10.1214 O   0  0  0  0  0  0  0  0  0  0  0  0
   19.0534   29.4107  -10.2067 H   0  0  0  0  0  0  0  0  0  0  0  0
    8.0698   24.3459    1.7616 C   0  0  0  0  0  0  0  0  0  0  0  0
    7.9248   22.8210    4.1064 C   0  0  0  0  0  0  0  0  0  0  0  0
    8.1157   24.2840    4.1921 C   0  0  0  0  0  0  0  0  0  0  0  0
    8.2373   24.8912    5.4126 C   0  0  0  0  0  0  0  0  0  0  0  0
    8.4106   26.2411    5.5196 C   0  0  0  0  0  0  0  0  0  0  0  0
    8.4604   26.9834    4.3696 C   0  0  0  0  0  0  0  0  0  0  0  0
    8.3392   26.3653    3.2013 N   0  0  0  0  0  0  0  0  0  0  0  0
    8.1691   25.0569    3.0362 C   0  0  0  0  0  0  0  0  0  0  0  0
 38 39  1  0  0  0
 39 40  2  0  0  0
 40 41  1  0  0  0
 41 42  2  0  0  0
 42 43  1  0  0  0
 43 44  2  0  0  0
 44 37  1  0  0  0
 37  1  1  0  0  0
  1  2  1  0  0  0
  2  3  1  0  0  0
  3  4  1  0  0  0
  4  5  1  0  0  0
  5  6  1  0  0  0
  4  7  1  0  0  0
  7  8  1  0  0  0
  8  9  2  0  0  0
  8 10  1  0  0  0
 10 11  1  0  0  0
 11 12  2  0  0  0
 10 21  1  0  0  0
 21 22  2  0  0  0
 22 23  1  0  0  0
 23 24  2  0  0  0
 24 25  1  0  0  0
 25 26  2  0  0  0
 24 27  1  0  0  0
 27 28  2  0  0  0
 28 29  1  0  0  0
 29 30  2  0  0  0
 30 31  1  0  0  0
 31 32  2  0  0  0
 30 33  1  0  0  0
 33 34  1  0  0  0
 33 35  2  0  0  0
  7 13  1  0  0  0
 13 14  2  0  0  0
 14 15  1  0  0  0
 15 16  2  0  0  0
 15 17  1  0  0  0
 17 18  1  0  0  0
 18 19  2  0  0  0
 44 39  1  0  0  0
  6  1  1  0  0  0
 26 21  1  0  0  0
 32 27  1  0  0  0
 19 13  1  0  0  0
 11  4  1  0  0  0
 34 36  1  0  0  0
 17 20  1  0  0  0
M  END
> <minimizedAffinity>
12.97461

> <CNNscore>
0.5498333573

> <CNNaffinity>
7.6788339615

> <CNN_VS>
4.2220792770

> <CNNaffinity_variance>
0.1040869728

$$$$
[H]OC(=O)c1c([H])c([H])c(-c2c([H])c([H])c(N3C(=O)N(c4nc([H])n([H])c(=O)c4[H])C4(C3=O)C([H])([H])C([H])([H])N(C([H])([H])c3nc([H])c([H])c([H])c3C([H])([H])[H])C([H])([H])C4([H])[H])c([H])c2[H])c([H])c1[H]


 44 49  0  0  0  0  0  0  0  0999 V2000
   10.2991   22.1642   -0.6200 N   0  0  0  0  0  0  0  0  0  0  0  0
   10.8838   23.1423    0.2935 C   0  0  0  0  0  0  0  0  0  0  0  0
   12.3383   22.9843    0.5172 C   0  0  0  0  0  0  0  0  0  0  0  0
   13.1391   22.7622   -0.7125 C   0  0  0  0  0  0  0  0  0  0  0  0
   12.5034   21.6935   -1.5754 C   0  0  0  0  0  0  0  0  0  0  0  0
   11.2890   21.1189   -0.8853 C   0  0  0  0  0  0  0  0  0  0  0  0
   14.5261   22.4795   -0.4561 N   0  0  0  0  0  0  0  0  0  0  0  0
   15.2882   23.0667   -1.5272 C   0  0  0  0  0  0  0  0  0  0  0  0
   16.4969   22.8016   -1.8155 O   0  0  0  0  0  0  0  0  0  0  0  0
   14.4813   24.0023   -2.2292 N   0  0  0  0  0  0  0  0  0  0  0  0
   13.2185   23.9829   -1.5749 C   0  0  0  0  0  0  0  0  0  0  0  0
   12.3546   24.8831   -1.7422 O   0  0  0  0  0  0  0  0  0  0  0  0
   15.1556   21.7595    0.5989 C   0  0  0  0  0  0  0  0  0  0  0  0
   14.8911   20.4530    0.8850 C   0  0  0  0  0  0  0  0  0  0  0  0
   15.5603   19.8570    1.9340 C   0  0  0  0  0  0  0  0  0  0  0  0
   15.2876   18.6381    2.1695 O   0  0  0  0  0  0  0  0  0  0  0  0
   16.4639   20.5174    2.6846 N   0  0  0  0  0  0  0  0  0  0  0  0
   16.7214   21.8109    2.3967 C   0  0  0  0  0  0  0  0  0  0  0  0
   16.0823   22.3825    1.3938 N   0  0  0  0  0  0  0  0  0  0  0  0
   16.9540   20.0387    3.4714 H   0  0  0  0  0  0  0  0  0  0  0  0
   14.8573   24.7981   -3.3685 C   0  0  0  0  0  0  0  0  0  0  0  0
   14.8304   24.3166   -4.6583 C   0  0  0  0  0  0  0  0  0  0  0  0
   15.2053   25.1118   -5.7218 C   0  0  0  0  0  0  0  0  0  0  0  0
   15.6226   26.4157   -5.5569 C   0  0  0  0  0  0  0  0  0  0  0  0
   15.6545   26.9120   -4.2729 C   0  0  0  0  0  0  0  0  0  0  0  0
   15.2740   26.1025   -3.2034 C   0  0  0  0  0  0  0  0  0  0  0  0
   16.0137   27.1999   -6.7342 C   0  0  0  0  0  0  0  0  0  0  0  0
   16.5187   26.6081   -7.8712 C   0  0  0  0  0  0  0  0  0  0  0  0
   16.8935   27.3240   -8.9745 C   0  0  0  0  0  0  0  0  0  0  0  0
   16.7599   28.6964   -8.9473 C   0  0  0  0  0  0  0  0  0  0  0  0
   16.2514   29.3158   -7.8087 C   0  0  0  0  0  0  0  0  0  0  0  0
   15.8843   28.5570   -6.7147 C   0  0  0  0  0  0  0  0  0  0  0  0
   17.1416   29.5219  -10.0865 C   0  0  0  0  0  0  0  0  0  0  0  0
   18.3495   30.1753  -10.1434 O   0  0  0  0  0  0  0  0  0  0  0  0
   16.3295   29.6272  -11.0356 O   0  0  0  0  0  0  0  0  0  0  0  0
   18.9312   30.0505  -10.9862 H   0  0  0  0  0  0  0  0  0  0  0  0
    9.2039   21.5062    0.0646 C   0  0  0  0  0  0  0  0  0  0  0  0
   10.2852   20.7402    2.5321 C   0  0  0  0  0  0  0  0  0  0  0  0
    9.2918   21.8328    2.4728 C   0  0  0  0  0  0  0  0  0  0  0  0
    8.9123   22.4799    3.6175 C   0  0  0  0  0  0  0  0  0  0  0  0
    7.9941   23.4897    3.5907 C   0  0  0  0  0  0  0  0  0  0  0  0
    7.4542   23.8459    2.3833 C   0  0  0  0  0  0  0  0  0  0  0  0
    7.8425   23.1991    1.2912 N   0  0  0  0  0  0  0  0  0  0  0  0
    8.7310   22.2104    1.2566 C   0  0  0  0  0  0  0  0  0  0  0  0
 38 39  1  0  0  0
 39 40  2  0  0  0
 40 41  1  0  0  0
 41 42  2  0  0  0
 42 43  1  0  0  0
 43 44  2  0  0  0
 44 37  1  0  0  0
 37  1  1  0  0  0
  1  2  1  0  0  0
  2  3  1  0  0  0
  3  4  1  0  0  0
  4  5  1  0  0  0
  5  6  1  0  0  0
  4  7  1  0  0  0
  7  8  1  0  0  0
  8  9  2  0  0  0
  8 10  1  0  0  0
 10 11  1  0  0  0
 11 12  2  0  0  0
 10 21  1  0  0  0
 21 22  2  0  0  0
 22 23  1  0  0  0
 23 24  2  0  0  0
 24 25  1  0  0  0
 25 26  2  0  0  0
 24 27  1  0  0  0
 27 28  2  0  0  0
 28 29  1  0  0  0
 29 30  2  0  0  0
 30 31  1  0  0  0
 31 32  2  0  0  0
 30 33  1  0  0  0
 33 34  1  0  0  0
 33 35  2  0  0  0
  7 13  1  0  0  0
 13 14  2  0  0  0
 14 15  1  0  0  0
 15 16  2  0  0  0
 15 17  1  0  0  0
 17 18  1  0  0  0
 18 19  2  0  0  0
 44 39  1  0  0  0
  6  1  1  0  0  0
 26 21  1  0  0  0
 32 27  1  0  0  0
 19 13  1  0  0  0
 11  4  1  0  0  0
 34 36  1  0  0  0
 17 20  1  0  0  0
M  END
> <minimizedAffinity>
35.74673

> <CNNscore>
0.4464080036

> <CNNaffinity>
7.5586385727

> <CNN_VS>
3.3742368221

> <CNNaffinity_variance>
0.1995361447

$$$$
[H]OC(=O)c1c([H])c([H])c(-c2c([H])c([H])c(N3C(=O)N(c4nc([H])n([H])c(=O)c4[H])C4(C3=O)C([H])([H])C([H])([H])N(C([H])([H])c3nc([H])c([H])c([H])c3C([H])([H])[H])C([H])([H])C4([H])[H])c([H])c2[H])c([H])c1[H]


 44 49  0  0  0  0  0  0  0  0999 V2000
   14.9429   24.2259   -4.7454 N   0  0  0  0  0  0  0  0  0  0  0  0
   15.7653   23.2331   -4.0592 C   0  0  0  0  0  0  0  0  0  0  0  0
   15.7495   23.3338   -2.5827 C   0  0  0  0  0  0  0  0  0  0  0  0
   14.4036   23.5120   -1.9830 C   0  0  0  0  0  0  0  0  0  0  0  0
   13.6379   24.5979   -2.7078 C   0  0  0  0  0  0  0  0  0  0  0  0
   14.5055   25.2276   -3.7716 C   0  0  0  0  0  0  0  0  0  0  0  0
   14.4289   23.7402   -0.5628 N   0  0  0  0  0  0  0  0  0  0  0  0
   13.2583   23.1128   -0.0070 C   0  0  0  0  0  0  0  0  0  0  0  0
   12.7751   23.3259    1.1486 O   0  0  0  0  0  0  0  0  0  0  0  0
   12.7100   22.2046   -0.9523 N   0  0  0  0  0  0  0  0  0  0  0  0
   13.5587   22.2813   -2.0911 C   0  0  0  0  0  0  0  0  0  0  0  0
   13.5466   21.4156   -3.0050 O   0  0  0  0  0  0  0  0  0  0  0  0
   15.3576   24.4435    0.2562 C   0  0  0  0  0  0  0  0  0  0  0  0
   16.6299   24.0155    0.4949 C   0  0  0  0  0  0  0  0  0  0  0  0
   17.4425   24.7781    1.3083 C   0  0  0  0  0  0  0  0  0  0  0  0
   18.6216   24.3470    1.5068 O   0  0  0  0  0  0  0  0  0  0  0  0
   17.0258   25.9279    1.8742 N   0  0  0  0  0  0  0  0  0  0  0  0
   15.7650   26.3464    1.6344 C   0  0  0  0  0  0  0  0  0  0  0  0
   14.9865   25.6184    0.8567 N   0  0  0  0  0  0  0  0  0  0  0  0
   17.6645   26.4828    2.4847 H   0  0  0  0  0  0  0  0  0  0  0  0
   11.5375   21.3839   -0.7963 C   0  0  0  0  0  0  0  0  0  0  0  0
   11.5420   20.1995   -0.0939 C   0  0  0  0  0  0  0  0  0  0  0  0
   10.3965   19.4398    0.0260 C   0  0  0  0  0  0  0  0  0  0  0  0
    9.1981   19.8171   -0.5425 C   0  0  0  0  0  0  0  0  0  0  0  0
    9.1773   20.9995   -1.2478 C   0  0  0  0  0  0  0  0  0  0  0  0
   10.3388   21.7619   -1.3645 C   0  0  0  0  0  0  0  0  0  0  0  0
    8.0220   18.9547   -0.3798 C   0  0  0  0  0  0  0  0  0  0  0  0
    6.8058   19.4490    0.0382 C   0  0  0  0  0  0  0  0  0  0  0  0
    5.7016   18.6587    0.2008 C   0  0  0  0  0  0  0  0  0  0  0  0
    5.8106   17.3099   -0.0654 C   0  0  0  0  0  0  0  0  0  0  0  0
    7.0300   16.7885   -0.4894 C   0  0  0  0  0  0  0  0  0  0  0  0
    8.1220   17.6203   -0.6412 C   0  0  0  0  0  0  0  0  0  0  0  0
    4.6752   16.4086    0.0887 C   0  0  0  0  0  0  0  0  0  0  0  0
    4.1233   15.7396   -0.9775 O   0  0  0  0  0  0  0  0  0  0  0  0
    4.2006   16.2510    1.2382 O   0  0  0  0  0  0  0  0  0  0  0  0
    3.9935   14.7194   -0.8976 H   0  0  0  0  0  0  0  0  0  0  0  0
   15.7846   24.9341   -5.6894 C   0  0  0  0  0  0  0  0  0  0  0  0
   14.8373   27.1081   -7.1794 C   0  0  0  0  0  0  0  0  0  0  0  0
   15.6850   27.3449   -5.9923 C   0  0  0  0  0  0  0  0  0  0  0  0
   15.9940   28.6227   -5.6118 C   0  0  0  0  0  0  0  0  0  0  0  0
   16.7780   28.8686   -4.5215 C   0  0  0  0  0  0  0  0  0  0  0  0
   17.2545   27.8003   -3.8090 C   0  0  0  0  0  0  0  0  0  0  0  0
   16.9374   26.5733   -4.2035 N   0  0  0  0  0  0  0  0  0  0  0  0
   16.1796   26.2738   -5.2543 C   0  0  0  0  0  0  0  0  0  0  0  0
 38 39  1  0  0  0
 39 40  2  0  0  0
 40 41  1  0  0  0
 41 42  2  0  0  0
 42 43  1  0  0  0
 43 44  2  0  0  0
 44 37  1  0  0  0
 37  1  1  0  0  0
  1  2  1  0  0  0
  2  3  1  0  0  0
  3  4  1  0  0  0
  4  5  1  0  0  0
  5  6  1  0  0  0
  4  7  1  0  0  0
  7  8  1  0  0  0
  8  9  2  0  0  0
  8 10  1  0  0  0
 10 11  1  0  0  0
 11 12  2  0  0  0
 10 21  1  0  0  0
 21 22  2  0  0  0
 22 23  1  0  0  0
 23 24  2  0  0  0
 24 25  1  0  0  0
 25 26  2  0  0  0
 24 27  1  0  0  0
 27 28  2  0  0  0
 28 29  1  0  0  0
 29 30  2  0  0  0
 30 31  1  0  0  0
 31 32  2  0  0  0
 30 33  1  0  0  0
 33 34  1  0  0  0
 33 35  2  0  0  0
  7 13  1  0  0  0
 13 14  2  0  0  0
 14 15  1  0  0  0
 15 16  2  0  0  0
 15 17  1  0  0  0
 17 18  1  0  0  0
 18 19  2  0  0  0
 44 39  1  0  0  0
  6  1  1  0  0  0
 26 21  1  0  0  0
 32 27  1  0  0  0
 19 13  1  0  0  0
 11  4  1  0  0  0
 34 36  1  0  0  0
 17 20  1  0  0  0
M  END
> <minimizedAffinity>
3.91751

> <CNNscore>
0.4273414314

> <CNNaffinity>
7.7568941116

> <CNN_VS>
3.3148422241

> <CNNaffinity_variance>
0.4843305647

$$$$
[H]OC(=O)c1c([H])c([H])c(-c2c([H])c([H])c(N3C(=O)N(c4nc([H])n([H])c(=O)c4[H])C4(C3=O)C([H])([H])C([H])([H])N(C([H])([H])c3nc([H])c([H])c([H])c3C([H])([H])[H])C([H])([H])C4([H])[H])c([H])c2[H])c([H])c1[H]


 44 49  0  0  0  0  0  0  0  0999 V2000
   10.6090   20.8791   -1.0518 N   0  0  0  0  0  0  0  0  0  0  0  0
   10.8385   21.7120    0.1257 C   0  0  0  0  0  0  0  0  0  0  0  0
   12.2618   21.8766    0.4964 C   0  0  0  0  0  0  0  0  0  0  0  0
   13.1714   22.1801   -0.6365 C   0  0  0  0  0  0  0  0  0  0  0  0
   12.9149   21.2368   -1.7920 C   0  0  0  0  0  0  0  0  0  0  0  0
   11.8650   20.2195   -1.4126 C   0  0  0  0  0  0  0  0  0  0  0  0
   14.5626   22.2029   -0.2709 N   0  0  0  0  0  0  0  0  0  0  0  0
   15.2004   23.2130   -1.0746 C   0  0  0  0  0  0  0  0  0  0  0  0
   16.4513   23.3436   -1.2545 O   0  0  0  0  0  0  0  0  0  0  0  0
   14.2133   24.0588   -1.6487 N   0  0  0  0  0  0  0  0  0  0  0  0
   12.9655   23.5570   -1.1860 C   0  0  0  0  0  0  0  0  0  0  0  0
   11.8987   24.2212   -1.2591 O   0  0  0  0  0  0  0  0  0  0  0  0
   15.2967   21.4251    0.6692 C   0  0  0  0  0  0  0  0  0  0  0  0
   15.2911   20.0619    0.6903 C   0  0  0  0  0  0  0  0  0  0  0  0
   16.0396   19.4122    1.6501 C   0  0  0  0  0  0  0  0  0  0  0  0
   16.0097   18.1416    1.6374 O   0  0  0  0  0  0  0  0  0  0  0  0
   16.7743   20.0741    2.5655 N   0  0  0  0  0  0  0  0  0  0  0  0
   16.7757   21.4238    2.5398 C   0  0  0  0  0  0  0  0  0  0  0  0
   16.0605   22.0468    1.6226 N   0  0  0  0  0  0  0  0  0  0  0  0
   17.3303   19.5540    3.2788 H   0  0  0  0  0  0  0  0  0  0  0  0
   14.4276   25.1832   -2.5220 C   0  0  0  0  0  0  0  0  0  0  0  0
   13.5037   25.5884   -3.4592 C   0  0  0  0  0  0  0  0  0  0  0  0
   13.7520   26.6685   -4.2812 C   0  0  0  0  0  0  0  0  0  0  0  0
   14.9227   27.3940   -4.2127 C   0  0  0  0  0  0  0  0  0  0  0  0
   15.8564   27.0014   -3.2800 C   0  0  0  0  0  0  0  0  0  0  0  0
   15.5984   25.9091   -2.4528 C   0  0  0  0  0  0  0  0  0  0  0  0
   15.1211   28.5268   -5.1245 C   0  0  0  0  0  0  0  0  0  0  0  0
   15.7268   28.3783   -6.3529 C   0  0  0  0  0  0  0  0  0  0  0  0
   15.9249   29.4238   -7.2120 C   0  0  0  0  0  0  0  0  0  0  0  0
   15.4998   30.6796   -6.8321 C   0  0  0  0  0  0  0  0  0  0  0  0
   14.8848   30.8529   -5.5950 C   0  0  0  0  0  0  0  0  0  0  0  0
   14.7034   29.7711   -4.7558 C   0  0  0  0  0  0  0  0  0  0  0  0
   15.6807   31.8392   -7.6967 C   0  0  0  0  0  0  0  0  0  0  0  0
   14.6178   32.5016   -8.2629 O   0  0  0  0  0  0  0  0  0  0  0  0
   16.8506   32.2308   -7.9194 O   0  0  0  0  0  0  0  0  0  0  0  0
   14.5655   33.5255   -8.1487 H   0  0  0  0  0  0  0  0  0  0  0  0
    9.6968   19.8153   -0.6808 C   0  0  0  0  0  0  0  0  0  0  0  0
    8.6482   22.3220   -0.0017 C   0  0  0  0  0  0  0  0  0  0  0  0
    7.7973   21.3336   -0.6967 C   0  0  0  0  0  0  0  0  0  0  0  0
    6.5054   21.6466   -1.0222 C   0  0  0  0  0  0  0  0  0  0  0  0
    5.6973   20.7505   -1.6608 C   0  0  0  0  0  0  0  0  0  0  0  0
    6.2102   19.5192   -1.9720 C   0  0  0  0  0  0  0  0  0  0  0  0
    7.4666   19.2458   -1.6428 N   0  0  0  0  0  0  0  0  0  0  0  0
    8.2985   20.0769   -1.0221 C   0  0  0  0  0  0  0  0  0  0  0  0
 38 39  1  0  0  0
 39 40  2  0  0  0
 40 41  1  0  0  0
 41 42  2  0  0  0
 42 43  1  0  0  0
 43 44  2  0  0  0
 44 37  1  0  0  0
 37  1  1  0  0  0
  1  2  1  0  0  0
  2  3  1  0  0  0
  3  4  1  0  0  0
  4  5  1  0  0  0
  5  6  1  0  0  0
  4  7  1  0  0  0
  7  8  1  0  0  0
  8  9  2  0  0  0
  8 10  1  0  0  0
 10 11  1  0  0  0
 11 12  2  0  0  0
 10 21  1  0  0  0
 21 22  2  0  0  0
 22 23  1  0  0  0
 23 24  2  0  0  0
 24 25  1  0  0  0
 25 26  2  0  0  0
 24 27  1  0  0  0
 27 28  2  0  0  0
 28 29  1  0  0  0
 29 30  2  0  0  0
 30 31  1  0  0  0
 31 32  2  0  0  0
 30 33  1  0  0  0
 33 34  1  0  0  0
 33 35  2  0  0  0
  7 13  1  0  0  0
 13 14  2  0  0  0
 14 15  1  0  0  0
 15 16  2  0  0  0
 15 17  1  0  0  0
 17 18  1  0  0  0
 18 19  2  0  0  0
 44 39  1  0  0  0
  6  1  1  0  0  0
 26 21  1  0  0  0
 32 27  1  0  0  0
 19 13  1  0  0  0
 11  4  1  0  0  0
 34 36  1  0  0  0
 17 20  1  0  0  0
M  END
> <minimizedAffinity>
37.48719

> <CNNscore>
0.3898600638

> <CNNaffinity>
7.2305641174

> <CNN_VS>
2.8189082146

> <CNNaffinity_variance>
0.3878430426

$$$$
[H]OC(=O)c1c([H])c([H])c(-c2c([H])c([H])c(N3C(=O)N(c4nc([H])n([H])c(=O)c4[H])C4(C3=O)C([H])([H])C([H])([H])N(C([H])([H])c3nc([H])c([H])c([H])c3C([H])([H])[H])C([H])([H])C4([H])[H])c([H])c2[H])c([H])c1[H]


 44 49  0  0  0  0  0  0  0  0999 V2000
   15.8242   25.5540   -2.9795 N   0  0  0  0  0  0  0  0  0  0  0  0
   15.2474   26.6649   -2.2271 C   0  0  0  0  0  0  0  0  0  0  0  0
   13.8075   26.8976   -2.4781 C   0  0  0  0  0  0  0  0  0  0  0  0
   12.9671   25.6742   -2.4755 C   0  0  0  0  0  0  0  0  0  0  0  0
   13.5994   24.5928   -3.3251 C   0  0  0  0  0  0  0  0  0  0  0  0
   14.8547   25.1134   -3.9840 C   0  0  0  0  0  0  0  0  0  0  0  0
   11.5993   25.9115   -2.8527 N   0  0  0  0  0  0  0  0  0  0  0  0
   10.7809   25.0064   -2.0886 C   0  0  0  0  0  0  0  0  0  0  0  0
    9.5700   24.7086   -2.3325 O   0  0  0  0  0  0  0  0  0  0  0  0
   11.5340   24.4838   -1.0029 N   0  0  0  0  0  0  0  0  0  0  0  0
   12.8207   25.0804   -1.1094 C   0  0  0  0  0  0  0  0  0  0  0  0
   13.6521   25.0721   -0.1642 O   0  0  0  0  0  0  0  0  0  0  0  0
   11.0308   26.8178   -3.7925 C   0  0  0  0  0  0  0  0  0  0  0  0
    9.8184   26.6284   -4.3867 C   0  0  0  0  0  0  0  0  0  0  0  0
    9.3677   27.5730   -5.2855 C   0  0  0  0  0  0  0  0  0  0  0  0
    8.2330   27.3621   -5.8182 O   0  0  0  0  0  0  0  0  0  0  0  0
   10.0801   28.6736   -5.5971 N   0  0  0  0  0  0  0  0  0  0  0  0
   11.2799   28.8556   -5.0057 C   0  0  0  0  0  0  0  0  0  0  0  0
   11.7125   27.9532   -4.1458 N   0  0  0  0  0  0  0  0  0  0  0  0
    9.7118   29.3703   -6.2808 H   0  0  0  0  0  0  0  0  0  0  0  0
   11.0928   23.5421   -0.0072 C   0  0  0  0  0  0  0  0  0  0  0  0
   11.4152   22.2040   -0.0490 C   0  0  0  0  0  0  0  0  0  0  0  0
   10.9658   21.3339    0.9230 C   0  0  0  0  0  0  0  0  0  0  0  0
   10.1791   21.7480    1.9772 C   0  0  0  0  0  0  0  0  0  0  0  0
    9.8485   23.0834    2.0332 C   0  0  0  0  0  0  0  0  0  0  0  0
   10.3064   23.9566    1.0474 C   0  0  0  0  0  0  0  0  0  0  0  0
    9.7316   20.7643    2.9702 C   0  0  0  0  0  0  0  0  0  0  0  0
   10.5332   20.3676    4.0180 C   0  0  0  0  0  0  0  0  0  0  0  0
   10.1344   19.4481    4.9485 C   0  0  0  0  0  0  0  0  0  0  0  0
    8.8763   18.8950    4.8325 C   0  0  0  0  0  0  0  0  0  0  0  0
    8.0489   19.2816    3.7815 C   0  0  0  0  0  0  0  0  0  0  0  0
    8.4891   20.2135    2.8621 C   0  0  0  0  0  0  0  0  0  0  0  0
    8.3870   17.9077    5.7869 C   0  0  0  0  0  0  0  0  0  0  0  0
    7.0742   17.8710    6.1922 O   0  0  0  0  0  0  0  0  0  0  0  0
    9.2044   17.0731    6.2417 O   0  0  0  0  0  0  0  0  0  0  0  0
    6.5721   16.9717    6.1352 H   0  0  0  0  0  0  0  0  0  0  0  0
   16.9627   26.0560   -3.7232 C   0  0  0  0  0  0  0  0  0  0  0  0
   15.7416   24.5283   -5.7280 C   0  0  0  0  0  0  0  0  0  0  0  0
   15.9888   25.9684   -5.9497 C   0  0  0  0  0  0  0  0  0  0  0  0
   15.6083   26.5585   -7.1245 C   0  0  0  0  0  0  0  0  0  0  0  0
   15.8283   27.8858   -7.3558 C   0  0  0  0  0  0  0  0  0  0  0  0
   16.4440   28.6227   -6.3792 C   0  0  0  0  0  0  0  0  0  0  0  0
   16.8013   28.0215   -5.2511 N   0  0  0  0  0  0  0  0  0  0  0  0
   16.6130   26.7354   -4.9707 C   0  0  0  0  0  0  0  0  0  0  0  0
 38 39  1  0  0  0
 39 40  2  0  0  0
 40 41  1  0  0  0
 41 42  2  0  0  0
 42 43  1  0  0  0
 43 44  2  0  0  0
 44 37  1  0  0  0
 37  1  1  0  0  0
  1  2  1  0  0  0
  2  3  1  0  0  0
  3  4  1  0  0  0
  4  5  1  0  0  0
  5  6  1  0  0  0
  4  7  1  0  0  0
  7  8  1  0  0  0
  8  9  2  0  0  0
  8 10  1  0  0  0
 10 11  1  0  0  0
 11 12  2  0  0  0
 10 21  1  0  0  0
 21 22  2  0  0  0
 22 23  1  0  0  0
 23 24  2  0  0  0
 24 25  1  0  0  0
 25 26  2  0  0  0
 24 27  1  0  0  0
 27 28  2  0  0  0
 28 29  1  0  0  0
 29 30  2  0  0  0
 30 31  1  0  0  0
 31 32  2  0  0  0
 30 33  1  0  0  0
 33 34  1  0  0  0
 33 35  2  0  0  0
  7 13  1  0  0  0
 13 14  2  0  0  0
 14 15  1  0  0  0
 15 16  2  0  0  0
 15 17  1  0  0  0
 17 18  1  0  0  0
 18 19  2  0  0  0
 44 39  1  0  0  0
  6  1  1  0  0  0
 26 21  1  0  0  0
 32 27  1  0  0  0
 19 13  1  0  0  0
 11  4  1  0  0  0
 34 36  1  0  0  0
 17 20  1  0  0  0
M  END
> <minimizedAffinity>
33.04537

> <CNNscore>
0.3867215514

> <CNNaffinity>
6.8461427689

> <CNN_VS>
2.6475510597

> <CNNaffinity_variance>
0.7668533921

$$$$
[H]OC(=O)c1c([H])c([H])c(-c2c([H])c([H])c(N3C(=O)N(c4nc([H])n([H])c(=O)c4[H])C4(C3=O)C([H])([H])C([H])([H])N(C([H])([H])c3nc([H])c([H])c([H])c3C([H])([H])[H])C([H])([H])C4([H])[H])c([H])c2[H])c([H])c1[H]


 44 49  0  0  0  0  0  0  0  0999 V2000
   15.8411   26.5243   -2.8618 N   0  0  0  0  0  0  0  0  0  0  0  0
   14.8135   26.2661   -3.8668 C   0  0  0  0  0  0  0  0  0  0  0  0
   14.3877   24.8520   -3.9639 C   0  0  0  0  0  0  0  0  0  0  0  0
   14.1312   24.1860   -2.6624 C   0  0  0  0  0  0  0  0  0  0  0  0
   15.2674   24.4486   -1.6975 C   0  0  0  0  0  0  0  0  0  0  0  0
   16.3572   25.2428   -2.3778 C   0  0  0  0  0  0  0  0  0  0  0  0
   13.8495   22.7800   -2.7780 N   0  0  0  0  0  0  0  0  0  0  0  0
   12.8918   22.4493   -1.7550 C   0  0  0  0  0  0  0  0  0  0  0  0
   12.6087   21.2794   -1.3480 O   0  0  0  0  0  0  0  0  0  0  0  0
   12.2974   23.6396   -1.2559 N   0  0  0  0  0  0  0  0  0  0  0  0
   12.8997   24.7014   -1.9858 C   0  0  0  0  0  0  0  0  0  0  0  0
   12.4177   25.8640   -2.0130 O   0  0  0  0  0  0  0  0  0  0  0  0
   14.3585   21.7931   -3.6695 C   0  0  0  0  0  0  0  0  0  0  0  0
   13.5790   21.0768   -4.5287 C   0  0  0  0  0  0  0  0  0  0  0  0
   14.1815   20.1429   -5.3462 C   0  0  0  0  0  0  0  0  0  0  0  0
   13.4223   19.4957   -6.1338 O   0  0  0  0  0  0  0  0  0  0  0  0
   15.5092   19.9132   -5.3267 N   0  0  0  0  0  0  0  0  0  0  0  0
   16.2758   20.6253   -4.4737 C   0  0  0  0  0  0  0  0  0  0  0  0
   15.7013   21.5189   -3.6911 N   0  0  0  0  0  0  0  0  0  0  0  0
   15.9353   19.2001   -5.9578 H   0  0  0  0  0  0  0  0  0  0  0  0
   11.3007   23.7512   -0.2230 C   0  0  0  0  0  0  0  0  0  0  0  0
   10.0637   23.1527   -0.3101 C   0  0  0  0  0  0  0  0  0  0  0  0
    9.1346   23.2904    0.7008 C   0  0  0  0  0  0  0  0  0  0  0  0
    9.3877   24.0248    1.8402 C   0  0  0  0  0  0  0  0  0  0  0  0
   10.6207   24.6291    1.9424 C   0  0  0  0  0  0  0  0  0  0  0  0
   11.5543   24.4852    0.9169 C   0  0  0  0  0  0  0  0  0  0  0  0
    8.3487   24.1337    2.8709 C   0  0  0  0  0  0  0  0  0  0  0  0
    7.9287   25.3518    3.3589 C   0  0  0  0  0  0  0  0  0  0  0  0
    6.9663   25.4711    4.3233 C   0  0  0  0  0  0  0  0  0  0  0  0
    6.3921   24.3232    4.8280 C   0  0  0  0  0  0  0  0  0  0  0  0
    6.8009   23.0814    4.3491 C   0  0  0  0  0  0  0  0  0  0  0  0
    7.7764   23.0034    3.3745 C   0  0  0  0  0  0  0  0  0  0  0  0
    5.3625   24.3759    5.8586 C   0  0  0  0  0  0  0  0  0  0  0  0
    4.7162   23.2478    6.3044 O   0  0  0  0  0  0  0  0  0  0  0  0
    5.0707   25.4949    6.3425 O   0  0  0  0  0  0  0  0  0  0  0  0
    4.6773   23.0788    7.3212 H   0  0  0  0  0  0  0  0  0  0  0  0
   16.9575   27.1777   -3.5160 C   0  0  0  0  0  0  0  0  0  0  0  0
   15.9725   29.7518   -4.0141 C   0  0  0  0  0  0  0  0  0  0  0  0
   16.2353   28.8347   -5.1428 C   0  0  0  0  0  0  0  0  0  0  0  0
   16.0134   29.2462   -6.4291 C   0  0  0  0  0  0  0  0  0  0  0  0
   16.2445   28.4176   -7.4891 C   0  0  0  0  0  0  0  0  0  0  0  0
   16.7071   27.1532   -7.2373 C   0  0  0  0  0  0  0  0  0  0  0  0
   16.9121   26.7838   -5.9791 N   0  0  0  0  0  0  0  0  0  0  0  0
   16.7054   27.5459   -4.9092 C   0  0  0  0  0  0  0  0  0  0  0  0
 38 39  1  0  0  0
 39 40  2  0  0  0
 40 41  1  0  0  0
 41 42  2  0  0  0
 42 43  1  0  0  0
 43 44  2  0  0  0
 44 37  1  0  0  0
 37  1  1  0  0  0
  1  2  1  0  0  0
  2  3  1  0  0  0
  3  4  1  0  0  0
  4  5  1  0  0  0
  5  6  1  0  0  0
  4  7  1  0  0  0
  7  8  1  0  0  0
  8  9  2  0  0  0
  8 10  1  0  0  0
 10 11  1  0  0  0
 11 12  2  0  0  0
 10 21  1  0  0  0
 21 22  2  0  0  0
 22 23  1  0  0  0
 23 24  2  0  0  0
 24 25  1  0  0  0
 25 26  2  0  0  0
 24 27  1  0  0  0
 27 28  2  0  0  0
 28 29  1  0  0  0
 29 30  2  0  0  0
 30 31  1  0  0  0
 31 32  2  0  0  0
 30 33  1  0  0  0
 33 34  1  0  0  0
 33 35  2  0  0  0
  7 13  1  0  0  0
 13 14  2  0  0  0
 14 15  1  0  0  0
 15 16  2  0  0  0
 15 17  1  0  0  0
 17 18  1  0  0  0
 18 19  2  0  0  0
 44 39  1  0  0  0
  6  1  1  0  0  0
 26 21  1  0  0  0
 32 27  1  0  0  0
 19 13  1  0  0  0
 11  4  1  0  0  0
 34 36  1  0  0  0
 17 20  1  0  0  0
M  END
> <minimizedAffinity>
15.74421

> <CNNscore>
0.3470826447

> <CNNaffinity>
7.3504929543

> <CNN_VS>
2.5512285233

> <CNNaffinity_variance>
0.9208035469

$$$$
[H]OC(=O)c1c([H])c([H])c(-c2c([H])c([H])c(N3C(=O)N(c4nc([H])nc(C([H])([H])[H])c4[H])C4(C3=O)C([H])([H])C([H])([H])N(C([H])([H])c3nc([H])c([H])c([H])c3C([H])([H])[H])C([H])([H])C4([H])[H])c([H])c2[H])c([H])c1[H]


 43 48  0  0  0  0  0  0  0  0999 V2000
   14.3778   26.5852   -3.3134 N   0  0  0  0  0  0  0  0  0  0  0  0
   14.3888   25.8086   -2.1074 C   0  0  0  0  0  0  0  0  0  0  0  0
   15.3670   25.7252   -1.3212 O   0  0  0  0  0  0  0  0  0  0  0  0
   13.1177   25.1497   -1.9448 N   0  0  0  0  0  0  0  0  0  0  0  0
   12.3673   25.5730   -3.1071 C   0  0  0  0  0  0  0  0  0  0  0  0
   11.4141   24.9536   -3.6223 O   0  0  0  0  0  0  0  0  0  0  0  0
   12.9631   26.8583   -3.5327 C   0  0  0  0  0  0  0  0  0  0  0  0
   12.5318   27.9470   -2.5762 C   0  0  0  0  0  0  0  0  0  0  0  0
   11.8638   29.0860   -3.3299 C   0  0  0  0  0  0  0  0  0  0  0  0
   10.7891   28.5825   -4.1657 N   0  0  0  0  0  0  0  0  0  0  0  0
   11.2191   27.6120   -5.1074 C   0  0  0  0  0  0  0  0  0  0  0  0
   12.6666   27.2608   -4.9304 C   0  0  0  0  0  0  0  0  0  0  0  0
   19.0182   28.3867   -3.7404 C   0  0  0  0  0  0  0  0  0  0  0  0
   17.7568   27.8384   -4.3026 C   0  0  0  0  0  0  0  0  0  0  0  0
   16.6751   27.4747   -3.5306 C   0  0  0  0  0  0  0  0  0  0  0  0
   15.5116   26.9698   -4.0648 C   0  0  0  0  0  0  0  0  0  0  0  0
   15.4548   26.8355   -5.4024 N   0  0  0  0  0  0  0  0  0  0  0  0
   16.5002   27.1842   -6.1837 C   0  0  0  0  0  0  0  0  0  0  0  0
   17.6307   27.6769   -5.6427 N   0  0  0  0  0  0  0  0  0  0  0  0
   12.6876   24.2951   -0.8961 C   0  0  0  0  0  0  0  0  0  0  0  0
   13.3214   23.0700   -0.7098 C   0  0  0  0  0  0  0  0  0  0  0  0
   12.9199   22.2197    0.2886 C   0  0  0  0  0  0  0  0  0  0  0  0
   11.8805   22.5566    1.1307 C   0  0  0  0  0  0  0  0  0  0  0  0
   11.2284   23.7611    0.9776 C   0  0  0  0  0  0  0  0  0  0  0  0
   11.6528   24.6059   -0.0403 C   0  0  0  0  0  0  0  0  0  0  0  0
   11.5115   21.5868    2.1713 C   0  0  0  0  0  0  0  0  0  0  0  0
   10.4618   21.8142    3.0365 C   0  0  0  0  0  0  0  0  0  0  0  0
   10.1007   20.9059    4.0278 C   0  0  0  0  0  0  0  0  0  0  0  0
   10.8052   19.7242    4.1708 C   0  0  0  0  0  0  0  0  0  0  0  0
   11.8522   19.5047    3.3025 C   0  0  0  0  0  0  0  0  0  0  0  0
   12.2119   20.4078    2.3165 C   0  0  0  0  0  0  0  0  0  0  0  0
   10.4683   18.7422    5.1917 C   0  0  0  0  0  0  0  0  0  0  0  0
   11.4018   17.7706    5.5085 O   0  0  0  0  0  0  0  0  0  0  0  0
    9.3725   18.7328    5.7990 O   0  0  0  0  0  0  0  0  0  0  0  0
   11.3449   16.8594    5.0617 H   0  0  0  0  0  0  0  0  0  0  0  0
   10.1035   29.7212   -4.6971 C   0  0  0  0  0  0  0  0  0  0  0  0
    8.6996   29.8496   -4.3335 C   0  0  0  0  0  0  0  0  0  0  0  0
    8.3159   30.4390   -3.2081 N   0  0  0  0  0  0  0  0  0  0  0  0
    7.0319   30.5668   -2.8667 C   0  0  0  0  0  0  0  0  0  0  0  0
    6.0533   30.0817   -3.6884 C   0  0  0  0  0  0  0  0  0  0  0  0
    6.3833   29.4640   -4.8617 C   0  0  0  0  0  0  0  0  0  0  0  0
    7.7305   29.3541   -5.1748 C   0  0  0  0  0  0  0  0  0  0  0  0
    8.1295   28.6905   -6.4372 C   0  0  0  0  0  0  0  0  0  0  0  0
 13 14  1  0  0  0
 14 15  2  0  0  0
 15 16  1  0  0  0
 16 17  2  0  0  0
 17 18  1  0  0  0
 18 19  2  0  0  0
 16  1  1  0  0  0
  1  2  1  0  0  0
  2  3  2  0  0  0
  2  4  1  0  0  0
  4  5  1  0  0  0
  5  6  2  0  0  0
  5  7  1  0  0  0
  7  8  1  0  0  0
  8  9  1  0  0  0
  9 10  1  0  0  0
 10 36  1  0  0  0
 36 37  1  0  0  0
 37 38  2  0  0  0
 38 39  1  0  0  0
 39 40  2  0  0  0
 40 41  1  0  0  0
 41 42  2  0  0  0
 42 43  1  0  0  0
 10 11  1  0  0  0
 11 12  1  0  0  0
  4 20  1  0  0  0
 20 21  2  0  0  0
 21 22  1  0  0  0
 22 23  2  0  0  0
 23 24  1  0  0  0
 24 25  2  0  0  0
 23 26  1  0  0  0
 26 27  2  0  0  0
 27 28  1  0  0  0
 28 29  2  0  0  0
 29 30  1  0  0  0
 30 31  2  0  0  0
 29 32  1  0  0  0
 32 33  1  0  0  0
 32 34  2  0  0  0
 19 14  1  0  0  0
  7  1  1  0  0  0
 12  7  1  0  0  0
 25 20  1  0  0  0
 31 26  1  0  0  0
 42 37  1  0  0  0
 33 35  1  0  0  0
M  END
> <minimizedAffinity>
21.73893

> <CNNscore>
0.5227123499

> <CNNaffinity>
7.4596471786

> <CNN_VS>
3.8992497921

> <CNNaffinity_variance>
0.7243414521

$$$$
[H]OC(=O)c1c([H])c([H])c(-c2c([H])c([H])c(N3C(=O)N(c4nc([H])nc(C([H])([H])[H])c4[H])C4(C3=O)C([H])([H])C([H])([H])N(C([H])([H])c3nc([H])c([H])c([H])c3C([H])([H])[H])C([H])([H])C4([H])[H])c([H])c2[H])c([H])c1[H]


 43 48  0  0  0  0  0  0  0  0999 V2000
   13.7935   25.1334   -2.7505 N   0  0  0  0  0  0  0  0  0  0  0  0
   12.5885   24.4763   -2.3333 C   0  0  0  0  0  0  0  0  0  0  0  0
   11.6842   24.0815   -3.1133 O   0  0  0  0  0  0  0  0  0  0  0  0
   12.5816   24.3439   -0.8985 N   0  0  0  0  0  0  0  0  0  0  0  0
   13.8313   24.9529   -0.4976 C   0  0  0  0  0  0  0  0  0  0  0  0
   14.0703   25.4538    0.6203 O   0  0  0  0  0  0  0  0  0  0  0  0
   14.7292   24.8530   -1.6688 C   0  0  0  0  0  0  0  0  0  0  0  0
   15.2077   23.4255   -1.8079 C   0  0  0  0  0  0  0  0  0  0  0  0
   16.7272   23.3708   -1.8223 C   0  0  0  0  0  0  0  0  0  0  0  0
   17.2727   24.0605   -0.6674 N   0  0  0  0  0  0  0  0  0  0  0  0
   16.8729   25.4196   -0.5859 C   0  0  0  0  0  0  0  0  0  0  0  0
   15.8882   25.7805   -1.6582 C   0  0  0  0  0  0  0  0  0  0  0  0
   15.5073   25.6607   -7.4137 C   0  0  0  0  0  0  0  0  0  0  0  0
   14.7882   26.1463   -6.2075 C   0  0  0  0  0  0  0  0  0  0  0  0
   14.6380   25.3993   -5.0595 C   0  0  0  0  0  0  0  0  0  0  0  0
   13.9708   25.8623   -3.9485 C   0  0  0  0  0  0  0  0  0  0  0  0
   13.4519   27.1021   -4.0130 N   0  0  0  0  0  0  0  0  0  0  0  0
   13.5841   27.8567   -5.1257 C   0  0  0  0  0  0  0  0  0  0  0  0
   14.2407   27.3865   -6.2033 N   0  0  0  0  0  0  0  0  0  0  0  0
   11.5965   23.7516   -0.0656 C   0  0  0  0  0  0  0  0  0  0  0  0
   10.2513   24.0198   -0.3017 C   0  0  0  0  0  0  0  0  0  0  0  0
    9.2786   23.4699    0.4936 C   0  0  0  0  0  0  0  0  0  0  0  0
    9.6085   22.6395    1.5446 C   0  0  0  0  0  0  0  0  0  0  0  0
   10.9296   22.3503    1.8098 C   0  0  0  0  0  0  0  0  0  0  0  0
   11.8971   22.9187    0.9907 C   0  0  0  0  0  0  0  0  0  0  0  0
    8.5054   22.0958    2.3491 C   0  0  0  0  0  0  0  0  0  0  0  0
    7.3472   21.6234    1.7681 C   0  0  0  0  0  0  0  0  0  0  0  0
    6.2933   21.1063    2.5165 C   0  0  0  0  0  0  0  0  0  0  0  0
    6.3868   21.0536    3.8955 C   0  0  0  0  0  0  0  0  0  0  0  0
    7.5471   21.5274    4.4679 C   0  0  0  0  0  0  0  0  0  0  0  0
    8.5956   22.0419    3.7241 C   0  0  0  0  0  0  0  0  0  0  0  0
    5.3128   20.5232    4.7233 C   0  0  0  0  0  0  0  0  0  0  0  0
    4.6946   19.3483    4.3319 O   0  0  0  0  0  0  0  0  0  0  0  0
    4.9193   21.0790    5.7749 O   0  0  0  0  0  0  0  0  0  0  0  0
    3.8326   19.3929    3.7951 H   0  0  0  0  0  0  0  0  0  0  0  0
   18.6825   23.8129   -0.6594 C   0  0  0  0  0  0  0  0  0  0  0  0
   19.3826   24.1415    0.5741 C   0  0  0  0  0  0  0  0  0  0  0  0
   20.6779   24.4292    0.5921 N   0  0  0  0  0  0  0  0  0  0  0  0
   21.3291   24.7366    1.7159 C   0  0  0  0  0  0  0  0  0  0  0  0
   20.6618   24.7641    2.9084 C   0  0  0  0  0  0  0  0  0  0  0  0
   19.3267   24.4772    2.9568 C   0  0  0  0  0  0  0  0  0  0  0  0
   18.6919   24.1631    1.7637 C   0  0  0  0  0  0  0  0  0  0  0  0
   17.2455   23.8453    1.7739 C   0  0  0  0  0  0  0  0  0  0  0  0
 13 14  1  0  0  0
 14 15  2  0  0  0
 15 16  1  0  0  0
 16 17  2  0  0  0
 17 18  1  0  0  0
 18 19  2  0  0  0
 16  1  1  0  0  0
  1  2  1  0  0  0
  2  3  2  0  0  0
  2  4  1  0  0  0
  4  5  1  0  0  0
  5  6  2  0  0  0
  5  7  1  0  0  0
  7  8  1  0  0  0
  8  9  1  0  0  0
  9 10  1  0  0  0
 10 36  1  0  0  0
 36 37  1  0  0  0
 37 38  2  0  0  0
 38 39  1  0  0  0
 39 40  2  0  0  0
 40 41  1  0  0  0
 41 42  2  0  0  0
 42 43  1  0  0  0
 10 11  1  0  0  0
 11 12  1  0  0  0
  4 20  1  0  0  0
 20 21  2  0  0  0
 21 22  1  0  0  0
 22 23  2  0  0  0
 23 24  1  0  0  0
 24 25  2  0  0  0
 23 26  1  0  0  0
 26 27  2  0  0  0
 27 28  1  0  0  0
 28 29  2  0  0  0
 29 30  1  0  0  0
 30 31  2  0  0  0
 29 32  1  0  0  0
 32 33  1  0  0  0
 32 34  2  0  0  0
 19 14  1  0  0  0
  7  1  1  0  0  0
 12  7  1  0  0  0
 25 20  1  0  0  0
 31 26  1  0  0  0
 42 37  1  0  0  0
 33 35  1  0  0  0
M  END
> <minimizedAffinity>
21.66083

> <CNNscore>
0.5150342584

> <CNNaffinity>
7.6506223679

> <CNN_VS>
3.9403326511

> <CNNaffinity_variance>
0.3673969805

$$$$
[H]OC(=O)c1c([H])c([H])c(-c2c([H])c([H])c(N3C(=O)N(c4nc([H])nc(C([H])([H])[H])c4[H])C4(C3=O)C([H])([H])C([H])([H])N(C([H])([H])c3nc([H])c([H])c([H])c3C([H])([H])[H])C([H])([H])C4([H])[H])c([H])c2[H])c([H])c1[H]


 43 48  0  0  0  0  0  0  0  0999 V2000
   12.2819   26.6406   -2.8284 N   0  0  0  0  0  0  0  0  0  0  0  0
   11.5107   25.7137   -2.0514 C   0  0  0  0  0  0  0  0  0  0  0  0
   10.2649   25.5673   -2.1450 O   0  0  0  0  0  0  0  0  0  0  0  0
   12.3803   24.9887   -1.1600 N   0  0  0  0  0  0  0  0  0  0  0  0
   13.6892   25.5335   -1.4488 C   0  0  0  0  0  0  0  0  0  0  0  0
   14.6613   25.5432   -0.6662 O   0  0  0  0  0  0  0  0  0  0  0  0
   13.6181   26.0585   -2.8298 C   0  0  0  0  0  0  0  0  0  0  0  0
   13.6351   24.9014   -3.8029 C   0  0  0  0  0  0  0  0  0  0  0  0
   14.7680   25.0624   -4.8041 C   0  0  0  0  0  0  0  0  0  0  0  0
   16.0300   25.2669   -4.1166 N   0  0  0  0  0  0  0  0  0  0  0  0
   16.0243   26.3975   -3.2592 C   0  0  0  0  0  0  0  0  0  0  0  0
   14.6714   27.0413   -3.1878 C   0  0  0  0  0  0  0  0  0  0  0  0
    9.1303   29.1451   -5.7874 C   0  0  0  0  0  0  0  0  0  0  0  0
   10.2868   29.0626   -4.8582 C   0  0  0  0  0  0  0  0  0  0  0  0
   10.7238   27.8857   -4.2904 C   0  0  0  0  0  0  0  0  0  0  0  0
   11.7979   27.8233   -3.4325 C   0  0  0  0  0  0  0  0  0  0  0  0
   12.4312   28.9770   -3.1525 N   0  0  0  0  0  0  0  0  0  0  0  0
   12.0245   30.1456   -3.6949 C   0  0  0  0  0  0  0  0  0  0  0  0
   10.9711   30.1868   -4.5327 N   0  0  0  0  0  0  0  0  0  0  0  0
   12.0479   23.9741   -0.2246 C   0  0  0  0  0  0  0  0  0  0  0  0
   10.7093   23.6729    0.0096 C   0  0  0  0  0  0  0  0  0  0  0  0
   10.3587   22.7047    0.9156 C   0  0  0  0  0  0  0  0  0  0  0  0
   11.3214   22.0073    1.6154 C   0  0  0  0  0  0  0  0  0  0  0  0
   12.6574   22.2772    1.4107 C   0  0  0  0  0  0  0  0  0  0  0  0
   12.9883   23.2617    0.4882 C   0  0  0  0  0  0  0  0  0  0  0  0
   10.8598   20.9895    2.5696 C   0  0  0  0  0  0  0  0  0  0  0  0
   11.4577   19.7496    2.6547 C   0  0  0  0  0  0  0  0  0  0  0  0
   11.0313   18.7747    3.5524 C   0  0  0  0  0  0  0  0  0  0  0  0
    9.9707   19.0349    4.4014 C   0  0  0  0  0  0  0  0  0  0  0  0
    9.3791   20.2758    4.3101 C   0  0  0  0  0  0  0  0  0  0  0  0
    9.8026   21.2458    3.4172 C   0  0  0  0  0  0  0  0  0  0  0  0
    9.4861   18.0494    5.3573 C   0  0  0  0  0  0  0  0  0  0  0  0
   10.3603   17.0718    5.8001 O   0  0  0  0  0  0  0  0  0  0  0  0
    8.3141   18.0420    5.8001 O   0  0  0  0  0  0  0  0  0  0  0  0
   10.3649   16.1631    5.3446 H   0  0  0  0  0  0  0  0  0  0  0  0
   17.0589   25.2307   -5.1110 C   0  0  0  0  0  0  0  0  0  0  0  0
   16.6663   25.6371   -6.4528 C   0  0  0  0  0  0  0  0  0  0  0  0
   16.4604   24.7551   -7.4226 N   0  0  0  0  0  0  0  0  0  0  0  0
   16.0954   25.1156   -8.6548 C   0  0  0  0  0  0  0  0  0  0  0  0
   15.9197   26.4367   -8.9580 C   0  0  0  0  0  0  0  0  0  0  0  0
   16.1164   27.3941   -8.0031 C   0  0  0  0  0  0  0  0  0  0  0  0
   16.4951   26.9723   -6.7368 C   0  0  0  0  0  0  0  0  0  0  0  0
   16.7189   27.9792   -5.6741 C   0  0  0  0  0  0  0  0  0  0  0  0
 13 14  1  0  0  0
 14 15  2  0  0  0
 15 16  1  0  0  0
 16 17  2  0  0  0
 17 18  1  0  0  0
 18 19  2  0  0  0
 16  1  1  0  0  0
  1  2  1  0  0  0
  2  3  2  0  0  0
  2  4  1  0  0  0
  4  5  1  0  0  0
  5  6  2  0  0  0
  5  7  1  0  0  0
  7  8  1  0  0  0
  8  9  1  0  0  0
  9 10  1  0  0  0
 10 36  1  0  0  0
 36 37  1  0  0  0
 37 38  2  0  0  0
 38 39  1  0  0  0
 39 40  2  0  0  0
 40 41  1  0  0  0
 41 42  2  0  0  0
 42 43  1  0  0  0
 10 11  1  0  0  0
 11 12  1  0  0  0
  4 20  1  0  0  0
 20 21  2  0  0  0
 21 22  1  0  0  0
 22 23  2  0  0  0
 23 24  1  0  0  0
 24 25  2  0  0  0
 23 26  1  0  0  0
 26 27  2  0  0  0
 27 28  1  0  0  0
 28 29  2  0  0  0
 29 30  1  0  0  0
 30 31  2  0  0  0
 29 32  1  0  0  0
 32 33  1  0  0  0
 32 34  2  0  0  0
 19 14  1  0  0  0
  7  1  1  0  0  0
 12  7  1  0  0  0
 25 20  1  0  0  0
 31 26  1  0  0  0
 42 37  1  0  0  0
 33 35  1  0  0  0
M  END
> <minimizedAffinity>
32.62908

> <CNNscore>
0.4871490002

> <CNNaffinity>
7.0028495789

> <CNN_VS>
3.4114310741

> <CNNaffinity_variance>
0.5648318529

$$$$
[H]OC(=O)c1c([H])c([H])c(-c2c([H])c([H])c(N3C(=O)N(c4nc([H])nc(C([H])([H])[H])c4[H])C4(C3=O)C([H])([H])C([H])([H])N(C([H])([H])c3nc([H])c([H])c([H])c3C([H])([H])[H])C([H])([H])C4([H])[H])c([H])c2[H])c([H])c1[H]


 43 48  0  0  0  0  0  0  0  0999 V2000
   16.5575   24.2676    0.1496 N   0  0  0  0  0  0  0  0  0  0  0  0
   15.4227   23.7711    0.8732 C   0  0  0  0  0  0  0  0  0  0  0  0
   15.2743   23.8636    2.1187 O   0  0  0  0  0  0  0  0  0  0  0  0
   14.4949   23.1585   -0.0434 N   0  0  0  0  0  0  0  0  0  0  0  0
   15.1374   23.3171   -1.3300 C   0  0  0  0  0  0  0  0  0  0  0  0
   14.9466   22.5973   -2.3316 O   0  0  0  0  0  0  0  0  0  0  0  0
   16.0396   24.4816   -1.1958 C   0  0  0  0  0  0  0  0  0  0  0  0
   15.2170   25.7502   -1.1960 C   0  0  0  0  0  0  0  0  0  0  0  0
   15.6950   26.6963   -2.2860 C   0  0  0  0  0  0  0  0  0  0  0  0
   15.7265   26.0197   -3.5699 N   0  0  0  0  0  0  0  0  0  0  0  0
   16.5578   24.8696   -3.5770 C   0  0  0  0  0  0  0  0  0  0  0  0
   17.1138   24.5703   -2.2164 C   0  0  0  0  0  0  0  0  0  0  0  0
   21.4809   23.4357    0.3179 C   0  0  0  0  0  0  0  0  0  0  0  0
   20.2368   24.1020    0.7828 C   0  0  0  0  0  0  0  0  0  0  0  0
   18.9952   23.8611    0.2363 C   0  0  0  0  0  0  0  0  0  0  0  0
   17.8504   24.4841    0.6780 C   0  0  0  0  0  0  0  0  0  0  0  0
   17.9776   25.3629    1.6891 N   0  0  0  0  0  0  0  0  0  0  0  0
   19.1826   25.6184    2.2439 C   0  0  0  0  0  0  0  0  0  0  0  0
   20.2919   24.9987    1.7982 N   0  0  0  0  0  0  0  0  0  0  0  0
   13.2427   22.5501    0.2339 C   0  0  0  0  0  0  0  0  0  0  0  0
   12.4584   23.0439    1.2725 C   0  0  0  0  0  0  0  0  0  0  0  0
   11.2491   22.4691    1.5696 C   0  0  0  0  0  0  0  0  0  0  0  0
   10.7813   21.3901    0.8486 C   0  0  0  0  0  0  0  0  0  0  0  0
   11.5293   20.8732   -0.1872 C   0  0  0  0  0  0  0  0  0  0  0  0
   12.7506   21.4719   -0.4697 C   0  0  0  0  0  0  0  0  0  0  0  0
    9.4779   20.8322    1.2351 C   0  0  0  0  0  0  0  0  0  0  0  0
    8.8123   19.9232    0.4395 C   0  0  0  0  0  0  0  0  0  0  0  0
    7.5769   19.3866    0.7913 C   0  0  0  0  0  0  0  0  0  0  0  0
    6.9736   19.7629    1.9777 C   0  0  0  0  0  0  0  0  0  0  0  0
    7.6451   20.6712    2.7667 C   0  0  0  0  0  0  0  0  0  0  0  0
    8.8738   21.2054    2.4172 C   0  0  0  0  0  0  0  0  0  0  0  0
    5.6824   19.2318    2.3908 C   0  0  0  0  0  0  0  0  0  0  0  0
    5.5450   17.8616    2.5307 O   0  0  0  0  0  0  0  0  0  0  0  0
    4.6869   19.9551    2.6262 O   0  0  0  0  0  0  0  0  0  0  0  0
    5.1680   17.3166    1.7599 H   0  0  0  0  0  0  0  0  0  0  0  0
   16.0110   27.0136   -4.5599 C   0  0  0  0  0  0  0  0  0  0  0  0
   15.8634   26.5956   -5.9467 C   0  0  0  0  0  0  0  0  0  0  0  0
   15.6251   25.3332   -6.2789 N   0  0  0  0  0  0  0  0  0  0  0  0
   15.4831   24.9392   -7.5463 C   0  0  0  0  0  0  0  0  0  0  0  0
   15.5820   25.8491   -8.5614 C   0  0  0  0  0  0  0  0  0  0  0  0
   15.8265   27.1648   -8.2850 C   0  0  0  0  0  0  0  0  0  0  0  0
   15.9669   27.5277   -6.9532 C   0  0  0  0  0  0  0  0  0  0  0  0
   16.2335   28.9439   -6.6120 C   0  0  0  0  0  0  0  0  0  0  0  0
 13 14  1  0  0  0
 14 15  2  0  0  0
 15 16  1  0  0  0
 16 17  2  0  0  0
 17 18  1  0  0  0
 18 19  2  0  0  0
 16  1  1  0  0  0
  1  2  1  0  0  0
  2  3  2  0  0  0
  2  4  1  0  0  0
  4  5  1  0  0  0
  5  6  2  0  0  0
  5  7  1  0  0  0
  7  8  1  0  0  0
  8  9  1  0  0  0
  9 10  1  0  0  0
 10 36  1  0  0  0
 36 37  1  0  0  0
 37 38  2  0  0  0
 38 39  1  0  0  0
 39 40  2  0  0  0
 40 41  1  0  0  0
 41 42  2  0  0  0
 42 43  1  0  0  0
 10 11  1  0  0  0
 11 12  1  0  0  0
  4 20  1  0  0  0
 20 21  2  0  0  0
 21 22  1  0  0  0
 22 23  2  0  0  0
 23 24  1  0  0  0
 24 25  2  0  0  0
 23 26  1  0  0  0
 26 27  2  0  0  0
 27 28  1  0  0  0
 28 29  2  0  0  0
 29 30  1  0  0  0
 30 31  2  0  0  0
 29 32  1  0  0  0
 32 33  1  0  0  0
 32 34  2  0  0  0
 19 14  1  0  0  0
  7  1  1  0  0  0
 12  7  1  0  0  0
 25 20  1  0  0  0
 31 26  1  0  0  0
 42 37  1  0  0  0
 33 35  1  0  0  0
M  END
> <minimizedAffinity>
28.27273

> <CNNscore>
0.4608578980

> <CNNaffinity>
7.5771584511

> <CNN_VS>
3.4919934273

> <CNNaffinity_variance>
0.6255405545

$$$$
[H]OC(=O)c1c([H])c([H])c(-c2c([H])c([H])c(N3C(=O)N(c4nc([H])nc(C([H])([H])[H])c4[H])C4(C3=O)C([H])([H])C([H])([H])N(C([H])([H])c3nc([H])c([H])c([H])c3C([H])([H])[H])C([H])([H])C4([H])[H])c([H])c2[H])c([H])c1[H]


 43 48  0  0  0  0  0  0  0  0999 V2000
   14.4174   25.1465   -2.5507 N   0  0  0  0  0  0  0  0  0  0  0  0
   13.1637   24.5306   -2.2241 C   0  0  0  0  0  0  0  0  0  0  0  0
   12.3630   24.0510   -3.0672 O   0  0  0  0  0  0  0  0  0  0  0  0
   12.9727   24.5502   -0.7960 N   0  0  0  0  0  0  0  0  0  0  0  0
   14.1660   25.2048   -0.3051 C   0  0  0  0  0  0  0  0  0  0  0  0
   14.2645   25.8220    0.7751 O   0  0  0  0  0  0  0  0  0  0  0  0
   15.2051   24.9867   -1.3350 C   0  0  0  0  0  0  0  0  0  0  0  0
   15.6857   23.5551   -1.2607 C   0  0  0  0  0  0  0  0  0  0  0  0
   17.1941   23.5073   -1.0752 C   0  0  0  0  0  0  0  0  0  0  0  0
   17.5934   24.3178    0.0609 N   0  0  0  0  0  0  0  0  0  0  0  0
   17.1977   25.6758   -0.0528 C   0  0  0  0  0  0  0  0  0  0  0  0
   16.3608   25.9164   -1.2741 C   0  0  0  0  0  0  0  0  0  0  0  0
   15.6376   29.0674   -5.3965 C   0  0  0  0  0  0  0  0  0  0  0  0
   15.3444   27.6255   -5.1891 C   0  0  0  0  0  0  0  0  0  0  0  0
   15.0233   27.0833   -3.9639 C   0  0  0  0  0  0  0  0  0  0  0  0
   14.7520   25.7459   -3.7863 C   0  0  0  0  0  0  0  0  0  0  0  0
   14.8103   24.9553   -4.8735 N   0  0  0  0  0  0  0  0  0  0  0  0
   15.1224   25.4599   -6.0872 C   0  0  0  0  0  0  0  0  0  0  0  0
   15.3847   26.7717   -6.2415 N   0  0  0  0  0  0  0  0  0  0  0  0
   11.8846   24.0438   -0.0380 C   0  0  0  0  0  0  0  0  0  0  0  0
   11.2509   24.8714    0.8845 C   0  0  0  0  0  0  0  0  0  0  0  0
   10.2038   24.4057    1.6380 C   0  0  0  0  0  0  0  0  0  0  0  0
    9.7540   23.1088    1.5009 C   0  0  0  0  0  0  0  0  0  0  0  0
   10.3559   22.2593    0.5978 C   0  0  0  0  0  0  0  0  0  0  0  0
   11.4142   22.7534   -0.1543 C   0  0  0  0  0  0  0  0  0  0  0  0
    8.6298   22.6895    2.3494 C   0  0  0  0  0  0  0  0  0  0  0  0
    8.1960   21.3808    2.3856 C   0  0  0  0  0  0  0  0  0  0  0  0
    7.1322   20.9684    3.1833 C   0  0  0  0  0  0  0  0  0  0  0  0
    6.4693   21.8860    3.9781 C   0  0  0  0  0  0  0  0  0  0  0  0
    6.9089   23.1911    3.9362 C   0  0  0  0  0  0  0  0  0  0  0  0
    7.9669   23.6020    3.1429 C   0  0  0  0  0  0  0  0  0  0  0  0
    5.3508   21.5059    4.8292 C   0  0  0  0  0  0  0  0  0  0  0  0
    4.6879   20.3210    4.5603 O   0  0  0  0  0  0  0  0  0  0  0  0
    4.9574   22.1999    5.7953 O   0  0  0  0  0  0  0  0  0  0  0  0
    3.8428   20.3390    3.9957 H   0  0  0  0  0  0  0  0  0  0  0  0
   18.9886   24.0799    0.2750 C   0  0  0  0  0  0  0  0  0  0  0  0
   19.4515   24.1848    1.6513 C   0  0  0  0  0  0  0  0  0  0  0  0
   18.6379   23.9978    2.6829 N   0  0  0  0  0  0  0  0  0  0  0  0
   19.0520   24.0865    3.9487 C   0  0  0  0  0  0  0  0  0  0  0  0
   20.3585   24.3798    4.2228 C   0  0  0  0  0  0  0  0  0  0  0  0
   21.2464   24.5837    3.2043 C   0  0  0  0  0  0  0  0  0  0  0  0
   20.7707   24.4813    1.9051 C   0  0  0  0  0  0  0  0  0  0  0  0
   21.7013   24.6961    0.7733 C   0  0  0  0  0  0  0  0  0  0  0  0
 13 14  1  0  0  0
 14 15  2  0  0  0
 15 16  1  0  0  0
 16 17  2  0  0  0
 17 18  1  0  0  0
 18 19  2  0  0  0
 16  1  1  0  0  0
  1  2  1  0  0  0
  2  3  2  0  0  0
  2  4  1  0  0  0
  4  5  1  0  0  0
  5  6  2  0  0  0
  5  7  1  0  0  0
  7  8  1  0  0  0
  8  9  1  0  0  0
  9 10  1  0  0  0
 10 36  1  0  0  0
 36 37  1  0  0  0
 37 38  2  0  0  0
 38 39  1  0  0  0
 39 40  2  0  0  0
 40 41  1  0  0  0
 41 42  2  0  0  0
 42 43  1  0  0  0
 10 11  1  0  0  0
 11 12  1  0  0  0
  4 20  1  0  0  0
 20 21  2  0  0  0
 21 22  1  0  0  0
 22 23  2  0  0  0
 23 24  1  0  0  0
 24 25  2  0  0  0
 23 26  1  0  0  0
 26 27  2  0  0  0
 27 28  1  0  0  0
 28 29  2  0  0  0
 29 30  1  0  0  0
 30 31  2  0  0  0
 29 32  1  0  0  0
 32 33  1  0  0  0
 32 34  2  0  0  0
 19 14  1  0  0  0
  7  1  1  0  0  0
 12  7  1  0  0  0
 25 20  1  0  0  0
 31 26  1  0  0  0
 42 37  1  0  0  0
 33 35  1  0  0  0
M  END
> <minimizedAffinity>
29.62748

> <CNNscore>
0.4327587783

> <CNNaffinity>
7.3007974625

> <CNN_VS>
3.1594841480

> <CNNaffinity_variance>
0.2248277217

$$$$
[H]OC(=O)c1c([H])c([H])c(-c2c([H])c([H])c(N3C(=O)N(c4nc([H])nc(C([H])([H])[H])c4[H])C4(C3=O)C([H])([H])C([H])([H])N(C([H])([H])c3nc([H])c([H])c([H])c3C([H])([H])[H])C([H])([H])C4([H])[H])c([H])c2[H])c([H])c1[H]


 43 48  0  0  0  0  0  0  0  0999 V2000
   16.0347   23.9461   -0.1831 N   0  0  0  0  0  0  0  0  0  0  0  0
   14.9943   23.5378    0.7161 C   0  0  0  0  0  0  0  0  0  0  0  0
   15.0875   23.5553    1.9703 O   0  0  0  0  0  0  0  0  0  0  0  0
   13.8431   23.1110   -0.0381 N   0  0  0  0  0  0  0  0  0  0  0  0
   14.2572   23.2856   -1.4134 C   0  0  0  0  0  0  0  0  0  0  0  0
   13.7947   22.6700   -2.3956 O   0  0  0  0  0  0  0  0  0  0  0  0
   15.3146   24.3197   -1.3939 C   0  0  0  0  0  0  0  0  0  0  0  0
   14.6806   25.6748   -1.1749 C   0  0  0  0  0  0  0  0  0  0  0  0
   15.0741   26.6343   -2.2868 C   0  0  0  0  0  0  0  0  0  0  0  0
   14.7828   26.0555   -3.5858 N   0  0  0  0  0  0  0  0  0  0  0  0
   15.4396   24.8174   -3.8076 C   0  0  0  0  0  0  0  0  0  0  0  0
   16.1883   24.3535   -2.5935 C   0  0  0  0  0  0  0  0  0  0  0  0
   20.8407   24.1744   -1.5290 C   0  0  0  0  0  0  0  0  0  0  0  0
   19.7544   24.0745   -0.5201 C   0  0  0  0  0  0  0  0  0  0  0  0
   18.4152   24.0605   -0.8433 C   0  0  0  0  0  0  0  0  0  0  0  0
   17.4191   23.9655    0.1015 C   0  0  0  0  0  0  0  0  0  0  0  0
   17.7975   23.8844    1.3902 N   0  0  0  0  0  0  0  0  0  0  0  0
   19.1033   23.8957    1.7360 C   0  0  0  0  0  0  0  0  0  0  0  0
   20.0641   23.9891    0.7971 N   0  0  0  0  0  0  0  0  0  0  0  0
   12.5926   22.6392    0.4401 C   0  0  0  0  0  0  0  0  0  0  0  0
   12.3317   22.6612    1.8072 C   0  0  0  0  0  0  0  0  0  0  0  0
   11.1363   22.2019    2.2983 C   0  0  0  0  0  0  0  0  0  0  0  0
   10.1655   21.7078    1.4519 C   0  0  0  0  0  0  0  0  0  0  0  0
   10.3870   21.6699    0.0921 C   0  0  0  0  0  0  0  0  0  0  0  0
   11.6050   22.1407   -0.3820 C   0  0  0  0  0  0  0  0  0  0  0  0
    8.9154   21.2324    2.0607 C   0  0  0  0  0  0  0  0  0  0  0  0
    8.4102   21.7940    3.2146 C   0  0  0  0  0  0  0  0  0  0  0  0
    7.2280   21.3543    3.8038 C   0  0  0  0  0  0  0  0  0  0  0  0
    6.5152   20.3170    3.2301 C   0  0  0  0  0  0  0  0  0  0  0  0
    7.0267   19.7616    2.0776 C   0  0  0  0  0  0  0  0  0  0  0  0
    8.2025   20.1984    1.4912 C   0  0  0  0  0  0  0  0  0  0  0  0
    5.2744   19.8197    3.8073 C   0  0  0  0  0  0  0  0  0  0  0  0
    4.6882   18.6973    3.2485 O   0  0  0  0  0  0  0  0  0  0  0  0
    4.7094   20.3589    4.7870 O   0  0  0  0  0  0  0  0  0  0  0  0
    3.9520   18.8108    2.5569 H   0  0  0  0  0  0  0  0  0  0  0  0
   15.0121   27.0783   -4.5606 C   0  0  0  0  0  0  0  0  0  0  0  0
   15.4132   26.6223   -5.8838 C   0  0  0  0  0  0  0  0  0  0  0  0
   15.0371   25.4444   -6.3654 N   0  0  0  0  0  0  0  0  0  0  0  0
   15.3946   25.0180   -7.5787 C   0  0  0  0  0  0  0  0  0  0  0  0
   16.1775   25.8036   -8.3775 C   0  0  0  0  0  0  0  0  0  0  0  0
   16.5981   27.0276   -7.9392 C   0  0  0  0  0  0  0  0  0  0  0  0
   16.2019   27.4286   -6.6715 C   0  0  0  0  0  0  0  0  0  0  0  0
   16.6375   28.7482   -6.1594 C   0  0  0  0  0  0  0  0  0  0  0  0
 13 14  1  0  0  0
 14 15  2  0  0  0
 15 16  1  0  0  0
 16 17  2  0  0  0
 17 18  1  0  0  0
 18 19  2  0  0  0
 16  1  1  0  0  0
  1  2  1  0  0  0
  2  3  2  0  0  0
  2  4  1  0  0  0
  4  5  1  0  0  0
  5  6  2  0  0  0
  5  7  1  0  0  0
  7  8  1  0  0  0
  8  9  1  0  0  0
  9 10  1  0  0  0
 10 36  1  0  0  0
 36 37  1  0  0  0
 37 38  2  0  0  0
 38 39  1  0  0  0
 39 40  2  0  0  0
 40 41  1  0  0  0
 41 42  2  0  0  0
 42 43  1  0  0  0
 10 11  1  0  0  0
 11 12  1  0  0  0
  4 20  1  0  0  0
 20 21  2  0  0  0
 21 22  1  0  0  0
 22 23  2  0  0  0
 23 24  1  0  0  0
 24 25  2  0  0  0
 23 26  1  0  0  0
 26 27  2  0  0  0
 27 28  1  0  0  0
 28 29  2  0  0  0
 29 30  1  0  0  0
 30 31  2  0  0  0
 29 32  1  0  0  0
 32 33  1  0  0  0
 32 34  2  0  0  0
 19 14  1  0  0  0
  7  1  1  0  0  0
 12  7  1  0  0  0
 25 20  1  0  0  0
 31 26  1  0  0  0
 42 37  1  0  0  0
 33 35  1  0  0  0
M  END
> <minimizedAffinity>
19.25999

> <CNNscore>
0.4300426841

> <CNNaffinity>
7.5954847336

> <CNN_VS>
3.2663826942

> <CNNaffinity_variance>
0.7040489316

$$$$
[H]OC(=O)c1c([H])c([H])c(-c2c([H])c([H])c(N3C(=O)N(c4nc([H])nc(C([H])([H])[H])c4[H])C4(C3=O)C([H])([H])C([H])([H])N(C([H])([H])c3nc([H])c([H])c([H])c3C([H])([H])[H])C([H])([H])C4([H])[H])c([H])c2[H])c([H])c1[H]


 43 48  0  0  0  0  0  0  0  0999 V2000
   13.8949   22.6204   -0.0765 N   0  0  0  0  0  0  0  0  0  0  0  0
   13.7964   23.5399   -1.1731 C   0  0  0  0  0  0  0  0  0  0  0  0
   14.5122   23.4975   -2.2065 O   0  0  0  0  0  0  0  0  0  0  0  0
   12.7611   24.5051   -0.9035 N   0  0  0  0  0  0  0  0  0  0  0  0
   12.2625   24.1108    0.3962 C   0  0  0  0  0  0  0  0  0  0  0  0
   11.6912   24.8608    1.2139 O   0  0  0  0  0  0  0  0  0  0  0  0
   12.5722   22.6708    0.5334 C   0  0  0  0  0  0  0  0  0  0  0  0
   11.6179   21.8732   -0.3264 C   0  0  0  0  0  0  0  0  0  0  0  0
   10.8888   20.8329    0.5091 C   0  0  0  0  0  0  0  0  0  0  0  0
   10.2591   21.4542    1.6600 N   0  0  0  0  0  0  0  0  0  0  0  0
   11.1757   22.1410    2.4977 C   0  0  0  0  0  0  0  0  0  0  0  0
   12.5615   22.1513    1.9239 C   0  0  0  0  0  0  0  0  0  0  0  0
   16.6514   18.4540   -0.1341 C   0  0  0  0  0  0  0  0  0  0  0  0
   16.3931   19.8619    0.2644 C   0  0  0  0  0  0  0  0  0  0  0  0
   15.2644   20.5614   -0.1030 C   0  0  0  0  0  0  0  0  0  0  0  0
   15.0368   21.8649    0.2748 C   0  0  0  0  0  0  0  0  0  0  0  0
   15.9739   22.4587    1.0361 N   0  0  0  0  0  0  0  0  0  0  0  0
   17.0903   21.7969    1.4112 C   0  0  0  0  0  0  0  0  0  0  0  0
   17.2955   20.5212    1.0318 N   0  0  0  0  0  0  0  0  0  0  0  0
   12.3189   25.5836   -1.7137 C   0  0  0  0  0  0  0  0  0  0  0  0
   12.3468   26.8780   -1.2027 C   0  0  0  0  0  0  0  0  0  0  0  0
   11.9158   27.9378   -1.9591 C   0  0  0  0  0  0  0  0  0  0  0  0
   11.4450   27.7476   -3.2418 C   0  0  0  0  0  0  0  0  0  0  0  0
   11.4022   26.4806   -3.7825 C   0  0  0  0  0  0  0  0  0  0  0  0
   11.8441   25.4230   -2.9977 C   0  0  0  0  0  0  0  0  0  0  0  0
   10.9992   28.9363   -3.9819 C   0  0  0  0  0  0  0  0  0  0  0  0
   10.0054   28.8676   -4.9356 C   0  0  0  0  0  0  0  0  0  0  0  0
    9.5729   29.9842   -5.6456 C   0  0  0  0  0  0  0  0  0  0  0  0
   10.1454   31.2200   -5.4040 C   0  0  0  0  0  0  0  0  0  0  0  0
   11.1374   31.2800   -4.4497 C   0  0  0  0  0  0  0  0  0  0  0  0
   11.5681   30.1697   -3.7433 C   0  0  0  0  0  0  0  0  0  0  0  0
    9.7296   32.4177   -6.1198 C   0  0  0  0  0  0  0  0  0  0  0  0
    9.4995   32.3279   -7.4817 O   0  0  0  0  0  0  0  0  0  0  0  0
    9.5696   33.5285   -5.5629 O   0  0  0  0  0  0  0  0  0  0  0  0
   10.2403   32.5796   -8.1306 H   0  0  0  0  0  0  0  0  0  0  0  0
    9.4544   20.4513    2.2890 C   0  0  0  0  0  0  0  0  0  0  0  0
    8.5618   20.9148    3.3417 C   0  0  0  0  0  0  0  0  0  0  0  0
    8.6438   20.4577    4.5847 N   0  0  0  0  0  0  0  0  0  0  0  0
    7.8343   20.8787    5.5589 C   0  0  0  0  0  0  0  0  0  0  0  0
    6.8751   21.8159    5.2950 C   0  0  0  0  0  0  0  0  0  0  0  0
    6.7394   22.3259    4.0346 C   0  0  0  0  0  0  0  0  0  0  0  0
    7.6029   21.8584    3.0544 C   0  0  0  0  0  0  0  0  0  0  0  0
    7.4877   22.3858    1.6754 C   0  0  0  0  0  0  0  0  0  0  0  0
 13 14  1  0  0  0
 14 15  2  0  0  0
 15 16  1  0  0  0
 16 17  2  0  0  0
 17 18  1  0  0  0
 18 19  2  0  0  0
 16  1  1  0  0  0
  1  2  1  0  0  0
  2  3  2  0  0  0
  2  4  1  0  0  0
  4  5  1  0  0  0
  5  6  2  0  0  0
  5  7  1  0  0  0
  7  8  1  0  0  0
  8  9  1  0  0  0
  9 10  1  0  0  0
 10 36  1  0  0  0
 36 37  1  0  0  0
 37 38  2  0  0  0
 38 39  1  0  0  0
 39 40  2  0  0  0
 40 41  1  0  0  0
 41 42  2  0  0  0
 42 43  1  0  0  0
 10 11  1  0  0  0
 11 12  1  0  0  0
  4 20  1  0  0  0
 20 21  2  0  0  0
 21 22  1  0  0  0
 22 23  2  0  0  0
 23 24  1  0  0  0
 24 25  2  0  0  0
 23 26  1  0  0  0
 26 27  2  0  0  0
 27 28  1  0  0  0
 28 29  2  0  0  0
 29 30  1  0  0  0
 30 31  2  0  0  0
 29 32  1  0  0  0
 32 33  1  0  0  0
 32 34  2  0  0  0
 19 14  1  0  0  0
  7  1  1  0  0  0
 12  7  1  0  0  0
 25 20  1  0  0  0
 31 26  1  0  0  0
 42 37  1  0  0  0
 33 35  1  0  0  0
M  END
> <minimizedAffinity>
37.55136

> <CNNscore>
0.4080192745

> <CNNaffinity>
7.0647149086

> <CNN_VS>
2.8825397491

> <CNNaffinity_variance>
0.9728732109

$$$$
[H]OC(=O)c1c([H])c([H])c(-c2c([H])c([H])c(N3C(=O)N(c4nc([H])nc(C([H])([H])[H])c4[H])C4(C3=O)C([H])([H])C([H])([H])N(C([H])([H])c3nc([H])c([H])c([H])c3C([H])([H])[H])C([H])([H])C4([H])[H])c([H])c2[H])c([H])c1[H]


 43 48  0  0  0  0  0  0  0  0999 V2000
   11.3468   21.4673    1.0512 N   0  0  0  0  0  0  0  0  0  0  0  0
   12.4191   21.9780    0.2468 C   0  0  0  0  0  0  0  0  0  0  0  0
   13.6160   21.6006    0.3300 O   0  0  0  0  0  0  0  0  0  0  0  0
   11.9112   22.9780   -0.6579 N   0  0  0  0  0  0  0  0  0  0  0  0
   10.4995   23.0297   -0.3453 C   0  0  0  0  0  0  0  0  0  0  0  0
    9.7467   24.0055   -0.5419 O   0  0  0  0  0  0  0  0  0  0  0  0
   10.1616   21.7137    0.2395 C   0  0  0  0  0  0  0  0  0  0  0  0
   10.1117   20.6786   -0.8614 C   0  0  0  0  0  0  0  0  0  0  0  0
    8.7674   19.9681   -0.8656 C   0  0  0  0  0  0  0  0  0  0  0  0
    7.6826   20.9311   -0.9187 N   0  0  0  0  0  0  0  0  0  0  0  0
    7.6993   21.8542    0.1588 C   0  0  0  0  0  0  0  0  0  0  0  0
    8.9065   21.6770    1.0313 C   0  0  0  0  0  0  0  0  0  0  0  0
    9.7816   20.5576    5.7077 C   0  0  0  0  0  0  0  0  0  0  0  0
   10.7430   20.4100    4.5844 C   0  0  0  0  0  0  0  0  0  0  0  0
   10.5761   21.0122    3.3565 C   0  0  0  0  0  0  0  0  0  0  0  0
   11.4757   20.8685    2.3250 C   0  0  0  0  0  0  0  0  0  0  0  0
   12.5569   20.1005    2.5525 N   0  0  0  0  0  0  0  0  0  0  0  0
   12.7461   19.4981    3.7468 C   0  0  0  0  0  0  0  0  0  0  0  0
   11.8546   19.6507    4.7445 N   0  0  0  0  0  0  0  0  0  0  0  0
   12.6138   23.7325   -1.6337 C   0  0  0  0  0  0  0  0  0  0  0  0
   12.4206   25.1092   -1.7021 C   0  0  0  0  0  0  0  0  0  0  0  0
   13.0781   25.8617   -2.6415 C   0  0  0  0  0  0  0  0  0  0  0  0
   13.9448   25.2743   -3.5397 C   0  0  0  0  0  0  0  0  0  0  0  0
   14.1622   23.9138   -3.5032 C   0  0  0  0  0  0  0  0  0  0  0  0
   13.4853   23.1725   -2.5429 C   0  0  0  0  0  0  0  0  0  0  0  0
   14.6051   26.1524   -4.5157 C   0  0  0  0  0  0  0  0  0  0  0  0
   14.6933   25.8177   -5.8507 C   0  0  0  0  0  0  0  0  0  0  0  0
   15.3163   26.6382   -6.7869 C   0  0  0  0  0  0  0  0  0  0  0  0
   15.8754   27.8391   -6.3886 C   0  0  0  0  0  0  0  0  0  0  0  0
   15.7829   28.1660   -5.0534 C   0  0  0  0  0  0  0  0  0  0  0  0
   15.1635   27.3502   -4.1216 C   0  0  0  0  0  0  0  0  0  0  0  0
   16.5386   28.7322   -7.3280 C   0  0  0  0  0  0  0  0  0  0  0  0
   16.9139   29.9909   -6.8914 O   0  0  0  0  0  0  0  0  0  0  0  0
   16.7869   28.4172   -8.5149 O   0  0  0  0  0  0  0  0  0  0  0  0
   16.2985   30.7819   -7.0612 H   0  0  0  0  0  0  0  0  0  0  0  0
    6.4722   20.1884   -1.0984 C   0  0  0  0  0  0  0  0  0  0  0  0
    6.0143   20.0343   -2.4718 C   0  0  0  0  0  0  0  0  0  0  0  0
    6.3774   19.0019   -3.2223 N   0  0  0  0  0  0  0  0  0  0  0  0
    5.9601   18.8476   -4.4807 C   0  0  0  0  0  0  0  0  0  0  0  0
    5.1263   19.7726   -5.0440 C   0  0  0  0  0  0  0  0  0  0  0  0
    4.7161   20.8587   -4.3233 C   0  0  0  0  0  0  0  0  0  0  0  0
    5.1755   20.9772   -3.0195 C   0  0  0  0  0  0  0  0  0  0  0  0
    4.7545   22.1405   -2.2055 C   0  0  0  0  0  0  0  0  0  0  0  0
 13 14  1  0  0  0
 14 15  2  0  0  0
 15 16  1  0  0  0
 16 17  2  0  0  0
 17 18  1  0  0  0
 18 19  2  0  0  0
 16  1  1  0  0  0
  1  2  1  0  0  0
  2  3  2  0  0  0
  2  4  1  0  0  0
  4  5  1  0  0  0
  5  6  2  0  0  0
  5  7  1  0  0  0
  7  8  1  0  0  0
  8  9  1  0  0  0
  9 10  1  0  0  0
 10 36  1  0  0  0
 36 37  1  0  0  0
 37 38  2  0  0  0
 38 39  1  0  0  0
 39 40  2  0  0  0
 40 41  1  0  0  0
 41 42  2  0  0  0
 42 43  1  0  0  0
 10 11  1  0  0  0
 11 12  1  0  0  0
  4 20  1  0  0  0
 20 21  2  0  0  0
 21 22  1  0  0  0
 22 23  2  0  0  0
 23 24  1  0  0  0
 24 25  2  0  0  0
 23 26  1  0  0  0
 26 27  2  0  0  0
 27 28  1  0  0  0
 28 29  2  0  0  0
 29 30  1  0  0  0
 30 31  2  0  0  0
 29 32  1  0  0  0
 32 33  1  0  0  0
 32 34  2  0  0  0
 19 14  1  0  0  0
  7  1  1  0  0  0
 12  7  1  0  0  0
 25 20  1  0  0  0
 31 26  1  0  0  0
 42 37  1  0  0  0
 33 35  1  0  0  0
M  END
> <minimizedAffinity>
10.84909

> <CNNscore>
0.4037649035

> <CNNaffinity>
7.4251861572

> <CNN_VS>
2.9980294704

> <CNNaffinity_variance>
0.8829965591

$$$$
[H]OC(=O)c1c([H])c([H])c(-c2c([H])c([H])c(N3C(=O)N(c4nc([H])nc(C([H])([H])[H])c4[H])C4(C3=O)C([H])([H])C([H])([H])N(C([H])([H])c3nc([H])c([H])c([H])c3C([H])([H])[H])C([H])([H])C4([H])[H])c([H])c2[H])c([H])c1[H]


 43 48  0  0  0  0  0  0  0  0999 V2000
   14.2743   22.8872   -2.9501 N   0  0  0  0  0  0  0  0  0  0  0  0
   13.5823   22.2289   -1.8798 C   0  0  0  0  0  0  0  0  0  0  0  0
   13.9204   21.1231   -1.3849 O   0  0  0  0  0  0  0  0  0  0  0  0
   12.4547   23.0268   -1.4697 N   0  0  0  0  0  0  0  0  0  0  0  0
   12.5177   24.1756   -2.3470 C   0  0  0  0  0  0  0  0  0  0  0  0
   11.5534   24.9012   -2.6651 O   0  0  0  0  0  0  0  0  0  0  0  0
   13.9310   24.2918   -2.7679 C   0  0  0  0  0  0  0  0  0  0  0  0
   14.7481   24.8392   -1.6195 C   0  0  0  0  0  0  0  0  0  0  0  0
   15.4991   26.0902   -2.0472 C   0  0  0  0  0  0  0  0  0  0  0  0
   14.5869   27.0578   -2.6292 N   0  0  0  0  0  0  0  0  0  0  0  0
   13.8768   26.5549   -3.7502 C   0  0  0  0  0  0  0  0  0  0  0  0
   14.1624   25.1020   -3.9900 C   0  0  0  0  0  0  0  0  0  0  0  0
   17.7124   22.9649   -6.5742 C   0  0  0  0  0  0  0  0  0  0  0  0
   16.7531   22.2692   -5.6778 C   0  0  0  0  0  0  0  0  0  0  0  0
   15.9769   22.9194   -4.7433 C   0  0  0  0  0  0  0  0  0  0  0  0
   15.0906   22.2627   -3.9204 C   0  0  0  0  0  0  0  0  0  0  0  0
   14.9980   20.9271   -4.0550 N   0  0  0  0  0  0  0  0  0  0  0  0
   15.7467   20.2637   -4.9629 C   0  0  0  0  0  0  0  0  0  0  0  0
   16.6087   20.9237   -5.7598 N   0  0  0  0  0  0  0  0  0  0  0  0
   11.5068   22.7657   -0.4459 C   0  0  0  0  0  0  0  0  0  0  0  0
   10.2752   22.2104   -0.7808 C   0  0  0  0  0  0  0  0  0  0  0  0
    9.3362   21.9572    0.1863 C   0  0  0  0  0  0  0  0  0  0  0  0
    9.5884   22.2460    1.5115 C   0  0  0  0  0  0  0  0  0  0  0  0
   10.7964   22.7963    1.8821 C   0  0  0  0  0  0  0  0  0  0  0  0
   11.7318   23.0437    0.8852 C   0  0  0  0  0  0  0  0  0  0  0  0
    8.5269   21.9471    2.4828 C   0  0  0  0  0  0  0  0  0  0  0  0
    7.3663   21.2998    2.1139 C   0  0  0  0  0  0  0  0  0  0  0  0
    6.3515   21.0105    3.0219 C   0  0  0  0  0  0  0  0  0  0  0  0
    6.4882   21.3753    4.3491 C   0  0  0  0  0  0  0  0  0  0  0  0
    7.6506   22.0214    4.7093 C   0  0  0  0  0  0  0  0  0  0  0  0
    8.6602   22.3096    3.8066 C   0  0  0  0  0  0  0  0  0  0  0  0
    5.4561   21.0967    5.3376 C   0  0  0  0  0  0  0  0  0  0  0  0
    5.3096   19.7978    5.7927 O   0  0  0  0  0  0  0  0  0  0  0  0
    4.6920   21.9765    5.7977 O   0  0  0  0  0  0  0  0  0  0  0  0
    4.6158   19.1932    5.3611 H   0  0  0  0  0  0  0  0  0  0  0  0
   15.3320   28.2619   -2.8389 C   0  0  0  0  0  0  0  0  0  0  0  0
   16.6886   28.0954   -3.3406 C   0  0  0  0  0  0  0  0  0  0  0  0
   17.7219   27.9166   -2.5275 N   0  0  0  0  0  0  0  0  0  0  0  0
   18.9689   27.7580   -2.9761 C   0  0  0  0  0  0  0  0  0  0  0  0
   19.2210   27.7760   -4.3193 C   0  0  0  0  0  0  0  0  0  0  0  0
   18.1996   27.9563   -5.2089 C   0  0  0  0  0  0  0  0  0  0  0  0
   16.9203   28.1170   -4.6965 C   0  0  0  0  0  0  0  0  0  0  0  0
   15.7861   28.3158   -5.6278 C   0  0  0  0  0  0  0  0  0  0  0  0
 13 14  1  0  0  0
 14 15  2  0  0  0
 15 16  1  0  0  0
 16 17  2  0  0  0
 17 18  1  0  0  0
 18 19  2  0  0  0
 16  1  1  0  0  0
  1  2  1  0  0  0
  2  3  2  0  0  0
  2  4  1  0  0  0
  4  5  1  0  0  0
  5  6  2  0  0  0
  5  7  1  0  0  0
  7  8  1  0  0  0
  8  9  1  0  0  0
  9 10  1  0  0  0
 10 36  1  0  0  0
 36 37  1  0  0  0
 37 38  2  0  0  0
 38 39  1  0  0  0
 39 40  2  0  0  0
 40 41  1  0  0  0
 41 42  2  0  0  0
 42 43  1  0  0  0
 10 11  1  0  0  0
 11 12  1  0  0  0
  4 20  1  0  0  0
 20 21  2  0  0  0
 21 22  1  0  0  0
 22 23  2  0  0  0
 23 24  1  0  0  0
 24 25  2  0  0  0
 23 26  1  0  0  0
 26 27  2  0  0  0
 27 28  1  0  0  0
 28 29  2  0  0  0
 29 30  1  0  0  0
 30 31  2  0  0  0
 29 32  1  0  0  0
 32 33  1  0  0  0
 32 34  2  0  0  0
 19 14  1  0  0  0
  7  1  1  0  0  0
 12  7  1  0  0  0
 25 20  1  0  0  0
 31 26  1  0  0  0
 42 37  1  0  0  0
 33 35  1  0  0  0
M  END
> <minimizedAffinity>
22.34398

> <CNNscore>
0.3846346140

> <CNNaffinity>
7.3157625198

> <CNN_VS>
2.8138954639

> <CNNaffinity_variance>
0.9190559387

$$$$
[H]OC(=O)c1c([H])c([H])c(-c2c([H])c([H])c(N3C(=O)N(c4nc([H])n([H])c(=O)c4[H])C4(C3=O)C([H])([H])C([H])([H])N(C([H])([H])c3nc([H])c([H])c([H])c3C([H])([H])[H])C([H])([H])C4([H])[H])c([H])c2[H])c(C([H])([H])[H])c1[H]


 45 50  0  0  0  0  0  0  0  0999 V2000
   13.1555   25.5232   -3.4632 N   0  0  0  0  0  0  0  0  0  0  0  0
   13.4753   26.4718   -2.3745 C   0  0  0  0  0  0  0  0  0  0  0  0
   14.3347   25.8703   -1.3191 C   0  0  0  0  0  0  0  0  0  0  0  0
   13.8707   24.5217   -0.8695 C   0  0  0  0  0  0  0  0  0  0  0  0
   13.4462   23.6172   -2.0071 C   0  0  0  0  0  0  0  0  0  0  0  0
   12.4937   24.3674   -2.8741 C   0  0  0  0  0  0  0  0  0  0  0  0
   14.8397   23.8674   -0.0189 N   0  0  0  0  0  0  0  0  0  0  0  0
   14.0633   22.9766    0.7994 C   0  0  0  0  0  0  0  0  0  0  0  0
   14.5269   21.9479    1.3713 O   0  0  0  0  0  0  0  0  0  0  0  0
   12.7225   23.4484    0.8469 N   0  0  0  0  0  0  0  0  0  0  0  0
   12.6921   24.6244    0.0551 C   0  0  0  0  0  0  0  0  0  0  0  0
   11.8336   25.5714    0.1228 O   0  0  0  0  0  0  0  0  0  0  0  0
   16.2631   24.0098    0.0629 C   0  0  0  0  0  0  0  0  0  0  0  0
   16.8949   24.0641    1.2826 C   0  0  0  0  0  0  0  0  0  0  0  0
   18.2642   24.2018    1.3051 C   0  0  0  0  0  0  0  0  0  0  0  0
   18.8849   24.2555    2.4232 O   0  0  0  0  0  0  0  0  0  0  0  0
   18.9608   24.2808    0.1584 N   0  0  0  0  0  0  0  0  0  0  0  0
   18.3612   24.2298   -1.0427 C   0  0  0  0  0  0  0  0  0  0  0  0
   17.0264   24.0951   -1.0400 N   0  0  0  0  0  0  0  0  0  0  0  0
   19.9957   24.3844    0.1666 H   0  0  0  0  0  0  0  0  0  0  0  0
   11.6072   22.9111    1.5263 C   0  0  0  0  0  0  0  0  0  0  0  0
   11.4507   21.5408    1.5565 C   0  0  0  0  0  0  0  0  0  0  0  0
   10.3919   20.9521    2.1957 C   0  0  0  0  0  0  0  0  0  0  0  0
    9.4135   21.7168    2.8523 C   0  0  0  0  0  0  0  0  0  0  0  0
    9.5770   23.0745    2.8170 C   0  0  0  0  0  0  0  0  0  0  0  0
   10.6594   23.6753    2.1635 C   0  0  0  0  0  0  0  0  0  0  0  0
    8.3073   21.0366    3.4962 C   0  0  0  0  0  0  0  0  0  0  0  0
    8.4701   20.5099    4.7832 C   0  0  0  0  0  0  0  0  0  0  0  0
    7.4522   19.8586    5.4173 C   0  0  0  0  0  0  0  0  0  0  0  0
    6.2249   19.7087    4.7842 C   0  0  0  0  0  0  0  0  0  0  0  0
    6.0605   20.2225    3.5240 C   0  0  0  0  0  0  0  0  0  0  0  0
    7.1084   20.8862    2.8861 C   0  0  0  0  0  0  0  0  0  0  0  0
    6.8630   21.4266    1.5361 C   0  0  0  0  0  0  0  0  0  0  0  0
    5.1163   19.0179    5.4393 C   0  0  0  0  0  0  0  0  0  0  0  0
    4.9318   17.6544    5.2714 O   0  0  0  0  0  0  0  0  0  0  0  0
    4.3305   19.7161    6.1666 O   0  0  0  0  0  0  0  0  0  0  0  0
    4.0604   17.2533    5.6211 H   0  0  0  0  0  0  0  0  0  0  0  0
   14.3788   25.2331   -4.1294 C   0  0  0  0  0  0  0  0  0  0  0  0
   14.5657   26.8142   -6.5375 C   0  0  0  0  0  0  0  0  0  0  0  0
   15.4876   27.0628   -5.3877 C   0  0  0  0  0  0  0  0  0  0  0  0
   16.4463   28.0256   -5.4279 C   0  0  0  0  0  0  0  0  0  0  0  0
   17.3097   28.2748   -4.3778 C   0  0  0  0  0  0  0  0  0  0  0  0
   17.1673   27.4915   -3.2459 C   0  0  0  0  0  0  0  0  0  0  0  0
   16.2169   26.5429   -3.2167 N   0  0  0  0  0  0  0  0  0  0  0  0
   15.3741   26.2877   -4.2205 C   0  0  0  0  0  0  0  0  0  0  0  0
 39 40  1  0  0  0
 40 41  2  0  0  0
 41 42  1  0  0  0
 42 43  2  0  0  0
 43 44  1  0  0  0
 44 45  2  0  0  0
 45 38  1  0  0  0
 38  1  1  0  0  0
  1  2  1  0  0  0
  2  3  1  0  0  0
  3  4  1  0  0  0
  4  5  1  0  0  0
  5  6  1  0  0  0
  4  7  1  0  0  0
  7  8  1  0  0  0
  8  9  2  0  0  0
  8 10  1  0  0  0
 10 11  1  0  0  0
 11 12  2  0  0  0
 10 21  1  0  0  0
 21 22  2  0  0  0
 22 23  1  0  0  0
 23 24  2  0  0  0
 24 25  1  0  0  0
 25 26  2  0  0  0
 24 27  1  0  0  0
 27 28  2  0  0  0
 28 29  1  0  0  0
 29 30  2  0  0  0
 30 31  1  0  0  0
 31 32  2  0  0  0
 32 33  1  0  0  0
 30 34  1  0  0  0
 34 35  1  0  0  0
 34 36  2  0  0  0
  7 13  1  0  0  0
 13 14  2  0  0  0
 14 15  1  0  0  0
 15 16  2  0  0  0
 15 17  1  0  0  0
 17 18  1  0  0  0
 18 19  2  0  0  0
 45 40  1  0  0  0
  6  1  1  0  0  0
 26 21  1  0  0  0
 32 27  1  0  0  0
 19 13  1  0  0  0
 11  4  1  0  0  0
 35 37  1  0  0  0
 17 20  1  0  0  0
M  END
> <minimizedAffinity>
2.53526

> <CNNscore>
0.4867816865

> <CNNaffinity>
7.8038544655

> <CNN_VS>
3.7987735271

> <CNNaffinity_variance>
0.6465145946

$$$$
[H]OC(=O)c1c([H])c([H])c(-c2c([H])c([H])c(N3C(=O)N(c4nc([H])n([H])c(=O)c4[H])C4(C3=O)C([H])([H])C([H])([H])N(C([H])([H])c3nc([H])c([H])c([H])c3C([H])([H])[H])C([H])([H])C4([H])[H])c([H])c2[H])c(C([H])([H])[H])c1[H]


 45 50  0  0  0  0  0  0  0  0999 V2000
   13.7846   25.4345   -3.7868 N   0  0  0  0  0  0  0  0  0  0  0  0
   14.0279   26.4364   -2.7264 C   0  0  0  0  0  0  0  0  0  0  0  0
   14.7862   25.8824   -1.5722 C   0  0  0  0  0  0  0  0  0  0  0  0
   14.2641   24.5656   -1.0930 C   0  0  0  0  0  0  0  0  0  0  0  0
   13.9213   23.6063   -2.2131 C   0  0  0  0  0  0  0  0  0  0  0  0
   13.0570   24.3201   -3.1956 C   0  0  0  0  0  0  0  0  0  0  0  0
   15.1477   23.9464   -0.1305 N   0  0  0  0  0  0  0  0  0  0  0  0
   14.2912   23.1103    0.6652 C   0  0  0  0  0  0  0  0  0  0  0  0
   14.6884   22.1083    1.3274 O   0  0  0  0  0  0  0  0  0  0  0  0
   12.9591   23.6000    0.5746 N   0  0  0  0  0  0  0  0  0  0  0  0
   13.0142   24.7319   -0.2777 C   0  0  0  0  0  0  0  0  0  0  0  0
   12.1689   25.6914   -0.3325 O   0  0  0  0  0  0  0  0  0  0  0  0
   16.5615   24.0758    0.0634 C   0  0  0  0  0  0  0  0  0  0  0  0
   17.0918   24.1672    1.3284 C   0  0  0  0  0  0  0  0  0  0  0  0
   18.4565   24.2905    1.4589 C   0  0  0  0  0  0  0  0  0  0  0  0
   18.9840   24.3777    2.6218 O   0  0  0  0  0  0  0  0  0  0  0  0
   19.2458   24.3203    0.3715 N   0  0  0  0  0  0  0  0  0  0  0  0
   18.7461   24.2326   -0.8724 C   0  0  0  0  0  0  0  0  0  0  0  0
   17.4138   24.1129   -0.9751 N   0  0  0  0  0  0  0  0  0  0  0  0
   20.2779   24.4127    0.4614 H   0  0  0  0  0  0  0  0  0  0  0  0
   11.7822   23.1134    1.1849 C   0  0  0  0  0  0  0  0  0  0  0  0
   11.5812   21.7495    1.2360 C   0  0  0  0  0  0  0  0  0  0  0  0
   10.4619   21.2090    1.8114 C   0  0  0  0  0  0  0  0  0  0  0  0
    9.4639   22.0188    2.3783 C   0  0  0  0  0  0  0  0  0  0  0  0
    9.6719   23.3697    2.3229 C   0  0  0  0  0  0  0  0  0  0  0  0
   10.8160   23.9214    1.7346 C   0  0  0  0  0  0  0  0  0  0  0  0
    8.2942   21.3882    2.9571 C   0  0  0  0  0  0  0  0  0  0  0  0
    8.3204   20.9688    4.2927 C   0  0  0  0  0  0  0  0  0  0  0  0
    7.2396   20.3668    4.8687 C   0  0  0  0  0  0  0  0  0  0  0  0
    6.0841   20.1602    4.1259 C   0  0  0  0  0  0  0  0  0  0  0  0
    6.0534   20.5688    2.8179 C   0  0  0  0  0  0  0  0  0  0  0  0
    7.1645   21.1831    2.2402 C   0  0  0  0  0  0  0  0  0  0  0  0
    7.0627   21.6106    0.8324 C   0  0  0  0  0  0  0  0  0  0  0  0
    4.9107   19.5200    4.7166 C   0  0  0  0  0  0  0  0  0  0  0  0
    4.4285   18.3214    4.2142 O   0  0  0  0  0  0  0  0  0  0  0  0
    4.3521   20.1053    5.7062 O   0  0  0  0  0  0  0  0  0  0  0  0
    3.5230   17.9998    4.5592 H   0  0  0  0  0  0  0  0  0  0  0  0
   15.0544   25.0944   -4.3313 C   0  0  0  0  0  0  0  0  0  0  0  0
   16.2256   27.7279   -4.4949 C   0  0  0  0  0  0  0  0  0  0  0  0
   15.9734   26.9266   -5.7309 C   0  0  0  0  0  0  0  0  0  0  0  0
   16.2730   27.3992   -6.9698 C   0  0  0  0  0  0  0  0  0  0  0  0
   16.0499   26.6772   -8.1270 C   0  0  0  0  0  0  0  0  0  0  0  0
   15.4947   25.4175   -7.9862 C   0  0  0  0  0  0  0  0  0  0  0  0
   15.2023   24.9602   -6.7577 N   0  0  0  0  0  0  0  0  0  0  0  0
   15.4106   25.6426   -5.6289 C   0  0  0  0  0  0  0  0  0  0  0  0
 39 40  1  0  0  0
 40 41  2  0  0  0
 41 42  1  0  0  0
 42 43  2  0  0  0
 43 44  1  0  0  0
 44 45  2  0  0  0
 45 38  1  0  0  0
 38  1  1  0  0  0
  1  2  1  0  0  0
  2  3  1  0  0  0
  3  4  1  0  0  0
  4  5  1  0  0  0
  5  6  1  0  0  0
  4  7  1  0  0  0
  7  8  1  0  0  0
  8  9  2  0  0  0
  8 10  1  0  0  0
 10 11  1  0  0  0
 11 12  2  0  0  0
 10 21  1  0  0  0
 21 22  2  0  0  0
 22 23  1  0  0  0
 23 24  2  0  0  0
 24 25  1  0  0  0
 25 26  2  0  0  0
 24 27  1  0  0  0
 27 28  2  0  0  0
 28 29  1  0  0  0
 29 30  2  0  0  0
 30 31  1  0  0  0
 31 32  2  0  0  0
 32 33  1  0  0  0
 30 34  1  0  0  0
 34 35  1  0  0  0
 34 36  2  0  0  0
  7 13  1  0  0  0
 13 14  2  0  0  0
 14 15  1  0  0  0
 15 16  2  0  0  0
 15 17  1  0  0  0
 17 18  1  0  0  0
 18 19  2  0  0  0
 45 40  1  0  0  0
  6  1  1  0  0  0
 26 21  1  0  0  0
 32 27  1  0  0  0
 19 13  1  0  0  0
 11  4  1  0  0  0
 35 37  1  0  0  0
 17 20  1  0  0  0
M  END
> <minimizedAffinity>
4.32747

> <CNNscore>
0.4843859076

> <CNNaffinity>
7.8666749001

> <CNN_VS>
3.8105063438

> <CNNaffinity_variance>
0.9561629295

$$$$
[H]OC(=O)c1c([H])c([H])c(-c2c([H])c([H])c(N3C(=O)N(c4nc([H])n([H])c(=O)c4[H])C4(C3=O)C([H])([H])C([H])([H])N(C([H])([H])c3nc([H])c([H])c([H])c3C([H])([H])[H])C([H])([H])C4([H])[H])c([H])c2[H])c(C([H])([H])[H])c1[H]


 45 50  0  0  0  0  0  0  0  0999 V2000
   14.6236   23.5999   -5.7127 N   0  0  0  0  0  0  0  0  0  0  0  0
   13.9041   24.8676   -5.4626 C   0  0  0  0  0  0  0  0  0  0  0  0
   14.5044   25.6635   -4.3578 C   0  0  0  0  0  0  0  0  0  0  0  0
   14.8076   24.8547   -3.1372 C   0  0  0  0  0  0  0  0  0  0  0  0
   15.4429   23.5144   -3.4413 C   0  0  0  0  0  0  0  0  0  0  0  0
   14.6200   22.8283   -4.4777 C   0  0  0  0  0  0  0  0  0  0  0  0
   15.5915   25.5948   -2.1737 N   0  0  0  0  0  0  0  0  0  0  0  0
   15.2663   25.0005   -0.9060 C   0  0  0  0  0  0  0  0  0  0  0  0
   16.0065   25.0567    0.1184 O   0  0  0  0  0  0  0  0  0  0  0  0
   14.0015   24.3589   -1.0110 N   0  0  0  0  0  0  0  0  0  0  0  0
   13.5655   24.5667   -2.3442 C   0  0  0  0  0  0  0  0  0  0  0  0
   12.3603   24.5174   -2.7725 O   0  0  0  0  0  0  0  0  0  0  0  0
   16.5061   26.6841   -2.3473 C   0  0  0  0  0  0  0  0  0  0  0  0
   16.0511   27.9795   -2.4159 C   0  0  0  0  0  0  0  0  0  0  0  0
   16.9719   28.9887   -2.5838 C   0  0  0  0  0  0  0  0  0  0  0  0
   16.5833   30.2064   -2.6515 O   0  0  0  0  0  0  0  0  0  0  0  0
   18.2828   28.7075   -2.6777 N   0  0  0  0  0  0  0  0  0  0  0  0
   18.7462   27.4483   -2.6131 C   0  0  0  0  0  0  0  0  0  0  0  0
   17.8308   26.4813   -2.4491 N   0  0  0  0  0  0  0  0  0  0  0  0
   18.9851   29.4642   -2.8040 H   0  0  0  0  0  0  0  0  0  0  0  0
   13.2717   23.6512   -0.0307 C   0  0  0  0  0  0  0  0  0  0  0  0
   13.6454   22.3562    0.2627 C   0  0  0  0  0  0  0  0  0  0  0  0
   12.9812   21.6115    1.2011 C   0  0  0  0  0  0  0  0  0  0  0  0
   11.8863   22.1318    1.9107 C   0  0  0  0  0  0  0  0  0  0  0  0
   11.5231   23.4166    1.6130 C   0  0  0  0  0  0  0  0  0  0  0  0
   12.2024   24.1771    0.6538 C   0  0  0  0  0  0  0  0  0  0  0  0
   11.2137   21.2887    2.8790 C   0  0  0  0  0  0  0  0  0  0  0  0
   10.0762   21.7641    3.5426 C   0  0  0  0  0  0  0  0  0  0  0  0
    9.4210   20.9999    4.4640 C   0  0  0  0  0  0  0  0  0  0  0  0
    9.8816   19.7229    4.7585 C   0  0  0  0  0  0  0  0  0  0  0  0
   10.9951   19.2529    4.1116 C   0  0  0  0  0  0  0  0  0  0  0  0
   11.6561   20.0434    3.1717 C   0  0  0  0  0  0  0  0  0  0  0  0
   12.8404   19.4744    2.5019 C   0  0  0  0  0  0  0  0  0  0  0  0
    9.1994   18.8812    5.7391 C   0  0  0  0  0  0  0  0  0  0  0  0
    9.7693   17.6948    6.1741 O   0  0  0  0  0  0  0  0  0  0  0  0
    8.0659   19.2797    6.1751 O   0  0  0  0  0  0  0  0  0  0  0  0
    9.1857   17.0735    6.7360 H   0  0  0  0  0  0  0  0  0  0  0  0
   15.9168   23.9482   -6.1932 C   0  0  0  0  0  0  0  0  0  0  0  0
   15.2652   25.0888   -8.7638 C   0  0  0  0  0  0  0  0  0  0  0  0
   15.8951   25.9234   -7.6960 C   0  0  0  0  0  0  0  0  0  0  0  0
   16.1920   27.2359   -7.8883 C   0  0  0  0  0  0  0  0  0  0  0  0
   16.7737   28.0281   -6.9166 C   0  0  0  0  0  0  0  0  0  0  0  0
   17.0553   27.4293   -5.7012 C   0  0  0  0  0  0  0  0  0  0  0  0
   16.7581   26.1318   -5.5217 N   0  0  0  0  0  0  0  0  0  0  0  0
   16.1963   25.3510   -6.4479 C   0  0  0  0  0  0  0  0  0  0  0  0
 39 40  1  0  0  0
 40 41  2  0  0  0
 41 42  1  0  0  0
 42 43  2  0  0  0
 43 44  1  0  0  0
 44 45  2  0  0  0
 45 38  1  0  0  0
 38  1  1  0  0  0
  1  2  1  0  0  0
  2  3  1  0  0  0
  3  4  1  0  0  0
  4  5  1  0  0  0
  5  6  1  0  0  0
  4  7  1  0  0  0
  7  8  1  0  0  0
  8  9  2  0  0  0
  8 10  1  0  0  0
 10 11  1  0  0  0
 11 12  2  0  0  0
 10 21  1  0  0  0
 21 22  2  0  0  0
 22 23  1  0  0  0
 23 24  2  0  0  0
 24 25  1  0  0  0
 25 26  2  0  0  0
 24 27  1  0  0  0
 27 28  2  0  0  0
 28 29  1  0  0  0
 29 30  2  0  0  0
 30 31  1  0  0  0
 31 32  2  0  0  0
 32 33  1  0  0  0
 30 34  1  0  0  0
 34 35  1  0  0  0
 34 36  2  0  0  0
  7 13  1  0  0  0
 13 14  2  0  0  0
 14 15  1  0  0  0
 15 16  2  0  0  0
 15 17  1  0  0  0
 17 18  1  0  0  0
 18 19  2  0  0  0
 45 40  1  0  0  0
  6  1  1  0  0  0
 26 21  1  0  0  0
 32 27  1  0  0  0
 19 13  1  0  0  0
 11  4  1  0  0  0
 35 37  1  0  0  0
 17 20  1  0  0  0
M  END
> <minimizedAffinity>
21.35977

> <CNNscore>
0.4643090665

> <CNNaffinity>
7.7022199631

> <CNN_VS>
3.5762104988

> <CNNaffinity_variance>
0.8081086874

$$$$
[H]OC(=O)c1c([H])c([H])c(-c2c([H])c([H])c(N3C(=O)N(c4nc([H])n([H])c(=O)c4[H])C4(C3=O)C([H])([H])C([H])([H])N(C([H])([H])c3nc([H])c([H])c([H])c3C([H])([H])[H])C([H])([H])C4([H])[H])c([H])c2[H])c(C([H])([H])[H])c1[H]


 45 50  0  0  0  0  0  0  0  0999 V2000
   13.8281   25.3363   -3.7405 N   0  0  0  0  0  0  0  0  0  0  0  0
   13.9693   26.3009   -2.6283 C   0  0  0  0  0  0  0  0  0  0  0  0
   14.7118   25.7387   -1.4678 C   0  0  0  0  0  0  0  0  0  0  0  0
   14.2492   24.3738   -1.0688 C   0  0  0  0  0  0  0  0  0  0  0  0
   14.0086   23.4488   -2.2431 C   0  0  0  0  0  0  0  0  0  0  0  0
   13.1440   24.1565   -3.2298 C   0  0  0  0  0  0  0  0  0  0  0  0
   15.1283   23.7626   -0.0972 N   0  0  0  0  0  0  0  0  0  0  0  0
   14.2911   22.8436    0.6242 C   0  0  0  0  0  0  0  0  0  0  0  0
   14.7196   21.8366    1.2588 O   0  0  0  0  0  0  0  0  0  0  0  0
   12.9372   23.2604    0.4981 N   0  0  0  0  0  0  0  0  0  0  0  0
   12.9599   24.4313   -0.3013 C   0  0  0  0  0  0  0  0  0  0  0  0
   12.0625   25.3427   -0.3505 O   0  0  0  0  0  0  0  0  0  0  0  0
   16.5231   23.9633    0.1625 C   0  0  0  0  0  0  0  0  0  0  0  0
   17.4086   24.1622   -0.8701 C   0  0  0  0  0  0  0  0  0  0  0  0
   18.7378   24.3496   -0.5657 C   0  0  0  0  0  0  0  0  0  0  0  0
   19.5896   24.5379   -1.5023 O   0  0  0  0  0  0  0  0  0  0  0  0
   19.1533   24.3373    0.7124 N   0  0  0  0  0  0  0  0  0  0  0  0
   18.3032   24.1443    1.7345 C   0  0  0  0  0  0  0  0  0  0  0  0
   17.0129   23.9640    1.4141 N   0  0  0  0  0  0  0  0  0  0  0  0
   20.1557   24.4787    0.9510 H   0  0  0  0  0  0  0  0  0  0  0  0
   11.7674   22.6801    1.0359 C   0  0  0  0  0  0  0  0  0  0  0  0
   11.2503   23.2003    2.2042 C   0  0  0  0  0  0  0  0  0  0  0  0
   10.1199   22.6857    2.7818 C   0  0  0  0  0  0  0  0  0  0  0  0
    9.4321   21.6020    2.2110 C   0  0  0  0  0  0  0  0  0  0  0  0
    9.9523   21.0929    1.0528 C   0  0  0  0  0  0  0  0  0  0  0  0
   11.1076   21.6195    0.4632 C   0  0  0  0  0  0  0  0  0  0  0  0
    8.2515   21.0909    2.8787 C   0  0  0  0  0  0  0  0  0  0  0  0
    8.3314   20.6830    4.2157 C   0  0  0  0  0  0  0  0  0  0  0  0
    7.2417   20.1918    4.8741 C   0  0  0  0  0  0  0  0  0  0  0  0
    6.0227   20.0894    4.2159 C   0  0  0  0  0  0  0  0  0  0  0  0
    5.9393   20.4872    2.9068 C   0  0  0  0  0  0  0  0  0  0  0  0
    7.0602   20.9878    2.2446 C   0  0  0  0  0  0  0  0  0  0  0  0
    6.9009   21.4103    0.8406 C   0  0  0  0  0  0  0  0  0  0  0  0
    4.8384   19.5691    4.8958 C   0  0  0  0  0  0  0  0  0  0  0  0
    4.3125   20.2192    6.0014 O   0  0  0  0  0  0  0  0  0  0  0  0
    4.3122   18.4998    4.4338 O   0  0  0  0  0  0  0  0  0  0  0  0
    3.5852   19.7333    6.5281 H   0  0  0  0  0  0  0  0  0  0  0  0
   15.1365   25.0943   -4.2445 C   0  0  0  0  0  0  0  0  0  0  0  0
   16.1377   27.7951   -4.4366 C   0  0  0  0  0  0  0  0  0  0  0  0
   15.9602   26.9579   -5.6618 C   0  0  0  0  0  0  0  0  0  0  0  0
   16.2509   27.4276   -6.9039 C   0  0  0  0  0  0  0  0  0  0  0  0
   16.0958   26.6728   -8.0512 C   0  0  0  0  0  0  0  0  0  0  0  0
   15.6208   25.3823   -7.8967 C   0  0  0  0  0  0  0  0  0  0  0  0
   15.3365   24.9281   -6.6651 N   0  0  0  0  0  0  0  0  0  0  0  0
   15.4798   25.6419   -5.5457 C   0  0  0  0  0  0  0  0  0  0  0  0
 39 40  1  0  0  0
 40 41  2  0  0  0
 41 42  1  0  0  0
 42 43  2  0  0  0
 43 44  1  0  0  0
 44 45  2  0  0  0
 45 38  1  0  0  0
 38  1  1  0  0  0
  1  2  1  0  0  0
  2  3  1  0  0  0
  3  4  1  0  0  0
  4  5  1  0  0  0
  5  6  1  0  0  0
  4  7  1  0  0  0
  7  8  1  0  0  0
  8  9  2  0  0  0
  8 10  1  0  0  0
 10 11  1  0  0  0
 11 12  2  0  0  0
 10 21  1  0  0  0
 21 22  2  0  0  0
 22 23  1  0  0  0
 23 24  2  0  0  0
 24 25  1  0  0  0
 25 26  2  0  0  0
 24 27  1  0  0  0
 27 28  2  0  0  0
 28 29  1  0  0  0
 29 30  2  0  0  0
 30 31  1  0  0  0
 31 32  2  0  0  0
 32 33  1  0  0  0
 30 34  1  0  0  0
 34 35  1  0  0  0
 34 36  2  0  0  0
  7 13  1  0  0  0
 13 14  2  0  0  0
 14 15  1  0  0  0
 15 16  2  0  0  0
 15 17  1  0  0  0
 17 18  1  0  0  0
 18 19  2  0  0  0
 45 40  1  0  0  0
  6  1  1  0  0  0
 26 21  1  0  0  0
 32 27  1  0  0  0
 19 13  1  0  0  0
 11  4  1  0  0  0
 35 37  1  0  0  0
 17 20  1  0  0  0
M  END
> <minimizedAffinity>
6.18907

> <CNNscore>
0.4384337664

> <CNNaffinity>
7.7683029175

> <CNN_VS>
3.4058864117

> <CNNaffinity_variance>
0.8676912189

$$$$
[H]OC(=O)c1c([H])c([H])c(-c2c([H])c([H])c(N3C(=O)N(c4nc([H])n([H])c(=O)c4[H])C4(C3=O)C([H])([H])C([H])([H])N(C([H])([H])c3nc([H])c([H])c([H])c3C([H])([H])[H])C([H])([H])C4([H])[H])c([H])c2[H])c(C([H])([H])[H])c1[H]


 45 50  0  0  0  0  0  0  0  0999 V2000
   14.7137   23.6443   -5.3261 N   0  0  0  0  0  0  0  0  0  0  0  0
   13.9179   24.8639   -5.0681 C   0  0  0  0  0  0  0  0  0  0  0  0
   14.3766   25.6082   -3.8640 C   0  0  0  0  0  0  0  0  0  0  0  0
   14.6010   24.7332   -2.6722 C   0  0  0  0  0  0  0  0  0  0  0  0
   15.3214   23.4415   -2.9964 C   0  0  0  0  0  0  0  0  0  0  0  0
   14.6300   22.7936   -4.1471 C   0  0  0  0  0  0  0  0  0  0  0  0
   15.2579   25.4383   -1.5943 N   0  0  0  0  0  0  0  0  0  0  0  0
   14.8433   24.7498   -0.4027 C   0  0  0  0  0  0  0  0  0  0  0  0
   15.4817   24.7673    0.6893 O   0  0  0  0  0  0  0  0  0  0  0  0
   13.6238   24.0678   -0.6676 N   0  0  0  0  0  0  0  0  0  0  0  0
   13.3047   24.3458   -2.0210 C   0  0  0  0  0  0  0  0  0  0  0  0
   12.1480   24.2779   -2.5648 O   0  0  0  0  0  0  0  0  0  0  0  0
   16.1348   26.5714   -1.6121 C   0  0  0  0  0  0  0  0  0  0  0  0
   16.9668   26.7994   -2.6824 C   0  0  0  0  0  0  0  0  0  0  0  0
   17.7896   27.9022   -2.6487 C   0  0  0  0  0  0  0  0  0  0  0  0
   18.5768   28.1450   -3.6284 O   0  0  0  0  0  0  0  0  0  0  0  0
   17.7751   28.7322   -1.5917 N   0  0  0  0  0  0  0  0  0  0  0  0
   16.9694   28.5259   -0.5368 C   0  0  0  0  0  0  0  0  0  0  0  0
   16.1764   27.4452   -0.5916 N   0  0  0  0  0  0  0  0  0  0  0  0
   18.3932   29.5680   -1.5587 H   0  0  0  0  0  0  0  0  0  0  0  0
   12.8385   23.2695    0.1928 C   0  0  0  0  0  0  0  0  0  0  0  0
   11.9879   23.8957    1.0801 C   0  0  0  0  0  0  0  0  0  0  0  0
   11.1990   23.1834    1.9441 C   0  0  0  0  0  0  0  0  0  0  0  0
   11.2183   21.7791    1.9678 C   0  0  0  0  0  0  0  0  0  0  0  0
   12.0648   21.1670    1.0846 C   0  0  0  0  0  0  0  0  0  0  0  0
   12.8708   21.8957    0.2019 C   0  0  0  0  0  0  0  0  0  0  0  0
   10.3731   21.0822    2.9169 C   0  0  0  0  0  0  0  0  0  0  0  0
   10.9016   20.6709    4.1464 C   0  0  0  0  0  0  0  0  0  0  0  0
   10.1366   20.0078    5.0615 C   0  0  0  0  0  0  0  0  0  0  0  0
    8.8051   19.7293    4.7797 C   0  0  0  0  0  0  0  0  0  0  0  0
    8.2830   20.1298    3.5772 C   0  0  0  0  0  0  0  0  0  0  0  0
    9.0749   20.8069    2.6500 C   0  0  0  0  0  0  0  0  0  0  0  0
    8.4496   21.2216    1.3804 C   0  0  0  0  0  0  0  0  0  0  0  0
    7.9613   19.0228    5.7410 C   0  0  0  0  0  0  0  0  0  0  0  0
    6.7637   19.5722    6.1716 O   0  0  0  0  0  0  0  0  0  0  0  0
    8.3690   17.8880    6.1650 O   0  0  0  0  0  0  0  0  0  0  0  0
    6.2932   19.1146    6.9538 H   0  0  0  0  0  0  0  0  0  0  0  0
   16.0291   24.0734   -5.6583 C   0  0  0  0  0  0  0  0  0  0  0  0
   15.7572   26.8516   -4.9224 C   0  0  0  0  0  0  0  0  0  0  0  0
   16.0385   26.4607   -6.3372 C   0  0  0  0  0  0  0  0  0  0  0  0
   16.1691   27.3829   -7.3273 C   0  0  0  0  0  0  0  0  0  0  0  0
   16.4299   27.0464   -8.6422 C   0  0  0  0  0  0  0  0  0  0  0  0
   16.5590   25.6999   -8.9339 C   0  0  0  0  0  0  0  0  0  0  0  0
   16.4280   24.7969   -7.9483 N   0  0  0  0  0  0  0  0  0  0  0  0
   16.1764   25.1027   -6.6731 C   0  0  0  0  0  0  0  0  0  0  0  0
 39 40  1  0  0  0
 40 41  2  0  0  0
 41 42  1  0  0  0
 42 43  2  0  0  0
 43 44  1  0  0  0
 44 45  2  0  0  0
 45 38  1  0  0  0
 38  1  1  0  0  0
  1  2  1  0  0  0
  2  3  1  0  0  0
  3  4  1  0  0  0
  4  5  1  0  0  0
  5  6  1  0  0  0
  4  7  1  0  0  0
  7  8  1  0  0  0
  8  9  2  0  0  0
  8 10  1  0  0  0
 10 11  1  0  0  0
 11 12  2  0  0  0
 10 21  1  0  0  0
 21 22  2  0  0  0
 22 23  1  0  0  0
 23 24  2  0  0  0
 24 25  1  0  0  0
 25 26  2  0  0  0
 24 27  1  0  0  0
 27 28  2  0  0  0
 28 29  1  0  0  0
 29 30  2  0  0  0
 30 31  1  0  0  0
 31 32  2  0  0  0
 32 33  1  0  0  0
 30 34  1  0  0  0
 34 35  1  0  0  0
 34 36  2  0  0  0
  7 13  1  0  0  0
 13 14  2  0  0  0
 14 15  1  0  0  0
 15 16  2  0  0  0
 15 17  1  0  0  0
 17 18  1  0  0  0
 18 19  2  0  0  0
 45 40  1  0  0  0
  6  1  1  0  0  0
 26 21  1  0  0  0
 32 27  1  0  0  0
 19 13  1  0  0  0
 11  4  1  0  0  0
 35 37  1  0  0  0
 17 20  1  0  0  0
M  END
> <minimizedAffinity>
21.83312

> <CNNscore>
0.4352595806

> <CNNaffinity>
7.6558661461

> <CNN_VS>
3.3322889805

> <CNNaffinity_variance>
0.5728074908

$$$$
[H]OC(=O)c1c([H])c([H])c(-c2c([H])c([H])c(N3C(=O)N(c4nc([H])n([H])c(=O)c4[H])C4(C3=O)C([H])([H])C([H])([H])N(C([H])([H])c3nc([H])c([H])c([H])c3C([H])([H])[H])C([H])([H])C4([H])[H])c([H])c2[H])c(C([H])([H])[H])c1[H]


 45 50  0  0  0  0  0  0  0  0999 V2000
   16.6524   25.6367   -1.2149 N   0  0  0  0  0  0  0  0  0  0  0  0
   16.9217   24.2687   -0.7214 C   0  0  0  0  0  0  0  0  0  0  0  0
   16.0592   23.2422   -1.3668 C   0  0  0  0  0  0  0  0  0  0  0  0
   14.6145   23.6249   -1.4188 C   0  0  0  0  0  0  0  0  0  0  0  0
   14.3841   25.0664   -1.8209 C   0  0  0  0  0  0  0  0  0  0  0  0
   15.2479   25.9352   -0.9719 C   0  0  0  0  0  0  0  0  0  0  0  0
   13.8416   22.7248   -2.2452 N   0  0  0  0  0  0  0  0  0  0  0  0
   12.5070   22.8006   -1.7169 C   0  0  0  0  0  0  0  0  0  0  0  0
   11.4640   22.5093   -2.3707 O   0  0  0  0  0  0  0  0  0  0  0  0
   12.5721   23.2484   -0.3686 N   0  0  0  0  0  0  0  0  0  0  0  0
   13.9479   23.4431   -0.0857 C   0  0  0  0  0  0  0  0  0  0  0  0
   14.4976   23.4584    1.0701 O   0  0  0  0  0  0  0  0  0  0  0  0
   14.2287   21.9043   -3.3543 C   0  0  0  0  0  0  0  0  0  0  0  0
   13.4802   20.8083   -3.7126 C   0  0  0  0  0  0  0  0  0  0  0  0
   13.8967   20.0536   -4.7857 C   0  0  0  0  0  0  0  0  0  0  0  0
   13.2236   19.0266   -5.1469 O   0  0  0  0  0  0  0  0  0  0  0  0
   15.0094   20.3856   -5.4625 N   0  0  0  0  0  0  0  0  0  0  0  0
   15.7537   21.4525   -5.1272 C   0  0  0  0  0  0  0  0  0  0  0  0
   15.3286   22.1732   -4.0785 N   0  0  0  0  0  0  0  0  0  0  0  0
   15.3306   19.8210   -6.2747 H   0  0  0  0  0  0  0  0  0  0  0  0
   11.5257   23.4679    0.5540 C   0  0  0  0  0  0  0  0  0  0  0  0
   10.7228   24.5774    0.3889 C   0  0  0  0  0  0  0  0  0  0  0  0
    9.6911   24.8522    1.2470 C   0  0  0  0  0  0  0  0  0  0  0  0
    9.4009   24.0160    2.3377 C   0  0  0  0  0  0  0  0  0  0  0  0
   10.2024   22.9184    2.4933 C   0  0  0  0  0  0  0  0  0  0  0  0
   11.2565   22.6382    1.6160 C   0  0  0  0  0  0  0  0  0  0  0  0
    8.3069   24.3693    3.2204 C   0  0  0  0  0  0  0  0  0  0  0  0
    7.5873   25.5494    2.9969 C   0  0  0  0  0  0  0  0  0  0  0  0
    6.5551   25.9160    3.8109 C   0  0  0  0  0  0  0  0  0  0  0  0
    6.2012   25.1110    4.8862 C   0  0  0  0  0  0  0  0  0  0  0  0
    6.9027   23.9547    5.1094 C   0  0  0  0  0  0  0  0  0  0  0  0
    7.9557   23.5905    4.2703 C   0  0  0  0  0  0  0  0  0  0  0  0
    8.6620   22.3280    4.5573 C   0  0  0  0  0  0  0  0  0  0  0  0
    5.0992   25.4770    5.7734 C   0  0  0  0  0  0  0  0  0  0  0  0
    4.9159   26.7922    6.1713 O   0  0  0  0  0  0  0  0  0  0  0  0
    4.3186   24.5434    6.1643 O   0  0  0  0  0  0  0  0  0  0  0  0
    4.2319   26.9671    6.9087 H   0  0  0  0  0  0  0  0  0  0  0  0
   17.0384   25.6640   -2.5841 C   0  0  0  0  0  0  0  0  0  0  0  0
   17.7783   28.3037   -3.4889 C   0  0  0  0  0  0  0  0  0  0  0  0
   16.5184   27.6579   -3.9677 C   0  0  0  0  0  0  0  0  0  0  0  0
   15.6734   28.2797   -4.8321 C   0  0  0  0  0  0  0  0  0  0  0  0
   14.5035   27.7032   -5.2896 C   0  0  0  0  0  0  0  0  0  0  0  0
   14.2052   26.4329   -4.8287 C   0  0  0  0  0  0  0  0  0  0  0  0
   15.0468   25.8276   -3.9747 N   0  0  0  0  0  0  0  0  0  0  0  0
   16.1808   26.3682   -3.5221 C   0  0  0  0  0  0  0  0  0  0  0  0
 39 40  1  0  0  0
 40 41  2  0  0  0
 41 42  1  0  0  0
 42 43  2  0  0  0
 43 44  1  0  0  0
 44 45  2  0  0  0
 45 38  1  0  0  0
 38  1  1  0  0  0
  1  2  1  0  0  0
  2  3  1  0  0  0
  3  4  1  0  0  0
  4  5  1  0  0  0
  5  6  1  0  0  0
  4  7  1  0  0  0
  7  8  1  0  0  0
  8  9  2  0  0  0
  8 10  1  0  0  0
 10 11  1  0  0  0
 11 12  2  0  0  0
 10 21  1  0  0  0
 21 22  2  0  0  0
 22 23  1  0  0  0
 23 24  2  0  0  0
 24 25  1  0  0  0
 25 26  2  0  0  0
 24 27  1  0  0  0
 27 28  2  0  0  0
 28 29  1  0  0  0
 29 30  2  0  0  0
 30 31  1  0  0  0
 31 32  2  0  0  0
 32 33  1  0  0  0
 30 34  1  0  0  0
 34 35  1  0  0  0
 34 36  2  0  0  0
  7 13  1  0  0  0
 13 14  2  0  0  0
 14 15  1  0  0  0
 15 16  2  0  0  0
 15 17  1  0  0  0
 17 18  1  0  0  0
 18 19  2  0  0  0
 45 40  1  0  0  0
  6  1  1  0  0  0
 26 21  1  0  0  0
 32 27  1  0  0  0
 19 13  1  0  0  0
 11  4  1  0  0  0
 35 37  1  0  0  0
 17 20  1  0  0  0
M  END
> <minimizedAffinity>
5.55944

> <CNNscore>
0.4303003848

> <CNNaffinity>
7.9249777794

> <CNN_VS>
3.4101209641

> <CNNaffinity_variance>
1.3873989582

$$$$
[H]OC(=O)c1c([H])c([H])c(-c2c([H])c([H])c(N3C(=O)N(c4nc([H])n([H])c(=O)c4[H])C4(C3=O)C([H])([H])C([H])([H])N(C([H])([H])c3nc([H])c([H])c([H])c3C([H])([H])[H])C([H])([H])C4([H])[H])c([H])c2[H])c(C([H])([H])[H])c1[H]


 45 50  0  0  0  0  0  0  0  0999 V2000
   16.5941   26.3316   -1.5454 N   0  0  0  0  0  0  0  0  0  0  0  0
   17.0065   25.0440   -0.9459 C   0  0  0  0  0  0  0  0  0  0  0  0
   16.2643   23.8825   -1.5066 C   0  0  0  0  0  0  0  0  0  0  0  0
   14.7871   24.1012   -1.5857 C   0  0  0  0  0  0  0  0  0  0  0  0
   14.4048   25.4731   -2.0999 C   0  0  0  0  0  0  0  0  0  0  0  0
   15.1640   26.4945   -1.3239 C   0  0  0  0  0  0  0  0  0  0  0  0
   14.1214   23.0605   -2.3370 N   0  0  0  0  0  0  0  0  0  0  0  0
   12.7831   23.0326   -1.8136 C   0  0  0  0  0  0  0  0  0  0  0  0
   11.7819   22.5795   -2.4402 O   0  0  0  0  0  0  0  0  0  0  0  0
   12.7905   23.5895   -0.5050 N   0  0  0  0  0  0  0  0  0  0  0  0
   14.1353   23.9538   -0.2411 C   0  0  0  0  0  0  0  0  0  0  0  0
   14.6725   24.1194    0.9087 O   0  0  0  0  0  0  0  0  0  0  0  0
   14.6023   22.2019   -3.3785 C   0  0  0  0  0  0  0  0  0  0  0  0
   13.8450   21.1444   -3.8232 C   0  0  0  0  0  0  0  0  0  0  0  0
   14.3540   20.3504   -4.8257 C   0  0  0  0  0  0  0  0  0  0  0  0
   13.6756   19.3574   -5.2639 O   0  0  0  0  0  0  0  0  0  0  0  0
   15.5631   20.6085   -5.3529 N   0  0  0  0  0  0  0  0  0  0  0  0
   16.3176   21.6370   -4.9314 C   0  0  0  0  0  0  0  0  0  0  0  0
   15.8012   22.3970   -3.9539 N   0  0  0  0  0  0  0  0  0  0  0  0
   15.9547   20.0139   -6.1111 H   0  0  0  0  0  0  0  0  0  0  0  0
   11.7205   23.7663    0.3995 C   0  0  0  0  0  0  0  0  0  0  0  0
   10.6802   22.8607    0.3757 C   0  0  0  0  0  0  0  0  0  0  0  0
    9.6101   22.9726    1.2234 C   0  0  0  0  0  0  0  0  0  0  0  0
    9.5210   24.0163    2.1593 C   0  0  0  0  0  0  0  0  0  0  0  0
   10.5571   24.9094    2.1755 C   0  0  0  0  0  0  0  0  0  0  0  0
   11.6503   24.7944    1.3087 C   0  0  0  0  0  0  0  0  0  0  0  0
    8.3553   24.0909    3.0174 C   0  0  0  0  0  0  0  0  0  0  0  0
    7.1748   24.6704    2.5368 C   0  0  0  0  0  0  0  0  0  0  0  0
    6.0600   24.7623    3.3186 C   0  0  0  0  0  0  0  0  0  0  0  0
    6.0839   24.2749    4.6192 C   0  0  0  0  0  0  0  0  0  0  0  0
    7.2373   23.7067    5.0945 C   0  0  0  0  0  0  0  0  0  0  0  0
    8.3702   23.6184    4.2857 C   0  0  0  0  0  0  0  0  0  0  0  0
    9.5752   22.9846    4.8527 C   0  0  0  0  0  0  0  0  0  0  0  0
    4.9050   24.3577    5.4787 C   0  0  0  0  0  0  0  0  0  0  0  0
    4.3445   23.2141    6.0260 O   0  0  0  0  0  0  0  0  0  0  0  0
    4.4160   25.5172    5.7029 O   0  0  0  0  0  0  0  0  0  0  0  0
    3.4388   23.3113    6.4871 H   0  0  0  0  0  0  0  0  0  0  0  0
   16.9839   26.2927   -2.9133 C   0  0  0  0  0  0  0  0  0  0  0  0
   15.1785   25.0648   -4.8018 C   0  0  0  0  0  0  0  0  0  0  0  0
   15.3785   26.5458   -4.7891 C   0  0  0  0  0  0  0  0  0  0  0  0
   14.7340   27.3675   -5.6594 C   0  0  0  0  0  0  0  0  0  0  0  0
   14.9017   28.7394   -5.6668 C   0  0  0  0  0  0  0  0  0  0  0  0
   15.7728   29.2724   -4.7329 C   0  0  0  0  0  0  0  0  0  0  0  0
   16.4046   28.4517   -3.8779 N   0  0  0  0  0  0  0  0  0  0  0  0
   16.2553   27.1249   -3.8554 C   0  0  0  0  0  0  0  0  0  0  0  0
 39 40  1  0  0  0
 40 41  2  0  0  0
 41 42  1  0  0  0
 42 43  2  0  0  0
 43 44  1  0  0  0
 44 45  2  0  0  0
 45 38  1  0  0  0
 38  1  1  0  0  0
  1  2  1  0  0  0
  2  3  1  0  0  0
  3  4  1  0  0  0
  4  5  1  0  0  0
  5  6  1  0  0  0
  4  7  1  0  0  0
  7  8  1  0  0  0
  8  9  2  0  0  0
  8 10  1  0  0  0
 10 11  1  0  0  0
 11 12  2  0  0  0
 10 21  1  0  0  0
 21 22  2  0  0  0
 22 23  1  0  0  0
 23 24  2  0  0  0
 24 25  1  0  0  0
 25 26  2  0  0  0
 24 27  1  0  0  0
 27 28  2  0  0  0
 28 29  1  0  0  0
 29 30  2  0  0  0
 30 31  1  0  0  0
 31 32  2  0  0  0
 32 33  1  0  0  0
 30 34  1  0  0  0
 34 35  1  0  0  0
 34 36  2  0  0  0
  7 13  1  0  0  0
 13 14  2  0  0  0
 14 15  1  0  0  0
 15 16  2  0  0  0
 15 17  1  0  0  0
 17 18  1  0  0  0
 18 19  2  0  0  0
 45 40  1  0  0  0
  6  1  1  0  0  0
 26 21  1  0  0  0
 32 27  1  0  0  0
 19 13  1  0  0  0
 11  4  1  0  0  0
 35 37  1  0  0  0
 17 20  1  0  0  0
M  END
> <minimizedAffinity>
13.03766

> <CNNscore>
0.4176574647

> <CNNaffinity>
7.5178689957

> <CNN_VS>
3.1398940086

> <CNNaffinity_variance>
0.8647693396

$$$$
[H]OC(=O)c1c([H])c([H])c(-c2c([H])c([H])c(N3C(=O)N(c4nc([H])n([H])c(=O)c4[H])C4(C3=O)C([H])([H])C([H])([H])N(C([H])([H])c3nc([H])c([H])c([H])c3C([H])([H])[H])C([H])([H])C4([H])[H])c([H])c2[H])c(C([H])([H])[H])c1[H]


 45 50  0  0  0  0  0  0  0  0999 V2000
   16.4022   27.1346   -3.0993 N   0  0  0  0  0  0  0  0  0  0  0  0
   17.1210   26.0886   -2.3400 C   0  0  0  0  0  0  0  0  0  0  0  0
   16.5925   24.7218   -2.5988 C   0  0  0  0  0  0  0  0  0  0  0  0
   15.1007   24.6382   -2.5374 C   0  0  0  0  0  0  0  0  0  0  0  0
   14.4008   25.7875   -3.2314 C   0  0  0  0  0  0  0  0  0  0  0  0
   14.9927   27.0642   -2.7400 C   0  0  0  0  0  0  0  0  0  0  0  0
   14.6061   23.3653   -3.0125 N   0  0  0  0  0  0  0  0  0  0  0  0
   13.3506   23.1870   -2.3360 C   0  0  0  0  0  0  0  0  0  0  0  0
   12.4172   22.4406   -2.7508 O   0  0  0  0  0  0  0  0  0  0  0  0
   13.3500   23.9774   -1.1537 N   0  0  0  0  0  0  0  0  0  0  0  0
   14.6069   24.6330   -1.1194 C   0  0  0  0  0  0  0  0  0  0  0  0
   15.1909   25.1161   -0.0881 O   0  0  0  0  0  0  0  0  0  0  0  0
   15.1673   22.4282   -3.9399 C   0  0  0  0  0  0  0  0  0  0  0  0
   16.2383   22.7757   -4.7286 C   0  0  0  0  0  0  0  0  0  0  0  0
   16.7387   21.8380   -5.6032 C   0  0  0  0  0  0  0  0  0  0  0  0
   17.7354   22.1276   -6.3523 O   0  0  0  0  0  0  0  0  0  0  0  0
   16.1889   20.6140   -5.6792 N   0  0  0  0  0  0  0  0  0  0  0  0
   15.1421   20.2563   -4.9170 C   0  0  0  0  0  0  0  0  0  0  0  0
   14.6714   21.1861   -4.0722 N   0  0  0  0  0  0  0  0  0  0  0  0
   16.5614   19.8996   -6.3369 H   0  0  0  0  0  0  0  0  0  0  0  0
   12.3449   24.1204   -0.1721 C   0  0  0  0  0  0  0  0  0  0  0  0
   11.6447   22.9995    0.2231 C   0  0  0  0  0  0  0  0  0  0  0  0
   10.6561   23.0658    1.1689 C   0  0  0  0  0  0  0  0  0  0  0  0
   10.3077   24.2803    1.7826 C   0  0  0  0  0  0  0  0  0  0  0  0
   11.0072   25.3863    1.3843 C   0  0  0  0  0  0  0  0  0  0  0  0
   12.0174   25.3177    0.4176 C   0  0  0  0  0  0  0  0  0  0  0  0
    9.2410   24.2893    2.7640 C   0  0  0  0  0  0  0  0  0  0  0  0
    9.1929   25.3030    3.7285 C   0  0  0  0  0  0  0  0  0  0  0  0
    8.2065   25.3397    4.6708 C   0  0  0  0  0  0  0  0  0  0  0  0
    7.2243   24.3575    4.6841 C   0  0  0  0  0  0  0  0  0  0  0  0
    7.2670   23.3627    3.7420 C   0  0  0  0  0  0  0  0  0  0  0  0
    8.2803   23.3360    2.7838 C   0  0  0  0  0  0  0  0  0  0  0  0
    8.2623   22.2461    1.7905 C   0  0  0  0  0  0  0  0  0  0  0  0
    6.1547   24.3722    5.6797 C   0  0  0  0  0  0  0  0  0  0  0  0
    5.5625   25.5642    6.0668 O   0  0  0  0  0  0  0  0  0  0  0  0
    5.7910   23.2512    6.1746 O   0  0  0  0  0  0  0  0  0  0  0  0
    4.9347   25.5353    6.8715 H   0  0  0  0  0  0  0  0  0  0  0  0
   16.6775   26.9065   -4.4765 C   0  0  0  0  0  0  0  0  0  0  0  0
   17.0277   25.6248   -7.0394 C   0  0  0  0  0  0  0  0  0  0  0  0
   15.7050   26.1999   -6.6480 C   0  0  0  0  0  0  0  0  0  0  0  0
   14.6258   26.1524   -7.4733 C   0  0  0  0  0  0  0  0  0  0  0  0
   13.3928   26.6762   -7.1338 C   0  0  0  0  0  0  0  0  0  0  0  0
   13.2821   27.2705   -5.8889 C   0  0  0  0  0  0  0  0  0  0  0  0
   14.3545   27.3123   -5.0814 N   0  0  0  0  0  0  0  0  0  0  0  0
   15.5529   26.8119   -5.3917 C   0  0  0  0  0  0  0  0  0  0  0  0
 39 40  1  0  0  0
 40 41  2  0  0  0
 41 42  1  0  0  0
 42 43  2  0  0  0
 43 44  1  0  0  0
 44 45  2  0  0  0
 45 38  1  0  0  0
 38  1  1  0  0  0
  1  2  1  0  0  0
  2  3  1  0  0  0
  3  4  1  0  0  0
  4  5  1  0  0  0
  5  6  1  0  0  0
  4  7  1  0  0  0
  7  8  1  0  0  0
  8  9  2  0  0  0
  8 10  1  0  0  0
 10 11  1  0  0  0
 11 12  2  0  0  0
 10 21  1  0  0  0
 21 22  2  0  0  0
 22 23  1  0  0  0
 23 24  2  0  0  0
 24 25  1  0  0  0
 25 26  2  0  0  0
 24 27  1  0  0  0
 27 28  2  0  0  0
 28 29  1  0  0  0
 29 30  2  0  0  0
 30 31  1  0  0  0
 31 32  2  0  0  0
 32 33  1  0  0  0
 30 34  1  0  0  0
 34 35  1  0  0  0
 34 36  2  0  0  0
  7 13  1  0  0  0
 13 14  2  0  0  0
 14 15  1  0  0  0
 15 16  2  0  0  0
 15 17  1  0  0  0
 17 18  1  0  0  0
 18 19  2  0  0  0
 45 40  1  0  0  0
  6  1  1  0  0  0
 26 21  1  0  0  0
 32 27  1  0  0  0
 19 13  1  0  0  0
 11  4  1  0  0  0
 35 37  1  0  0  0
 17 20  1  0  0  0
M  END
> <minimizedAffinity>
16.16752

> <CNNscore>
0.4089849293

> <CNNaffinity>
7.5276045799

> <CNN_VS>
3.0786769390

> <CNNaffinity_variance>
0.4953706861

$$$$
[H]OC(=O)c1c([H])c([H])c(-c2c([H])c([H])c(N3C(=O)N(c4nc([H])n([H])c(=O)c4[H])C4(C3=O)C([H])([H])C([H])([H])N(C([H])([H])c3nc([H])c([H])c([H])c3C([H])([H])[H])C([H])([H])C4([H])[H])c([H])c2[H])c(C([H])([H])[H])c1[H]


 45 50  0  0  0  0  0  0  0  0999 V2000
   10.3243   19.8427    3.5155 N   0  0  0  0  0  0  0  0  0  0  0  0
   11.1755   20.7224    4.3456 C   0  0  0  0  0  0  0  0  0  0  0  0
   10.7345   22.1434    4.3199 C   0  0  0  0  0  0  0  0  0  0  0  0
   10.4471   22.6534    2.9439 C   0  0  0  0  0  0  0  0  0  0  0  0
    9.6688   21.6776    2.0868 C   0  0  0  0  0  0  0  0  0  0  0  0
   10.3461   20.3513    2.1511 C   0  0  0  0  0  0  0  0  0  0  0  0
    9.8083   23.9504    2.9656 N   0  0  0  0  0  0  0  0  0  0  0  0
   10.1683   24.5548    1.7122 C   0  0  0  0  0  0  0  0  0  0  0  0
    9.5135   25.4820    1.1540 O   0  0  0  0  0  0  0  0  0  0  0  0
   11.3566   23.9395    1.2307 N   0  0  0  0  0  0  0  0  0  0  0  0
   11.7115   22.9628    2.1955 C   0  0  0  0  0  0  0  0  0  0  0  0
   12.8722   22.4566    2.3819 O   0  0  0  0  0  0  0  0  0  0  0  0
    8.9892   24.5756    3.9613 C   0  0  0  0  0  0  0  0  0  0  0  0
    8.3181   25.7436    3.6870 C   0  0  0  0  0  0  0  0  0  0  0  0
    7.5451   26.3030    4.6790 C   0  0  0  0  0  0  0  0  0  0  0  0
    6.9065   27.3900    4.4579 O   0  0  0  0  0  0  0  0  0  0  0  0
    7.4530   25.7162    5.8847 N   0  0  0  0  0  0  0  0  0  0  0  0
    8.1014   24.5751    6.1714 C   0  0  0  0  0  0  0  0  0  0  0  0
    8.8484   24.0482    5.1895 N   0  0  0  0  0  0  0  0  0  0  0  0
    6.8707   26.1320    6.6394 H   0  0  0  0  0  0  0  0  0  0  0  0
   12.0868   24.2023    0.0508 C   0  0  0  0  0  0  0  0  0  0  0  0
   11.5428   25.0578   -0.8847 C   0  0  0  0  0  0  0  0  0  0  0  0
   12.1953   25.3558   -2.0515 C   0  0  0  0  0  0  0  0  0  0  0  0
   13.4516   24.8038   -2.3517 C   0  0  0  0  0  0  0  0  0  0  0  0
   13.9830   23.9567   -1.4183 C   0  0  0  0  0  0  0  0  0  0  0  0
   13.3155   23.6526   -0.2260 C   0  0  0  0  0  0  0  0  0  0  0  0
   14.0842   25.1441   -3.6107 C   0  0  0  0  0  0  0  0  0  0  0  0
   13.7363   26.3324   -4.2641 C   0  0  0  0  0  0  0  0  0  0  0  0
   14.3075   26.6818   -5.4533 C   0  0  0  0  0  0  0  0  0  0  0  0
   15.2546   25.8504   -6.0376 C   0  0  0  0  0  0  0  0  0  0  0  0
   15.5986   24.6858   -5.4018 C   0  0  0  0  0  0  0  0  0  0  0  0
   15.0079   24.3396   -4.1866 C   0  0  0  0  0  0  0  0  0  0  0  0
   15.4309   23.0794   -3.5478 C   0  0  0  0  0  0  0  0  0  0  0  0
   15.8845   26.1995   -7.3091 C   0  0  0  0  0  0  0  0  0  0  0  0
   15.7949   25.3509   -8.4015 O   0  0  0  0  0  0  0  0  0  0  0  0
   16.5160   27.3090   -7.3722 O   0  0  0  0  0  0  0  0  0  0  0  0
   16.3788   25.5665   -9.2109 H   0  0  0  0  0  0  0  0  0  0  0  0
    9.0377   19.8223    4.1226 C   0  0  0  0  0  0  0  0  0  0  0  0
    6.9307   21.4165    5.2859 C   0  0  0  0  0  0  0  0  0  0  0  0
    6.8524   20.9698    3.8618 C   0  0  0  0  0  0  0  0  0  0  0  0
    5.7965   21.2836    3.0652 C   0  0  0  0  0  0  0  0  0  0  0  0
    5.7017   20.8831    1.7458 C   0  0  0  0  0  0  0  0  0  0  0  0
    6.7456   20.1286    1.2401 C   0  0  0  0  0  0  0  0  0  0  0  0
    7.7839   19.8239    2.0357 N   0  0  0  0  0  0  0  0  0  0  0  0
    7.8933   20.2017    3.3118 C   0  0  0  0  0  0  0  0  0  0  0  0
 39 40  1  0  0  0
 40 41  2  0  0  0
 41 42  1  0  0  0
 42 43  2  0  0  0
 43 44  1  0  0  0
 44 45  2  0  0  0
 45 38  1  0  0  0
 38  1  1  0  0  0
  1  2  1  0  0  0
  2  3  1  0  0  0
  3  4  1  0  0  0
  4  5  1  0  0  0
  5  6  1  0  0  0
  4  7  1  0  0  0
  7  8  1  0  0  0
  8  9  2  0  0  0
  8 10  1  0  0  0
 10 11  1  0  0  0
 11 12  2  0  0  0
 10 21  1  0  0  0
 21 22  2  0  0  0
 22 23  1  0  0  0
 23 24  2  0  0  0
 24 25  1  0  0  0
 25 26  2  0  0  0
 24 27  1  0  0  0
 27 28  2  0  0  0
 28 29  1  0  0  0
 29 30  2  0  0  0
 30 31  1  0  0  0
 31 32  2  0  0  0
 32 33  1  0  0  0
 30 34  1  0  0  0
 34 35  1  0  0  0
 34 36  2  0  0  0
  7 13  1  0  0  0
 13 14  2  0  0  0
 14 15  1  0  0  0
 15 16  2  0  0  0
 15 17  1  0  0  0
 17 18  1  0  0  0
 18 19  2  0  0  0
 45 40  1  0  0  0
  6  1  1  0  0  0
 26 21  1  0  0  0
 32 27  1  0  0  0
 19 13  1  0  0  0
 11  4  1  0  0  0
 35 37  1  0  0  0
 17 20  1  0  0  0
M  END
> <minimizedAffinity>
-5.15066

> <CNNscore>
0.3947773576

> <CNNaffinity>
7.4644622803

> <CNN_VS>
2.9468007088

> <CNNaffinity_variance>
0.5252544284

$$$$
[H]OC(=O)c1c([H])c([H])c(N2C(=O)N(c3c([H])c([H])c(C#N)c([H])c3[H])C(=O)C23C([H])([H])C([H])([H])N(C([H])([H])c2nc([H])c([H])c([H])c2C([H])([H])[H])C([H])([H])C3([H])[H])c([H])c1[H]


 38 42  0  0  0  0  0  0  0  0999 V2000
   12.4675   26.4970   -3.4587 N   0  0  0  0  0  0  0  0  0  0  0  0
   11.5053   25.5205   -3.4192 C   0  0  0  0  0  0  0  0  0  0  0  0
   12.0241   24.1864   -2.8827 C   0  0  0  0  0  0  0  0  0  0  0  0
   12.6224   24.3018   -1.5560 C   0  0  0  0  0  0  0  0  0  0  0  0
   12.9016   25.7392   -1.1850 C   0  0  0  0  0  0  0  0  0  0  0  0
   13.4468   26.4155   -2.3980 C   0  0  0  0  0  0  0  0  0  0  0  0
   12.0205   23.5405   -0.4900 N   0  0  0  0  0  0  0  0  0  0  0  0
   13.0540   23.6357    0.5529 C   0  0  0  0  0  0  0  0  0  0  0  0
   12.8511   23.6464    1.7754 O   0  0  0  0  0  0  0  0  0  0  0  0
   14.3294   23.7030   -0.0904 N   0  0  0  0  0  0  0  0  0  0  0  0
   14.0244   23.6604   -1.5142 C   0  0  0  0  0  0  0  0  0  0  0  0
   14.7120   23.2331   -2.3981 O   0  0  0  0  0  0  0  0  0  0  0  0
   15.6086   23.7792    0.5148 C   0  0  0  0  0  0  0  0  0  0  0  0
   16.1386   22.7142    1.2335 C   0  0  0  0  0  0  0  0  0  0  0  0
   17.4107   22.8263    1.8508 C   0  0  0  0  0  0  0  0  0  0  0  0
   18.1321   23.9882    1.7489 C   0  0  0  0  0  0  0  0  0  0  0  0
   17.6019   25.0221    1.0422 C   0  0  0  0  0  0  0  0  0  0  0  0
   16.3567   24.9163    0.4394 C   0  0  0  0  0  0  0  0  0  0  0  0
   19.4111   24.1509    2.3910 C   0  0  0  0  0  0  0  0  0  0  0  0
   20.4382   24.3077    2.8967 N   0  0  0  0  0  0  0  0  0  0  0  0
   10.8661   22.8332   -0.2792 C   0  0  0  0  0  0  0  0  0  0  0  0
   10.6410   21.5037   -0.5809 C   0  0  0  0  0  0  0  0  0  0  0  0
    9.4875   20.8051   -0.3716 C   0  0  0  0  0  0  0  0  0  0  0  0
    8.4061   21.4776    0.2035 C   0  0  0  0  0  0  0  0  0  0  0  0
    8.5967   22.7897    0.5189 C   0  0  0  0  0  0  0  0  0  0  0  0
    9.7327   23.4938    0.3167 C   0  0  0  0  0  0  0  0  0  0  0  0
    7.1599   20.7874    0.4300 C   0  0  0  0  0  0  0  0  0  0  0  0
    6.0575   21.4710    0.9751 O   0  0  0  0  0  0  0  0  0  0  0  0
    7.0087   19.5799    0.1605 O   0  0  0  0  0  0  0  0  0  0  0  0
    6.2414   21.8525    1.9239 H   0  0  0  0  0  0  0  0  0  0  0  0
   12.9327   27.0481   -4.6306 C   0  0  0  0  0  0  0  0  0  0  0  0
   13.9935   26.2521   -7.1444 C   0  0  0  0  0  0  0  0  0  0  0  0
   14.8425   26.9494   -6.1701 C   0  0  0  0  0  0  0  0  0  0  0  0
   16.1954   27.2917   -6.4356 C   0  0  0  0  0  0  0  0  0  0  0  0
   16.9343   27.8504   -5.4424 C   0  0  0  0  0  0  0  0  0  0  0  0
   16.4649   28.1040   -4.2000 C   0  0  0  0  0  0  0  0  0  0  0  0
   15.1650   27.7690   -3.9638 N   0  0  0  0  0  0  0  0  0  0  0  0
   14.3595   27.2024   -4.9276 C   0  0  0  0  0  0  0  0  0  0  0  0
 32 33  1  0  0  0
 33 34  2  0  0  0
 34 35  1  0  0  0
 35 36  2  0  0  0
 36 37  1  0  0  0
 37 38  2  0  0  0
 38 31  1  0  0  0
 31  1  1  0  0  0
  1  2  1  0  0  0
  2  3  1  0  0  0
  3  4  1  0  0  0
  4  5  1  0  0  0
  5  6  1  0  0  0
  4  7  1  0  0  0
  7  8  1  0  0  0
  8  9  2  0  0  0
  8 10  1  0  0  0
 10 11  1  0  0  0
 11 12  2  0  0  0
 10 13  1  0  0  0
 13 14  2  0  0  0
 14 15  1  0  0  0
 15 16  2  0  0  0
 16 17  1  0  0  0
 17 18  2  0  0  0
 16 19  1  0  0  0
 19 20  3  0  0  0
  7 21  1  0  0  0
 21 22  2  0  0  0
 22 23  1  0  0  0
 23 24  2  0  0  0
 24 25  1  0  0  0
 25 26  2  0  0  0
 24 27  1  0  0  0
 27 28  1  0  0  0
 27 29  2  0  0  0
 38 33  1  0  0  0
  6  1  1  0  0  0
 18 13  1  0  0  0
 26 21  1  0  0  0
 11  4  1  0  0  0
 28 30  1  0  0  0
M  END
> <minimizedAffinity>
10.95586

> <CNNscore>
0.6508983970

> <CNNaffinity>
7.8319029808

> <CNN_VS>
5.0977730751

> <CNNaffinity_variance>
1.0335609913

$$$$
[H]OC(=O)c1c([H])c([H])c(N2C(=O)N(c3c([H])c([H])c(C#N)c([H])c3[H])C(=O)C23C([H])([H])C([H])([H])N(C([H])([H])c2nc([H])c([H])c([H])c2C([H])([H])[H])C([H])([H])C3([H])[H])c([H])c1[H]


 38 42  0  0  0  0  0  0  0  0999 V2000
   13.1744   20.5329    0.6945 N   0  0  0  0  0  0  0  0  0  0  0  0
   12.3628   21.0806    1.6550 C   0  0  0  0  0  0  0  0  0  0  0  0
   12.3717   22.6093    1.6496 C   0  0  0  0  0  0  0  0  0  0  0  0
   12.0046   23.1748    0.3546 C   0  0  0  0  0  0  0  0  0  0  0  0
   12.0470   22.1412   -0.7460 C   0  0  0  0  0  0  0  0  0  0  0  0
   13.2621   21.3039   -0.5256 C   0  0  0  0  0  0  0  0  0  0  0  0
   10.8347   24.0158    0.3074 N   0  0  0  0  0  0  0  0  0  0  0  0
   10.9830   24.6439   -1.0148 C   0  0  0  0  0  0  0  0  0  0  0  0
   10.0559   24.9976   -1.7572 O   0  0  0  0  0  0  0  0  0  0  0  0
   12.3801   24.7831   -1.2863 N   0  0  0  0  0  0  0  0  0  0  0  0
   13.0388   24.2174   -0.1167 C   0  0  0  0  0  0  0  0  0  0  0  0
   14.1112   24.5087    0.3325 O   0  0  0  0  0  0  0  0  0  0  0  0
   12.9940   25.3555   -2.4281 C   0  0  0  0  0  0  0  0  0  0  0  0
   12.5072   26.5204   -3.0094 C   0  0  0  0  0  0  0  0  0  0  0  0
   13.1253   27.0580   -4.1673 C   0  0  0  0  0  0  0  0  0  0  0  0
   14.2090   26.4333   -4.7297 C   0  0  0  0  0  0  0  0  0  0  0  0
   14.6751   25.2947   -4.1504 C   0  0  0  0  0  0  0  0  0  0  0  0
   14.0711   24.7651   -3.0192 C   0  0  0  0  0  0  0  0  0  0  0  0
   14.8408   26.9303   -5.9248 C   0  0  0  0  0  0  0  0  0  0  0  0
   15.3695   27.3375   -6.8682 N   0  0  0  0  0  0  0  0  0  0  0  0
    9.7773   24.3243    1.1224 C   0  0  0  0  0  0  0  0  0  0  0  0
    8.4841   23.8482    1.0195 C   0  0  0  0  0  0  0  0  0  0  0  0
    7.4338   24.1617    1.8325 C   0  0  0  0  0  0  0  0  0  0  0  0
    7.6590   25.0541    2.8838 C   0  0  0  0  0  0  0  0  0  0  0  0
    8.9261   25.5383    3.0172 C   0  0  0  0  0  0  0  0  0  0  0  0
    9.9748   25.2371    2.2194 C   0  0  0  0  0  0  0  0  0  0  0  0
    6.5773   25.4296    3.7611 C   0  0  0  0  0  0  0  0  0  0  0  0
    6.0012   24.4808    4.6257 O   0  0  0  0  0  0  0  0  0  0  0  0
    6.1138   26.5863    3.7897 O   0  0  0  0  0  0  0  0  0  0  0  0
    5.5725   23.6780    4.1245 H   0  0  0  0  0  0  0  0  0  0  0  0
   14.2963   19.7931    0.9899 C   0  0  0  0  0  0  0  0  0  0  0  0
   16.5105   18.3876   -0.1056 C   0  0  0  0  0  0  0  0  0  0  0  0
   16.6754   19.7618    0.3851 C   0  0  0  0  0  0  0  0  0  0  0  0
   17.9084   20.4629    0.3070 C   0  0  0  0  0  0  0  0  0  0  0  0
   17.9953   21.6951    0.8716 C   0  0  0  0  0  0  0  0  0  0  0  0
   16.9756   22.3076    1.5143 C   0  0  0  0  0  0  0  0  0  0  0  0
   15.8006   21.6198    1.5791 N   0  0  0  0  0  0  0  0  0  0  0  0
   15.6439   20.3680    1.0249 C   0  0  0  0  0  0  0  0  0  0  0  0
 32 33  1  0  0  0
 33 34  2  0  0  0
 34 35  1  0  0  0
 35 36  2  0  0  0
 36 37  1  0  0  0
 37 38  2  0  0  0
 38 31  1  0  0  0
 31  1  1  0  0  0
  1  2  1  0  0  0
  2  3  1  0  0  0
  3  4  1  0  0  0
  4  5  1  0  0  0
  5  6  1  0  0  0
  4  7  1  0  0  0
  7  8  1  0  0  0
  8  9  2  0  0  0
  8 10  1  0  0  0
 10 11  1  0  0  0
 11 12  2  0  0  0
 10 13  1  0  0  0
 13 14  2  0  0  0
 14 15  1  0  0  0
 15 16  2  0  0  0
 16 17  1  0  0  0
 17 18  2  0  0  0
 16 19  1  0  0  0
 19 20  3  0  0  0
  7 21  1  0  0  0
 21 22  2  0  0  0
 22 23  1  0  0  0
 23 24  2  0  0  0
 24 25  1  0  0  0
 25 26  2  0  0  0
 24 27  1  0  0  0
 27 28  1  0  0  0
 27 29  2  0  0  0
 38 33  1  0  0  0
  6  1  1  0  0  0
 18 13  1  0  0  0
 26 21  1  0  0  0
 11  4  1  0  0  0
 28 30  1  0  0  0
M  END
> <minimizedAffinity>
10.55507

> <CNNscore>
0.6407606006

> <CNNaffinity>
7.5849051476

> <CNN_VS>
4.8601083755

> <CNNaffinity_variance>
0.7556082606

$$$$
[H]OC(=O)c1c([H])c([H])c(N2C(=O)N(c3c([H])c([H])c(C#N)c([H])c3[H])C(=O)C23C([H])([H])C([H])([H])N(C([H])([H])c2nc([H])c([H])c([H])c2C([H])([H])[H])C([H])([H])C3([H])[H])c([H])c1[H]


 38 42  0  0  0  0  0  0  0  0999 V2000
   11.7107   22.8087   -0.4678 N   0  0  0  0  0  0  0  0  0  0  0  0
   11.7016   23.5903   -1.5948 C   0  0  0  0  0  0  0  0  0  0  0  0
   12.7431   24.7088   -1.5594 C   0  0  0  0  0  0  0  0  0  0  0  0
   14.1006   24.2143   -1.3488 C   0  0  0  0  0  0  0  0  0  0  0  0
   14.1124   22.7811   -0.8721 C   0  0  0  0  0  0  0  0  0  0  0  0
   13.0161   22.6345    0.1292 C   0  0  0  0  0  0  0  0  0  0  0  0
   15.0707   24.4839   -2.3805 N   0  0  0  0  0  0  0  0  0  0  0  0
   16.3273   24.1577   -1.6885 C   0  0  0  0  0  0  0  0  0  0  0  0
   17.3500   23.7019   -2.2197 O   0  0  0  0  0  0  0  0  0  0  0  0
   16.1645   24.4682   -0.3020 N   0  0  0  0  0  0  0  0  0  0  0  0
   14.7987   24.9631   -0.1953 C   0  0  0  0  0  0  0  0  0  0  0  0
   14.3639   25.7474    0.6000 O   0  0  0  0  0  0  0  0  0  0  0  0
   17.1182   24.3399    0.7383 C   0  0  0  0  0  0  0  0  0  0  0  0
   17.1374   23.2307    1.5756 C   0  0  0  0  0  0  0  0  0  0  0  0
   18.0868   23.1395    2.6255 C   0  0  0  0  0  0  0  0  0  0  0  0
   18.9956   24.1461    2.8295 C   0  0  0  0  0  0  0  0  0  0  0  0
   18.9659   25.2253    2.0025 C   0  0  0  0  0  0  0  0  0  0  0  0
   18.0369   25.3185    0.9763 C   0  0  0  0  0  0  0  0  0  0  0  0
   19.9513   24.1044    3.9062 C   0  0  0  0  0  0  0  0  0  0  0  0
   20.6976   24.0631    4.7875 N   0  0  0  0  0  0  0  0  0  0  0  0
   15.0720   24.9329   -3.6751 C   0  0  0  0  0  0  0  0  0  0  0  0
   14.6158   26.1556   -4.1294 C   0  0  0  0  0  0  0  0  0  0  0  0
   14.6167   26.5963   -5.4211 C   0  0  0  0  0  0  0  0  0  0  0  0
   15.1230   25.7448   -6.4065 C   0  0  0  0  0  0  0  0  0  0  0  0
   15.5870   24.5325   -5.9910 C   0  0  0  0  0  0  0  0  0  0  0  0
   15.5916   24.0832   -4.7162 C   0  0  0  0  0  0  0  0  0  0  0  0
   15.1308   26.1581   -7.7884 C   0  0  0  0  0  0  0  0  0  0  0  0
   14.2682   25.5482   -8.7178 O   0  0  0  0  0  0  0  0  0  0  0  0
   15.8876   27.0535   -8.2116 O   0  0  0  0  0  0  0  0  0  0  0  0
   14.4342   24.5278   -8.8212 H   0  0  0  0  0  0  0  0  0  0  0  0
   10.6601   22.7551    0.4193 C   0  0  0  0  0  0  0  0  0  0  0  0
    8.1910   23.3405    1.6995 C   0  0  0  0  0  0  0  0  0  0  0  0
    8.2748   22.2549    0.7142 C   0  0  0  0  0  0  0  0  0  0  0  0
    7.1487   21.4811    0.3257 C   0  0  0  0  0  0  0  0  0  0  0  0
    7.3360   20.4352   -0.5203 C   0  0  0  0  0  0  0  0  0  0  0  0
    8.5378   20.0732   -1.0229 C   0  0  0  0  0  0  0  0  0  0  0  0
    9.6066   20.8273   -0.6392 N   0  0  0  0  0  0  0  0  0  0  0  0
    9.4857   21.9030    0.2134 C   0  0  0  0  0  0  0  0  0  0  0  0
 32 33  1  0  0  0
 33 34  2  0  0  0
 34 35  1  0  0  0
 35 36  2  0  0  0
 36 37  1  0  0  0
 37 38  2  0  0  0
 38 31  1  0  0  0
 31  1  1  0  0  0
  1  2  1  0  0  0
  2  3  1  0  0  0
  3  4  1  0  0  0
  4  5  1  0  0  0
  5  6  1  0  0  0
  4  7  1  0  0  0
  7  8  1  0  0  0
  8  9  2  0  0  0
  8 10  1  0  0  0
 10 11  1  0  0  0
 11 12  2  0  0  0
 10 13  1  0  0  0
 13 14  2  0  0  0
 14 15  1  0  0  0
 15 16  2  0  0  0
 16 17  1  0  0  0
 17 18  2  0  0  0
 16 19  1  0  0  0
 19 20  3  0  0  0
  7 21  1  0  0  0
 21 22  2  0  0  0
 22 23  1  0  0  0
 23 24  2  0  0  0
 24 25  1  0  0  0
 25 26  2  0  0  0
 24 27  1  0  0  0
 27 28  1  0  0  0
 27 29  2  0  0  0
 38 33  1  0  0  0
  6  1  1  0  0  0
 18 13  1  0  0  0
 26 21  1  0  0  0
 11  4  1  0  0  0
 28 30  1  0  0  0
M  END
> <minimizedAffinity>
16.50724

> <CNNscore>
0.6312346458

> <CNNaffinity>
7.9504036903

> <CNN_VS>
5.0185704231

> <CNNaffinity_variance>
1.0033136606

$$$$
[H]OC(=O)c1c([H])c([H])c(N2C(=O)N(c3c([H])c([H])c(C#N)c([H])c3[H])C(=O)C23C([H])([H])C([H])([H])N(C([H])([H])c2nc([H])c([H])c([H])c2C([H])([H])[H])C([H])([H])C3([H])[H])c([H])c1[H]


 38 42  0  0  0  0  0  0  0  0999 V2000
   12.1191   21.9184   -0.7940 N   0  0  0  0  0  0  0  0  0  0  0  0
   12.0388   22.7695   -1.8665 C   0  0  0  0  0  0  0  0  0  0  0  0
   12.8993   24.0227   -1.7054 C   0  0  0  0  0  0  0  0  0  0  0  0
   14.3058   23.7181   -1.4593 C   0  0  0  0  0  0  0  0  0  0  0  0
   14.5123   22.2715   -1.0773 C   0  0  0  0  0  0  0  0  0  0  0  0
   13.4107   21.8943   -0.1445 C   0  0  0  0  0  0  0  0  0  0  0  0
   15.2656   24.2005   -2.4208 N   0  0  0  0  0  0  0  0  0  0  0  0
   16.5279   24.0125   -1.6889 C   0  0  0  0  0  0  0  0  0  0  0  0
   17.6278   23.7506   -2.1963 O   0  0  0  0  0  0  0  0  0  0  0  0
   16.2648   24.1950   -0.2951 N   0  0  0  0  0  0  0  0  0  0  0  0
   14.8371   24.4758   -0.2254 C   0  0  0  0  0  0  0  0  0  0  0  0
   14.2584   25.1286    0.5964 O   0  0  0  0  0  0  0  0  0  0  0  0
   17.1842   24.1327    0.7815 C   0  0  0  0  0  0  0  0  0  0  0  0
   17.1318   23.1141    1.7257 C   0  0  0  0  0  0  0  0  0  0  0  0
   18.0483   23.0900    2.8080 C   0  0  0  0  0  0  0  0  0  0  0  0
   18.9956   24.0731    2.9380 C   0  0  0  0  0  0  0  0  0  0  0  0
   19.0359   25.0634    2.0068 C   0  0  0  0  0  0  0  0  0  0  0  0
   18.1391   25.0911    0.9485 C   0  0  0  0  0  0  0  0  0  0  0  0
   19.9199   24.1007    4.0422 C   0  0  0  0  0  0  0  0  0  0  0  0
   20.6403   24.1175    4.9456 N   0  0  0  0  0  0  0  0  0  0  0  0
   15.2520   24.7371   -3.6814 C   0  0  0  0  0  0  0  0  0  0  0  0
   14.8748   26.0190   -4.0333 C   0  0  0  0  0  0  0  0  0  0  0  0
   14.8602   26.5472   -5.2916 C   0  0  0  0  0  0  0  0  0  0  0  0
   15.2609   25.7309   -6.3525 C   0  0  0  0  0  0  0  0  0  0  0  0
   15.6453   24.4614   -6.0390 C   0  0  0  0  0  0  0  0  0  0  0  0
   15.6639   23.9254   -4.7983 C   0  0  0  0  0  0  0  0  0  0  0  0
   15.2477   26.2376   -7.7030 C   0  0  0  0  0  0  0  0  0  0  0  0
   14.6488   25.4931   -8.7358 O   0  0  0  0  0  0  0  0  0  0  0  0
   15.7574   27.3333   -8.0083 O   0  0  0  0  0  0  0  0  0  0  0  0
   15.0941   24.5659   -8.8826 H   0  0  0  0  0  0  0  0  0  0  0  0
   11.0535   21.6479    0.0334 C   0  0  0  0  0  0  0  0  0  0  0  0
   10.5387   23.7587    1.8658 C   0  0  0  0  0  0  0  0  0  0  0  0
   10.8236   22.4047    2.3575 C   0  0  0  0  0  0  0  0  0  0  0  0
   10.8201   22.0720    3.7385 C   0  0  0  0  0  0  0  0  0  0  0  0
   11.1881   20.8181    4.1087 C   0  0  0  0  0  0  0  0  0  0  0  0
   11.5655   19.8522    3.2411 C   0  0  0  0  0  0  0  0  0  0  0  0
   11.5626   20.1896    1.9205 N   0  0  0  0  0  0  0  0  0  0  0  0
   11.1975   21.4422    1.4772 C   0  0  0  0  0  0  0  0  0  0  0  0
 32 33  1  0  0  0
 33 34  2  0  0  0
 34 35  1  0  0  0
 35 36  2  0  0  0
 36 37  1  0  0  0
 37 38  2  0  0  0
 38 31  1  0  0  0
 31  1  1  0  0  0
  1  2  1  0  0  0
  2  3  1  0  0  0
  3  4  1  0  0  0
  4  5  1  0  0  0
  5  6  1  0  0  0
  4  7  1  0  0  0
  7  8  1  0  0  0
  8  9  2  0  0  0
  8 10  1  0  0  0
 10 11  1  0  0  0
 11 12  2  0  0  0
 10 13  1  0  0  0
 13 14  2  0  0  0
 14 15  1  0  0  0
 15 16  2  0  0  0
 16 17  1  0  0  0
 17 18  2  0  0  0
 16 19  1  0  0  0
 19 20  3  0  0  0
  7 21  1  0  0  0
 21 22  2  0  0  0
 22 23  1  0  0  0
 23 24  2  0  0  0
 24 25  1  0  0  0
 25 26  2  0  0  0
 24 27  1  0  0  0
 27 28  1  0  0  0
 27 29  2  0  0  0
 38 33  1  0  0  0
  6  1  1  0  0  0
 18 13  1  0  0  0
 26 21  1  0  0  0
 11  4  1  0  0  0
 28 30  1  0  0  0
M  END
> <minimizedAffinity>
16.80662

> <CNNscore>
0.6174035072

> <CNNaffinity>
8.0145874023

> <CNN_VS>
4.9482345581

> <CNNaffinity_variance>
0.8885774612

$$$$
[H]OC(=O)c1c([H])c([H])c(N2C(=O)N(c3c([H])c([H])c(C#N)c([H])c3[H])C(=O)C23C([H])([H])C([H])([H])N(C([H])([H])c2nc([H])c([H])c([H])c2C([H])([H])[H])C([H])([H])C3([H])[H])c([H])c1[H]


 38 42  0  0  0  0  0  0  0  0999 V2000
   11.0577   22.4635   -1.6598 N   0  0  0  0  0  0  0  0  0  0  0  0
   10.4316   23.6551   -1.9227 C   0  0  0  0  0  0  0  0  0  0  0  0
   11.1603   24.8610   -1.3297 C   0  0  0  0  0  0  0  0  0  0  0  0
   12.5485   24.9592   -1.7713 C   0  0  0  0  0  0  0  0  0  0  0  0
   13.0293   23.6791   -2.4131 C   0  0  0  0  0  0  0  0  0  0  0  0
   12.5001   22.5457   -1.5999 C   0  0  0  0  0  0  0  0  0  0  0  0
   12.9295   26.1441   -2.4986 N   0  0  0  0  0  0  0  0  0  0  0  0
   14.3970   26.0444   -2.4659 C   0  0  0  0  0  0  0  0  0  0  0  0
   15.1709   26.4530   -3.3434 O   0  0  0  0  0  0  0  0  0  0  0  0
   14.7717   25.4047   -1.2430 N   0  0  0  0  0  0  0  0  0  0  0  0
   13.5083   25.1223   -0.5751 C   0  0  0  0  0  0  0  0  0  0  0  0
   13.3050   25.0410    0.6033 O   0  0  0  0  0  0  0  0  0  0  0  0
   16.0777   25.1193   -0.7725 C   0  0  0  0  0  0  0  0  0  0  0  0
   17.1800   25.1541   -1.6183 C   0  0  0  0  0  0  0  0  0  0  0  0
   18.4727   24.8391   -1.1268 C   0  0  0  0  0  0  0  0  0  0  0  0
   18.6506   24.4933    0.1883 C   0  0  0  0  0  0  0  0  0  0  0  0
   17.5635   24.4639    1.0048 C   0  0  0  0  0  0  0  0  0  0  0  0
   16.2974   24.7690    0.5265 C   0  0  0  0  0  0  0  0  0  0  0  0
   19.9422   24.1337    0.7146 C   0  0  0  0  0  0  0  0  0  0  0  0
   20.9666   23.8234    1.1501 N   0  0  0  0  0  0  0  0  0  0  0  0
   12.3058   27.2006   -3.1086 C   0  0  0  0  0  0  0  0  0  0  0  0
   11.6208   27.1792   -4.3085 C   0  0  0  0  0  0  0  0  0  0  0  0
   11.0041   28.2359   -4.9131 C   0  0  0  0  0  0  0  0  0  0  0  0
   11.0556   29.4793   -4.2778 C   0  0  0  0  0  0  0  0  0  0  0  0
   11.7190   29.5339   -3.0885 C   0  0  0  0  0  0  0  0  0  0  0  0
   12.3345   28.4963   -2.4790 C   0  0  0  0  0  0  0  0  0  0  0  0
   10.4331   30.6304   -4.8845 C   0  0  0  0  0  0  0  0  0  0  0  0
    9.2480   30.4878   -5.6295 O   0  0  0  0  0  0  0  0  0  0  0  0
   10.9088   31.7777   -4.7796 O   0  0  0  0  0  0  0  0  0  0  0  0
    9.3573   29.8695   -6.4573 H   0  0  0  0  0  0  0  0  0  0  0  0
   10.5040   21.4801   -0.8726 C   0  0  0  0  0  0  0  0  0  0  0  0
    8.7177   20.2117   -2.6833 C   0  0  0  0  0  0  0  0  0  0  0  0
    8.2375   20.6836   -1.3783 C   0  0  0  0  0  0  0  0  0  0  0  0
    6.8979   20.5035   -0.9414 C   0  0  0  0  0  0  0  0  0  0  0  0
    6.5167   21.0558    0.2394 C   0  0  0  0  0  0  0  0  0  0  0  0
    7.3353   21.7777    1.0374 C   0  0  0  0  0  0  0  0  0  0  0  0
    8.6168   21.9399    0.6020 N   0  0  0  0  0  0  0  0  0  0  0  0
    9.0691   21.4037   -0.5840 C   0  0  0  0  0  0  0  0  0  0  0  0
 32 33  1  0  0  0
 33 34  2  0  0  0
 34 35  1  0  0  0
 35 36  2  0  0  0
 36 37  1  0  0  0
 37 38  2  0  0  0
 38 31  1  0  0  0
 31  1  1  0  0  0
  1  2  1  0  0  0
  2  3  1  0  0  0
  3  4  1  0  0  0
  4  5  1  0  0  0
  5  6  1  0  0  0
  4  7  1  0  0  0
  7  8  1  0  0  0
  8  9  2  0  0  0
  8 10  1  0  0  0
 10 11  1  0  0  0
 11 12  2  0  0  0
 10 13  1  0  0  0
 13 14  2  0  0  0
 14 15  1  0  0  0
 15 16  2  0  0  0
 16 17  1  0  0  0
 17 18  2  0  0  0
 16 19  1  0  0  0
 19 20  3  0  0  0
  7 21  1  0  0  0
 21 22  2  0  0  0
 22 23  1  0  0  0
 23 24  2  0  0  0
 24 25  1  0  0  0
 25 26  2  0  0  0
 24 27  1  0  0  0
 27 28  1  0  0  0
 27 29  2  0  0  0
 38 33  1  0  0  0
  6  1  1  0  0  0
 18 13  1  0  0  0
 26 21  1  0  0  0
 11  4  1  0  0  0
 28 30  1  0  0  0
M  END
> <minimizedAffinity>
26.55161

> <CNNscore>
0.6106147766

> <CNNaffinity>
7.3144593239

> <CNN_VS>
4.4663171768

> <CNNaffinity_variance>
1.2256910801

$$$$
[H]OC(=O)c1c([H])c([H])c(N2C(=O)N(c3c([H])c([H])c(C#N)c([H])c3[H])C(=O)C23C([H])([H])C([H])([H])N(C([H])([H])c2nc([H])c([H])c([H])c2C([H])([H])[H])C([H])([H])C3([H])[H])c([H])c1[H]


 38 42  0  0  0  0  0  0  0  0999 V2000
   12.1420   25.7085   -2.1784 N   0  0  0  0  0  0  0  0  0  0  0  0
   10.9425   25.1525   -1.8134 C   0  0  0  0  0  0  0  0  0  0  0  0
   11.0340   23.6513   -1.5400 C   0  0  0  0  0  0  0  0  0  0  0  0
   12.0278   23.3186   -0.5235 C   0  0  0  0  0  0  0  0  0  0  0  0
   12.9590   24.4745   -0.2439 C   0  0  0  0  0  0  0  0  0  0  0  0
   13.2971   25.1026   -1.5543 C   0  0  0  0  0  0  0  0  0  0  0  0
   11.5593   22.6576    0.6689 N   0  0  0  0  0  0  0  0  0  0  0  0
   12.8250   22.1974    1.2609 C   0  0  0  0  0  0  0  0  0  0  0  0
   13.0562   22.0747    2.4723 O   0  0  0  0  0  0  0  0  0  0  0  0
   13.7343   21.9077    0.1958 N   0  0  0  0  0  0  0  0  0  0  0  0
   12.9891   22.2179   -1.0167 C   0  0  0  0  0  0  0  0  0  0  0  0
   13.1193   21.7267   -2.1023 O   0  0  0  0  0  0  0  0  0  0  0  0
   15.0597   21.4150    0.2903 C   0  0  0  0  0  0  0  0  0  0  0  0
   16.0601   22.1351    0.9327 C   0  0  0  0  0  0  0  0  0  0  0  0
   17.3844   21.6304    0.9904 C   0  0  0  0  0  0  0  0  0  0  0  0
   17.6950   20.4271    0.4104 C   0  0  0  0  0  0  0  0  0  0  0  0
   16.7064   19.7328   -0.2143 C   0  0  0  0  0  0  0  0  0  0  0  0
   15.4107   20.2251   -0.2746 C   0  0  0  0  0  0  0  0  0  0  0  0
   19.0352   19.8995    0.4188 C   0  0  0  0  0  0  0  0  0  0  0  0
   20.1025   19.4569    0.4068 N   0  0  0  0  0  0  0  0  0  0  0  0
   10.3580   22.3891    1.2708 C   0  0  0  0  0  0  0  0  0  0  0  0
    9.4917   21.3556    0.9692 C   0  0  0  0  0  0  0  0  0  0  0  0
    8.2945   21.0950    1.5702 C   0  0  0  0  0  0  0  0  0  0  0  0
    7.8751   21.9443    2.5974 C   0  0  0  0  0  0  0  0  0  0  0  0
    8.7097   22.9712    2.9240 C   0  0  0  0  0  0  0  0  0  0  0  0
    9.8970   23.2413    2.3371 C   0  0  0  0  0  0  0  0  0  0  0  0
    6.6099   21.7205    3.2529 C   0  0  0  0  0  0  0  0  0  0  0  0
    5.9985   20.4541    3.2048 O   0  0  0  0  0  0  0  0  0  0  0  0
    6.0140   22.6207    3.8758 O   0  0  0  0  0  0  0  0  0  0  0  0
    5.7719   20.1459    2.2388 H   0  0  0  0  0  0  0  0  0  0  0  0
   12.3753   26.2436   -3.4244 C   0  0  0  0  0  0  0  0  0  0  0  0
   14.2694   24.1787   -3.9007 C   0  0  0  0  0  0  0  0  0  0  0  0
   14.5764   25.5653   -4.2742 C   0  0  0  0  0  0  0  0  0  0  0  0
   15.7888   25.9386   -4.9133 C   0  0  0  0  0  0  0  0  0  0  0  0
   16.0302   27.2564   -5.1363 C   0  0  0  0  0  0  0  0  0  0  0  0
   15.1852   28.2515   -4.7842 C   0  0  0  0  0  0  0  0  0  0  0  0
   14.0271   27.8743   -4.1723 N   0  0  0  0  0  0  0  0  0  0  0  0
   13.7190   26.5553   -3.9193 C   0  0  0  0  0  0  0  0  0  0  0  0
 32 33  1  0  0  0
 33 34  2  0  0  0
 34 35  1  0  0  0
 35 36  2  0  0  0
 36 37  1  0  0  0
 37 38  2  0  0  0
 38 31  1  0  0  0
 31  1  1  0  0  0
  1  2  1  0  0  0
  2  3  1  0  0  0
  3  4  1  0  0  0
  4  5  1  0  0  0
  5  6  1  0  0  0
  4  7  1  0  0  0
  7  8  1  0  0  0
  8  9  2  0  0  0
  8 10  1  0  0  0
 10 11  1  0  0  0
 11 12  2  0  0  0
 10 13  1  0  0  0
 13 14  2  0  0  0
 14 15  1  0  0  0
 15 16  2  0  0  0
 16 17  1  0  0  0
 17 18  2  0  0  0
 16 19  1  0  0  0
 19 20  3  0  0  0
  7 21  1  0  0  0
 21 22  2  0  0  0
 22 23  1  0  0  0
 23 24  2  0  0  0
 24 25  1  0  0  0
 25 26  2  0  0  0
 24 27  1  0  0  0
 27 28  1  0  0  0
 27 29  2  0  0  0
 38 33  1  0  0  0
  6  1  1  0  0  0
 18 13  1  0  0  0
 26 21  1  0  0  0
 11  4  1  0  0  0
 28 30  1  0  0  0
M  END
> <minimizedAffinity>
13.88139

> <CNNscore>
0.5819469690

> <CNNaffinity>
7.5994176865

> <CNN_VS>
4.4224581718

> <CNNaffinity_variance>
0.4373284280

$$$$
[H]OC(=O)c1c([H])c([H])c(N2C(=O)N(c3c([H])c([H])c(C#N)c([H])c3[H])C(=O)C23C([H])([H])C([H])([H])N(C([H])([H])c2nc([H])c([H])c([H])c2C([H])([H])[H])C([H])([H])C3([H])[H])c([H])c1[H]


 38 42  0  0  0  0  0  0  0  0999 V2000
   10.0721   23.7504   -0.9658 N   0  0  0  0  0  0  0  0  0  0  0  0
   10.5067   24.6296   -1.9246 C   0  0  0  0  0  0  0  0  0  0  0  0
   11.9200   25.1514   -1.6658 C   0  0  0  0  0  0  0  0  0  0  0  0
   12.9055   24.0819   -1.5364 C   0  0  0  0  0  0  0  0  0  0  0  0
   12.2537   22.7336   -1.3393 C   0  0  0  0  0  0  0  0  0  0  0  0
   11.1125   22.9228   -0.3970 C   0  0  0  0  0  0  0  0  0  0  0  0
   13.9892   24.0619   -2.4868 N   0  0  0  0  0  0  0  0  0  0  0  0
   14.9115   23.1061   -1.8540 C   0  0  0  0  0  0  0  0  0  0  0  0
   15.6828   22.3405   -2.4496 O   0  0  0  0  0  0  0  0  0  0  0  0
   14.7689   23.2236   -0.4359 N   0  0  0  0  0  0  0  0  0  0  0  0
   13.7463   24.2449   -0.2538 C   0  0  0  0  0  0  0  0  0  0  0  0
   13.6194   24.9976    0.6703 O   0  0  0  0  0  0  0  0  0  0  0  0
   15.4718   22.5186    0.5727 C   0  0  0  0  0  0  0  0  0  0  0  0
   15.1311   21.2176    0.9237 C   0  0  0  0  0  0  0  0  0  0  0  0
   15.8348   20.5440    1.9546 C   0  0  0  0  0  0  0  0  0  0  0  0
   16.8581   21.1691    2.6202 C   0  0  0  0  0  0  0  0  0  0  0  0
   17.1812   22.4418    2.2663 C   0  0  0  0  0  0  0  0  0  0  0  0
   16.4931   23.1042    1.2599 C   0  0  0  0  0  0  0  0  0  0  0  0
   17.5719   20.5296    3.6954 C   0  0  0  0  0  0  0  0  0  0  0  0
   18.1636   20.0372    4.5572 N   0  0  0  0  0  0  0  0  0  0  0  0
   14.3056   24.6707   -3.6729 C   0  0  0  0  0  0  0  0  0  0  0  0
   13.7843   25.8526   -4.1636 C   0  0  0  0  0  0  0  0  0  0  0  0
   14.1010   26.4527   -5.3477 C   0  0  0  0  0  0  0  0  0  0  0  0
   15.0443   25.8302   -6.1693 C   0  0  0  0  0  0  0  0  0  0  0  0
   15.5829   24.6648   -5.7118 C   0  0  0  0  0  0  0  0  0  0  0  0
   15.2783   24.0593   -4.5424 C   0  0  0  0  0  0  0  0  0  0  0  0
   15.4008   26.4165   -7.4381 C   0  0  0  0  0  0  0  0  0  0  0  0
   14.5604   26.2585   -8.5555 O   0  0  0  0  0  0  0  0  0  0  0  0
   16.4480   27.0733   -7.5976 O   0  0  0  0  0  0  0  0  0  0  0  0
   14.4304   25.2655   -8.8321 H   0  0  0  0  0  0  0  0  0  0  0  0
    9.0229   24.0203   -0.1175 C   0  0  0  0  0  0  0  0  0  0  0  0
    7.7682   21.5952    0.6718 C   0  0  0  0  0  0  0  0  0  0  0  0
    8.5285   22.3868    1.6473 C   0  0  0  0  0  0  0  0  0  0  0  0
    8.7087   21.9777    2.9956 C   0  0  0  0  0  0  0  0  0  0  0  0
    9.3449   22.8174    3.8529 C   0  0  0  0  0  0  0  0  0  0  0  0
    9.8226   24.0340    3.5069 C   0  0  0  0  0  0  0  0  0  0  0  0
    9.6406   24.4094    2.2093 N   0  0  0  0  0  0  0  0  0  0  0  0
    9.0067   23.6046    1.2877 C   0  0  0  0  0  0  0  0  0  0  0  0
 32 33  1  0  0  0
 33 34  2  0  0  0
 34 35  1  0  0  0
 35 36  2  0  0  0
 36 37  1  0  0  0
 37 38  2  0  0  0
 38 31  1  0  0  0
 31  1  1  0  0  0
  1  2  1  0  0  0
  2  3  1  0  0  0
  3  4  1  0  0  0
  4  5  1  0  0  0
  5  6  1  0  0  0
  4  7  1  0  0  0
  7  8  1  0  0  0
  8  9  2  0  0  0
  8 10  1  0  0  0
 10 11  1  0  0  0
 11 12  2  0  0  0
 10 13  1  0  0  0
 13 14  2  0  0  0
 14 15  1  0  0  0
 15 16  2  0  0  0
 16 17  1  0  0  0
 17 18  2  0  0  0
 16 19  1  0  0  0
 19 20  3  0  0  0
  7 21  1  0  0  0
 21 22  2  0  0  0
 22 23  1  0  0  0
 23 24  2  0  0  0
 24 25  1  0  0  0
 25 26  2  0  0  0
 24 27  1  0  0  0
 27 28  1  0  0  0
 27 29  2  0  0  0
 38 33  1  0  0  0
  6  1  1  0  0  0
 18 13  1  0  0  0
 26 21  1  0  0  0
 11  4  1  0  0  0
 28 30  1  0  0  0
M  END
> <minimizedAffinity>
15.92926

> <CNNscore>
0.5715023875

> <CNNaffinity>
7.6167297363

> <CNN_VS>
4.3529791832

> <CNNaffinity_variance>
0.9663422704

$$$$
[H]OC(=O)c1c([H])c([H])c(N2C(=O)N(c3c([H])c([H])c(C#N)c([H])c3[H])C(=O)C23C([H])([H])C([H])([H])N(C([H])([H])c2nc([H])c([H])c([H])c2C([H])([H])[H])C([H])([H])C3([H])[H])c([H])c1[H]


 38 42  0  0  0  0  0  0  0  0999 V2000
   16.3661   24.4943    0.7156 N   0  0  0  0  0  0  0  0  0  0  0  0
   16.7687   24.5972   -0.5915 C   0  0  0  0  0  0  0  0  0  0  0  0
   15.8750   23.8210   -1.5589 C   0  0  0  0  0  0  0  0  0  0  0  0
   14.4712   24.2129   -1.4738 C   0  0  0  0  0  0  0  0  0  0  0  0
   14.1843   25.0210   -0.2304 C   0  0  0  0  0  0  0  0  0  0  0  0
   14.9350   24.3911    0.8946 C   0  0  0  0  0  0  0  0  0  0  0  0
   13.8617   24.7537   -2.6630 N   0  0  0  0  0  0  0  0  0  0  0  0
   12.4354   24.7030   -2.3059 C   0  0  0  0  0  0  0  0  0  0  0  0
   11.5634   25.4952   -2.6904 O   0  0  0  0  0  0  0  0  0  0  0  0
   12.2318   23.5766   -1.4486 N   0  0  0  0  0  0  0  0  0  0  0  0
   13.5545   22.9846   -1.3012 C   0  0  0  0  0  0  0  0  0  0  0  0
   13.8235   21.8349   -1.0951 O   0  0  0  0  0  0  0  0  0  0  0  0
   11.0163   23.1230   -0.8783 C   0  0  0  0  0  0  0  0  0  0  0  0
   10.4943   21.8702   -1.1782 C   0  0  0  0  0  0  0  0  0  0  0  0
    9.2627   21.4512   -0.6132 C   0  0  0  0  0  0  0  0  0  0  0  0
    8.5699   22.2782    0.2336 C   0  0  0  0  0  0  0  0  0  0  0  0
    9.0925   23.5009    0.5188 C   0  0  0  0  0  0  0  0  0  0  0  0
   10.2958   23.9146   -0.0343 C   0  0  0  0  0  0  0  0  0  0  0  0
    7.2999   21.9009    0.7986 C   0  0  0  0  0  0  0  0  0  0  0  0
    6.2893   21.6085    1.2767 N   0  0  0  0  0  0  0  0  0  0  0  0
   14.2686   25.2194   -3.8857 C   0  0  0  0  0  0  0  0  0  0  0  0
   13.8761   26.3941   -4.4985 C   0  0  0  0  0  0  0  0  0  0  0  0
   14.2824   26.8514   -5.7184 C   0  0  0  0  0  0  0  0  0  0  0  0
   15.1859   26.0722   -6.4457 C   0  0  0  0  0  0  0  0  0  0  0  0
   15.5981   24.9092   -5.8669 C   0  0  0  0  0  0  0  0  0  0  0  0
   15.2037   24.4441   -4.6606 C   0  0  0  0  0  0  0  0  0  0  0  0
   15.6330   26.5044   -7.7473 C   0  0  0  0  0  0  0  0  0  0  0  0
   15.4419   25.6830   -8.8736 O   0  0  0  0  0  0  0  0  0  0  0  0
   16.1983   27.6005   -7.9273 O   0  0  0  0  0  0  0  0  0  0  0  0
   15.9259   24.7667   -8.7983 H   0  0  0  0  0  0  0  0  0  0  0  0
   17.1143   23.8690    1.6864 C   0  0  0  0  0  0  0  0  0  0  0  0
   18.8653   23.4183   -0.5066 C   0  0  0  0  0  0  0  0  0  0  0  0
   19.3806   23.9790    0.7489 C   0  0  0  0  0  0  0  0  0  0  0  0
   20.7396   24.3546    0.9222 C   0  0  0  0  0  0  0  0  0  0  0  0
   21.1494   24.7753    2.1469 C   0  0  0  0  0  0  0  0  0  0  0  0
   20.3421   24.8596    3.2282 C   0  0  0  0  0  0  0  0  0  0  0  0
   19.0418   24.4951    3.0429 N   0  0  0  0  0  0  0  0  0  0  0  0
   18.5603   24.0625    1.8265 C   0  0  0  0  0  0  0  0  0  0  0  0
 32 33  1  0  0  0
 33 34  2  0  0  0
 34 35  1  0  0  0
 35 36  2  0  0  0
 36 37  1  0  0  0
 37 38  2  0  0  0
 38 31  1  0  0  0
 31  1  1  0  0  0
  1  2  1  0  0  0
  2  3  1  0  0  0
  3  4  1  0  0  0
  4  5  1  0  0  0
  5  6  1  0  0  0
  4  7  1  0  0  0
  7  8  1  0  0  0
  8  9  2  0  0  0
  8 10  1  0  0  0
 10 11  1  0  0  0
 11 12  2  0  0  0
 10 13  1  0  0  0
 13 14  2  0  0  0
 14 15  1  0  0  0
 15 16  2  0  0  0
 16 17  1  0  0  0
 17 18  2  0  0  0
 16 19  1  0  0  0
 19 20  3  0  0  0
  7 21  1  0  0  0
 21 22  2  0  0  0
 22 23  1  0  0  0
 23 24  2  0  0  0
 24 25  1  0  0  0
 25 26  2  0  0  0
 24 27  1  0  0  0
 27 28  1  0  0  0
 27 29  2  0  0  0
 38 33  1  0  0  0
  6  1  1  0  0  0
 18 13  1  0  0  0
 26 21  1  0  0  0
 11  4  1  0  0  0
 28 30  1  0  0  0
M  END
> <minimizedAffinity>
14.57627

> <CNNscore>
0.5669038296

> <CNNaffinity>
7.7494416237

> <CNN_VS>
4.3931879997

> <CNNaffinity_variance>
0.5480564833

$$$$
[H]OC(=O)c1c([H])c([H])c(N2C(=O)N(c3c([H])c([H])c(C#N)c([H])c3[H])C(=O)C23C([H])([H])C([H])([H])N(C([H])([H])c2nc([H])c([H])c([H])c2C([H])([H])[H])C([H])([H])C3([H])[H])c([H])c1[H]


 38 42  0  0  0  0  0  0  0  0999 V2000
   10.1130   23.7900   -1.1340 N   0  0  0  0  0  0  0  0  0  0  0  0
   10.5657   24.6827   -2.0718 C   0  0  0  0  0  0  0  0  0  0  0  0
   11.9762   25.1959   -1.7819 C   0  0  0  0  0  0  0  0  0  0  0  0
   12.9563   24.1213   -1.6534 C   0  0  0  0  0  0  0  0  0  0  0  0
   12.2974   22.7722   -1.4880 C   0  0  0  0  0  0  0  0  0  0  0  0
   11.1416   22.9503   -0.5615 C   0  0  0  0  0  0  0  0  0  0  0  0
   14.0552   24.1128   -2.5863 N   0  0  0  0  0  0  0  0  0  0  0  0
   14.9643   23.1443   -1.9538 C   0  0  0  0  0  0  0  0  0  0  0  0
   15.7429   22.3856   -2.5487 O   0  0  0  0  0  0  0  0  0  0  0  0
   14.7991   23.2400   -0.5365 N   0  0  0  0  0  0  0  0  0  0  0  0
   13.7767   24.2616   -0.3549 C   0  0  0  0  0  0  0  0  0  0  0  0
   13.6369   25.0002    0.5786 O   0  0  0  0  0  0  0  0  0  0  0  0
   15.4834   22.5171    0.4722 C   0  0  0  0  0  0  0  0  0  0  0  0
   15.1640   21.1965    0.7654 C   0  0  0  0  0  0  0  0  0  0  0  0
   15.8476   20.5043    1.7975 C   0  0  0  0  0  0  0  0  0  0  0  0
   16.8301   21.1302    2.5212 C   0  0  0  0  0  0  0  0  0  0  0  0
   17.1328   22.4222    2.2234 C   0  0  0  0  0  0  0  0  0  0  0  0
   16.4642   23.1028    1.2160 C   0  0  0  0  0  0  0  0  0  0  0  0
   17.5214   20.4707    3.5989 C   0  0  0  0  0  0  0  0  0  0  0  0
   18.0513   19.9335    4.4741 N   0  0  0  0  0  0  0  0  0  0  0  0
   14.3926   24.7390   -3.7575 C   0  0  0  0  0  0  0  0  0  0  0  0
   13.9017   25.9428   -4.2257 C   0  0  0  0  0  0  0  0  0  0  0  0
   14.2391   26.5603   -5.3950 C   0  0  0  0  0  0  0  0  0  0  0  0
   15.1726   25.9336   -6.2246 C   0  0  0  0  0  0  0  0  0  0  0  0
   15.6813   24.7465   -5.7892 C   0  0  0  0  0  0  0  0  0  0  0  0
   15.3559   24.1237   -4.6346 C   0  0  0  0  0  0  0  0  0  0  0  0
   15.5500   26.5382   -7.4787 C   0  0  0  0  0  0  0  0  0  0  0  0
   15.3034   25.8706   -8.6925 O   0  0  0  0  0  0  0  0  0  0  0  0
   16.1016   27.6541   -7.5408 O   0  0  0  0  0  0  0  0  0  0  0  0
   15.7938   24.9574   -8.7638 H   0  0  0  0  0  0  0  0  0  0  0  0
    9.0510   24.0499   -0.2986 C   0  0  0  0  0  0  0  0  0  0  0  0
    9.9468   24.9118    2.2573 C   0  0  0  0  0  0  0  0  0  0  0  0
    9.0779   23.7342    2.1359 C   0  0  0  0  0  0  0  0  0  0  0  0
    8.6156   23.0008    3.2612 C   0  0  0  0  0  0  0  0  0  0  0  0
    7.8942   21.8694    3.0513 C   0  0  0  0  0  0  0  0  0  0  0  0
    7.5840   21.3848    1.8278 C   0  0  0  0  0  0  0  0  0  0  0  0
    8.0358   22.1017    0.7602 N   0  0  0  0  0  0  0  0  0  0  0  0
    8.7697   23.2592    0.9028 C   0  0  0  0  0  0  0  0  0  0  0  0
 32 33  1  0  0  0
 33 34  2  0  0  0
 34 35  1  0  0  0
 35 36  2  0  0  0
 36 37  1  0  0  0
 37 38  2  0  0  0
 38 31  1  0  0  0
 31  1  1  0  0  0
  1  2  1  0  0  0
  2  3  1  0  0  0
  3  4  1  0  0  0
  4  5  1  0  0  0
  5  6  1  0  0  0
  4  7  1  0  0  0
  7  8  1  0  0  0
  8  9  2  0  0  0
  8 10  1  0  0  0
 10 11  1  0  0  0
 11 12  2  0  0  0
 10 13  1  0  0  0
 13 14  2  0  0  0
 14 15  1  0  0  0
 15 16  2  0  0  0
 16 17  1  0  0  0
 17 18  2  0  0  0
 16 19  1  0  0  0
 19 20  3  0  0  0
  7 21  1  0  0  0
 21 22  2  0  0  0
 22 23  1  0  0  0
 23 24  2  0  0  0
 24 25  1  0  0  0
 25 26  2  0  0  0
 24 27  1  0  0  0
 27 28  1  0  0  0
 27 29  2  0  0  0
 38 33  1  0  0  0
  6  1  1  0  0  0
 18 13  1  0  0  0
 26 21  1  0  0  0
 11  4  1  0  0  0
 28 30  1  0  0  0
M  END
> <minimizedAffinity>
14.31355

> <CNNscore>
0.5586677194

> <CNNaffinity>
7.6550989151

> <CNN_VS>
4.2766566277

> <CNNaffinity_variance>
1.0191355944

$$$$
[H]c1nc(C([H])([H])N2C([H])([H])C([H])([H])C3(C(=O)N(c4c([H])c([H])c(C#N)c([H])c4[H])C(=O)N3c3nc([H])n([H])c(=O)c3[H])C([H])([H])C2([H])[H])c(C([H])([H])[H])c([H])c1[H]


 36 40  0  0  0  0  0  0  0  0999 V2000
   11.1912   24.2505   -1.1204 N   0  0  0  0  0  0  0  0  0  0  0  0
   11.8500   22.9581   -1.3550 C   0  0  0  0  0  0  0  0  0  0  0  0
   13.3270   23.0437   -1.1585 C   0  0  0  0  0  0  0  0  0  0  0  0
   13.9034   24.4049   -1.4600 C   0  0  0  0  0  0  0  0  0  0  0  0
   13.1736   25.5299   -0.7506 C   0  0  0  0  0  0  0  0  0  0  0  0
   11.9767   24.8976   -0.0742 C   0  0  0  0  0  0  0  0  0  0  0  0
   15.2890   24.4465   -1.0545 N   0  0  0  0  0  0  0  0  0  0  0  0
   15.9203   25.3629   -1.9537 C   0  0  0  0  0  0  0  0  0  0  0  0
   17.0376   25.9393   -1.7321 O   0  0  0  0  0  0  0  0  0  0  0  0
   15.1162   25.5297   -3.1223 N   0  0  0  0  0  0  0  0  0  0  0  0
   13.9776   24.6882   -2.9074 C   0  0  0  0  0  0  0  0  0  0  0  0
   13.2012   24.2797   -3.7965 O   0  0  0  0  0  0  0  0  0  0  0  0
   15.9517   23.7531    0.0012 C   0  0  0  0  0  0  0  0  0  0  0  0
   17.0954   24.2729    0.5902 C   0  0  0  0  0  0  0  0  0  0  0  0
   17.7299   23.5950    1.6117 C   0  0  0  0  0  0  0  0  0  0  0  0
   18.7800   24.0525    2.1671 O   0  0  0  0  0  0  0  0  0  0  0  0
   17.2658   22.4077    2.0742 N   0  0  0  0  0  0  0  0  0  0  0  0
   16.1559   21.9253    1.4867 C   0  0  0  0  0  0  0  0  0  0  0  0
   15.5234   22.5736    0.4884 N   0  0  0  0  0  0  0  0  0  0  0  0
   17.7459   21.8848    2.8553 H   0  0  0  0  0  0  0  0  0  0  0  0
   15.4012   26.3551   -4.2435 C   0  0  0  0  0  0  0  0  0  0  0  0
   15.1722   25.9715   -5.5322 C   0  0  0  0  0  0  0  0  0  0  0  0
   15.4711   26.8210   -6.5808 C   0  0  0  0  0  0  0  0  0  0  0  0
   16.0120   28.0869   -6.3526 C   0  0  0  0  0  0  0  0  0  0  0  0
   16.2410   28.4701   -5.0564 C   0  0  0  0  0  0  0  0  0  0  0  0
   15.9428   27.6245   -4.0255 C   0  0  0  0  0  0  0  0  0  0  0  0
   16.3181   28.9619   -7.4567 C   0  0  0  0  0  0  0  0  0  0  0  0
   16.5667   29.6470   -8.3468 N   0  0  0  0  0  0  0  0  0  0  0  0
    9.8434   23.9874   -0.6668 C   0  0  0  0  0  0  0  0  0  0  0  0
    9.2986   21.2357   -0.1185 C   0  0  0  0  0  0  0  0  0  0  0  0
    9.4705   22.1825    0.9999 C   0  0  0  0  0  0  0  0  0  0  0  0
    9.3600   21.7551    2.3023 C   0  0  0  0  0  0  0  0  0  0  0  0
    9.5203   22.6377    3.3687 C   0  0  0  0  0  0  0  0  0  0  0  0
    9.7911   23.9399    3.0398 C   0  0  0  0  0  0  0  0  0  0  0  0
    9.8937   24.3315    1.7600 N   0  0  0  0  0  0  0  0  0  0  0  0
    9.7441   23.5037    0.7180 C   0  0  0  0  0  0  0  0  0  0  0  0
 30 31  1  0  0  0
 31 32  2  0  0  0
 32 33  1  0  0  0
 33 34  2  0  0  0
 34 35  1  0  0  0
 35 36  2  0  0  0
 36 29  1  0  0  0
 29  1  1  0  0  0
  1  2  1  0  0  0
  2  3  1  0  0  0
  3  4  1  0  0  0
  4  5  1  0  0  0
  5  6  1  0  0  0
  4  7  1  0  0  0
  7  8  1  0  0  0
  8  9  2  0  0  0
  8 10  1  0  0  0
 10 11  1  0  0  0
 11 12  2  0  0  0
 10 21  1  0  0  0
 21 22  2  0  0  0
 22 23  1  0  0  0
 23 24  2  0  0  0
 24 25  1  0  0  0
 25 26  2  0  0  0
 24 27  1  0  0  0
 27 28  3  0  0  0
  7 13  1  0  0  0
 13 14  2  0  0  0
 14 15  1  0  0  0
 15 16  2  0  0  0
 15 17  1  0  0  0
 17 18  1  0  0  0
 18 19  2  0  0  0
 36 31  1  0  0  0
  6  1  1  0  0  0
 26 21  1  0  0  0
 19 13  1  0  0  0
 11  4  1  0  0  0
 17 20  1  0  0  0
M  END
> <minimizedAffinity>
4.64414

> <CNNscore>
0.6353400946

> <CNNaffinity>
7.9676084518

> <CNN_VS>
5.0621409416

> <CNNaffinity_variance>
0.7119697928

$$$$
[H]c1nc(C([H])([H])N2C([H])([H])C([H])([H])C3(C(=O)N(c4c([H])c([H])c(C#N)c([H])c4[H])C(=O)N3c3nc([H])n([H])c(=O)c3[H])C([H])([H])C2([H])[H])c(C([H])([H])[H])c([H])c1[H]


 36 40  0  0  0  0  0  0  0  0999 V2000
   15.7218   26.7572   -3.5113 N   0  0  0  0  0  0  0  0  0  0  0  0
   16.1031   27.4772   -2.2883 C   0  0  0  0  0  0  0  0  0  0  0  0
   16.4557   26.5418   -1.1800 C   0  0  0  0  0  0  0  0  0  0  0  0
   15.7326   25.2195   -1.2462 C   0  0  0  0  0  0  0  0  0  0  0  0
   15.8387   24.5512   -2.6040 C   0  0  0  0  0  0  0  0  0  0  0  0
   16.5327   25.5437   -3.5111 C   0  0  0  0  0  0  0  0  0  0  0  0
   16.2797   24.3165   -0.2606 N   0  0  0  0  0  0  0  0  0  0  0  0
   15.1930   23.4682    0.1219 C   0  0  0  0  0  0  0  0  0  0  0  0
   15.3272   22.3363    0.6967 O   0  0  0  0  0  0  0  0  0  0  0  0
   13.9514   24.0774   -0.2349 N   0  0  0  0  0  0  0  0  0  0  0  0
   14.3148   25.3207   -0.8455 C   0  0  0  0  0  0  0  0  0  0  0  0
   13.5553   26.3001   -1.0013 O   0  0  0  0  0  0  0  0  0  0  0  0
   17.6035   24.2320    0.2637 C   0  0  0  0  0  0  0  0  0  0  0  0
   17.8551   24.4588    1.6092 C   0  0  0  0  0  0  0  0  0  0  0  0
   19.1395   24.3744    2.1079 C   0  0  0  0  0  0  0  0  0  0  0  0
   19.3942   24.5779    3.3384 O   0  0  0  0  0  0  0  0  0  0  0  0
   20.1940   24.0702    1.3113 N   0  0  0  0  0  0  0  0  0  0  0  0
   19.9237   23.8550    0.0112 C   0  0  0  0  0  0  0  0  0  0  0  0
   18.6761   23.9330   -0.4929 N   0  0  0  0  0  0  0  0  0  0  0  0
   21.1783   24.0035    1.6865 H   0  0  0  0  0  0  0  0  0  0  0  0
   12.6494   23.5492   -0.0217 C   0  0  0  0  0  0  0  0  0  0  0  0
   11.7231   24.1448    0.7830 C   0  0  0  0  0  0  0  0  0  0  0  0
   10.4723   23.5809    0.9498 C   0  0  0  0  0  0  0  0  0  0  0  0
   10.1235   22.3941    0.3041 C   0  0  0  0  0  0  0  0  0  0  0  0
   11.0564   21.7975   -0.5043 C   0  0  0  0  0  0  0  0  0  0  0  0
   12.2906   22.3613   -0.6639 C   0  0  0  0  0  0  0  0  0  0  0  0
    8.8147   21.8183    0.4877 C   0  0  0  0  0  0  0  0  0  0  0  0
    7.7638   21.3740    0.6343 N   0  0  0  0  0  0  0  0  0  0  0  0
   16.0483   27.5970   -4.6424 C   0  0  0  0  0  0  0  0  0  0  0  0
   13.4865   26.4520   -5.1857 C   0  0  0  0  0  0  0  0  0  0  0  0
   14.5294   26.4355   -6.2293 C   0  0  0  0  0  0  0  0  0  0  0  0
   14.2832   25.8649   -7.4561 C   0  0  0  0  0  0  0  0  0  0  0  0
   15.2582   25.8425   -8.4514 C   0  0  0  0  0  0  0  0  0  0  0  0
   16.4604   26.4176   -8.1329 C   0  0  0  0  0  0  0  0  0  0  0  0
   16.6751   26.9679   -6.9275 N   0  0  0  0  0  0  0  0  0  0  0  0
   15.7554   27.0023   -5.9546 C   0  0  0  0  0  0  0  0  0  0  0  0
 30 31  1  0  0  0
 31 32  2  0  0  0
 32 33  1  0  0  0
 33 34  2  0  0  0
 34 35  1  0  0  0
 35 36  2  0  0  0
 36 29  1  0  0  0
 29  1  1  0  0  0
  1  2  1  0  0  0
  2  3  1  0  0  0
  3  4  1  0  0  0
  4  5  1  0  0  0
  5  6  1  0  0  0
  4  7  1  0  0  0
  7  8  1  0  0  0
  8  9  2  0  0  0
  8 10  1  0  0  0
 10 11  1  0  0  0
 11 12  2  0  0  0
 10 21  1  0  0  0
 21 22  2  0  0  0
 22 23  1  0  0  0
 23 24  2  0  0  0
 24 25  1  0  0  0
 25 26  2  0  0  0
 24 27  1  0  0  0
 27 28  3  0  0  0
  7 13  1  0  0  0
 13 14  2  0  0  0
 14 15  1  0  0  0
 15 16  2  0  0  0
 15 17  1  0  0  0
 17 18  1  0  0  0
 18 19  2  0  0  0
 36 31  1  0  0  0
  6  1  1  0  0  0
 26 21  1  0  0  0
 19 13  1  0  0  0
 11  4  1  0  0  0
 17 20  1  0  0  0
M  END
> <minimizedAffinity>
13.07695

> <CNNscore>
0.6158604026

> <CNNaffinity>
7.9913816452

> <CNN_VS>
4.9215755463

> <CNNaffinity_variance>
1.1629352570

$$$$
[H]c1nc(C([H])([H])N2C([H])([H])C([H])([H])C3(C(=O)N(c4c([H])c([H])c(C#N)c([H])c4[H])C(=O)N3c3nc([H])n([H])c(=O)c3[H])C([H])([H])C2([H])[H])c(C([H])([H])[H])c([H])c1[H]


 36 40  0  0  0  0  0  0  0  0999 V2000
   12.0873   21.6295   -1.1917 N   0  0  0  0  0  0  0  0  0  0  0  0
   13.3408   21.5345   -0.4308 C   0  0  0  0  0  0  0  0  0  0  0  0
   14.0130   22.8606   -0.2996 C   0  0  0  0  0  0  0  0  0  0  0  0
   13.7373   23.7991   -1.4482 C   0  0  0  0  0  0  0  0  0  0  0  0
   12.2588   23.9438   -1.7559 C   0  0  0  0  0  0  0  0  0  0  0  0
   11.5429   22.9455   -0.8723 C   0  0  0  0  0  0  0  0  0  0  0  0
   14.2592   25.1102   -1.1405 N   0  0  0  0  0  0  0  0  0  0  0  0
   14.6232   25.6795   -2.4015 C   0  0  0  0  0  0  0  0  0  0  0  0
   14.7950   26.9274   -2.6087 O   0  0  0  0  0  0  0  0  0  0  0  0
   14.7625   24.6475   -3.3791 N   0  0  0  0  0  0  0  0  0  0  0  0
   14.4726   23.4343   -2.6758 C   0  0  0  0  0  0  0  0  0  0  0  0
   14.7924   22.2863   -3.0501 O   0  0  0  0  0  0  0  0  0  0  0  0
   14.4085   25.7596    0.1207 C   0  0  0  0  0  0  0  0  0  0  0  0
   13.4029   26.5675    0.6320 C   0  0  0  0  0  0  0  0  0  0  0  0
   13.5559   27.1917    1.8537 C   0  0  0  0  0  0  0  0  0  0  0  0
   12.6471   27.9369    2.3427 O   0  0  0  0  0  0  0  0  0  0  0  0
   14.6824   27.0417    2.5936 N   0  0  0  0  0  0  0  0  0  0  0  0
   15.6420   26.2538    2.0760 C   0  0  0  0  0  0  0  0  0  0  0  0
   15.5097   25.6365    0.8851 N   0  0  0  0  0  0  0  0  0  0  0  0
   14.8053   27.5157    3.5287 H   0  0  0  0  0  0  0  0  0  0  0  0
   15.1135   24.8094   -4.7467 C   0  0  0  0  0  0  0  0  0  0  0  0
   15.7369   23.8418   -5.4785 C   0  0  0  0  0  0  0  0  0  0  0  0
   16.0523   24.0604   -6.8064 C   0  0  0  0  0  0  0  0  0  0  0  0
   15.7443   25.2689   -7.4321 C   0  0  0  0  0  0  0  0  0  0  0  0
   15.1177   26.2398   -6.6943 C   0  0  0  0  0  0  0  0  0  0  0  0
   14.8092   26.0159   -5.3823 C   0  0  0  0  0  0  0  0  0  0  0  0
   16.0793   25.4818   -8.8180 C   0  0  0  0  0  0  0  0  0  0  0  0
   16.3322   25.6448   -9.9283 N   0  0  0  0  0  0  0  0  0  0  0  0
   11.2059   20.5798   -0.7306 C   0  0  0  0  0  0  0  0  0  0  0  0
   11.5615   20.8833    2.0890 C   0  0  0  0  0  0  0  0  0  0  0  0
   10.2487   21.1774    1.4832 C   0  0  0  0  0  0  0  0  0  0  0  0
    9.1928   21.5854    2.2641 C   0  0  0  0  0  0  0  0  0  0  0  0
    7.9476   21.8672    1.7059 C   0  0  0  0  0  0  0  0  0  0  0  0
    7.8452   21.7136    0.3482 C   0  0  0  0  0  0  0  0  0  0  0  0
    8.8915   21.3137   -0.3915 N   0  0  0  0  0  0  0  0  0  0  0  0
   10.0977   21.0369    0.1203 C   0  0  0  0  0  0  0  0  0  0  0  0
 30 31  1  0  0  0
 31 32  2  0  0  0
 32 33  1  0  0  0
 33 34  2  0  0  0
 34 35  1  0  0  0
 35 36  2  0  0  0
 36 29  1  0  0  0
 29  1  1  0  0  0
  1  2  1  0  0  0
  2  3  1  0  0  0
  3  4  1  0  0  0
  4  5  1  0  0  0
  5  6  1  0  0  0
  4  7  1  0  0  0
  7  8  1  0  0  0
  8  9  2  0  0  0
  8 10  1  0  0  0
 10 11  1  0  0  0
 11 12  2  0  0  0
 10 21  1  0  0  0
 21 22  2  0  0  0
 22 23  1  0  0  0
 23 24  2  0  0  0
 24 25  1  0  0  0
 25 26  2  0  0  0
 24 27  1  0  0  0
 27 28  3  0  0  0
  7 13  1  0  0  0
 13 14  2  0  0  0
 14 15  1  0  0  0
 15 16  2  0  0  0
 15 17  1  0  0  0
 17 18  1  0  0  0
 18 19  2  0  0  0
 36 31  1  0  0  0
  6  1  1  0  0  0
 26 21  1  0  0  0
 19 13  1  0  0  0
 11  4  1  0  0  0
 17 20  1  0  0  0
M  END
> <minimizedAffinity>
10.89699

> <CNNscore>
0.5742541552

> <CNNaffinity>
7.5550894737

> <CNN_VS>
4.3385415077

> <CNNaffinity_variance>
0.4243313372

$$$$
[H]c1nc(C([H])([H])N2C([H])([H])C([H])([H])C3(C(=O)N(c4c([H])c([H])c(C#N)c([H])c4[H])C(=O)N3c3nc([H])n([H])c(=O)c3[H])C([H])([H])C2([H])[H])c(C([H])([H])[H])c([H])c1[H]


 36 40  0  0  0  0  0  0  0  0999 V2000
   10.6223   24.5132    0.1578 N   0  0  0  0  0  0  0  0  0  0  0  0
   10.8490   23.1860   -0.4311 C   0  0  0  0  0  0  0  0  0  0  0  0
   12.3031   22.8684   -0.5418 C   0  0  0  0  0  0  0  0  0  0  0  0
   13.1798   24.0831   -0.7196 C   0  0  0  0  0  0  0  0  0  0  0  0
   12.9151   25.1634    0.3122 C   0  0  0  0  0  0  0  0  0  0  0  0
   11.7135   24.7030    1.1083 C   0  0  0  0  0  0  0  0  0  0  0  0
   14.5685   23.6994   -0.6173 N   0  0  0  0  0  0  0  0  0  0  0  0
   15.2779   24.6138   -1.4584 C   0  0  0  0  0  0  0  0  0  0  0  0
   16.5319   24.8406   -1.3836 O   0  0  0  0  0  0  0  0  0  0  0  0
   14.3762   25.2248   -2.3823 N   0  0  0  0  0  0  0  0  0  0  0  0
   13.0979   24.6554   -2.0785 C   0  0  0  0  0  0  0  0  0  0  0  0
   12.1068   24.6539   -2.8387 O   0  0  0  0  0  0  0  0  0  0  0  0
   15.1716   22.6500    0.1372 C   0  0  0  0  0  0  0  0  0  0  0  0
   14.8123   21.3254   -0.0669 C   0  0  0  0  0  0  0  0  0  0  0  0
   15.4016   20.3162    0.6678 C   0  0  0  0  0  0  0  0  0  0  0  0
   15.0881   19.0942    0.4976 O   0  0  0  0  0  0  0  0  0  0  0  0
   16.3440   20.5767    1.6074 N   0  0  0  0  0  0  0  0  0  0  0  0
   16.6747   21.8684    1.7862 C   0  0  0  0  0  0  0  0  0  0  0  0
   16.1098   22.8665    1.0779 N   0  0  0  0  0  0  0  0  0  0  0  0
   16.7989   19.8097    2.1720 H   0  0  0  0  0  0  0  0  0  0  0  0
   14.6969   26.1859   -3.3788 C   0  0  0  0  0  0  0  0  0  0  0  0
   13.8598   26.5047   -4.4075 C   0  0  0  0  0  0  0  0  0  0  0  0
   14.2299   27.4493   -5.3463 C   0  0  0  0  0  0  0  0  0  0  0  0
   15.4621   28.0995   -5.2691 C   0  0  0  0  0  0  0  0  0  0  0  0
   16.3015   27.7774   -4.2341 C   0  0  0  0  0  0  0  0  0  0  0  0
   15.9282   26.8426   -3.3103 C   0  0  0  0  0  0  0  0  0  0  0  0
   15.8337   29.0829   -6.2556 C   0  0  0  0  0  0  0  0  0  0  0  0
   16.1328   29.8786   -7.0307 N   0  0  0  0  0  0  0  0  0  0  0  0
    9.3450   24.4873    0.8355 C   0  0  0  0  0  0  0  0  0  0  0  0
    8.9428   25.9070    3.2833 C   0  0  0  0  0  0  0  0  0  0  0  0
    9.1657   24.4488    3.3136 C   0  0  0  0  0  0  0  0  0  0  0  0
    9.1924   23.7693    4.5088 C   0  0  0  0  0  0  0  0  0  0  0  0
    9.4012   22.3922    4.5528 C   0  0  0  0  0  0  0  0  0  0  0  0
    9.5757   21.7686    3.3454 C   0  0  0  0  0  0  0  0  0  0  0  0
    9.5453   22.4553    2.1924 N   0  0  0  0  0  0  0  0  0  0  0  0
    9.3464   23.7778    2.1231 C   0  0  0  0  0  0  0  0  0  0  0  0
 30 31  1  0  0  0
 31 32  2  0  0  0
 32 33  1  0  0  0
 33 34  2  0  0  0
 34 35  1  0  0  0
 35 36  2  0  0  0
 36 29  1  0  0  0
 29  1  1  0  0  0
  1  2  1  0  0  0
  2  3  1  0  0  0
  3  4  1  0  0  0
  4  5  1  0  0  0
  5  6  1  0  0  0
  4  7  1  0  0  0
  7  8  1  0  0  0
  8  9  2  0  0  0
  8 10  1  0  0  0
 10 11  1  0  0  0
 11 12  2  0  0  0
 10 21  1  0  0  0
 21 22  2  0  0  0
 22 23  1  0  0  0
 23 24  2  0  0  0
 24 25  1  0  0  0
 25 26  2  0  0  0
 24 27  1  0  0  0
 27 28  3  0  0  0
  7 13  1  0  0  0
 13 14  2  0  0  0
 14 15  1  0  0  0
 15 16  2  0  0  0
 15 17  1  0  0  0
 17 18  1  0  0  0
 18 19  2  0  0  0
 36 31  1  0  0  0
  6  1  1  0  0  0
 26 21  1  0  0  0
 19 13  1  0  0  0
 11  4  1  0  0  0
 17 20  1  0  0  0
M  END
> <minimizedAffinity>
-0.45094

> <CNNscore>
0.5694113970

> <CNNaffinity>
7.7167692184

> <CNN_VS>
4.3940162659

> <CNNaffinity_variance>
0.2798304856

$$$$
[H]c1nc(C([H])([H])N2C([H])([H])C([H])([H])C3(C(=O)N(c4c([H])c([H])c(C#N)c([H])c4[H])C(=O)N3c3nc([H])n([H])c(=O)c3[H])C([H])([H])C2([H])[H])c(C([H])([H])[H])c([H])c1[H]


 36 40  0  0  0  0  0  0  0  0999 V2000
   11.4706   23.5704    0.0922 N   0  0  0  0  0  0  0  0  0  0  0  0
   12.1940   22.2924    0.1457 C   0  0  0  0  0  0  0  0  0  0  0  0
   13.6723   22.4878    0.0834 C   0  0  0  0  0  0  0  0  0  0  0  0
   14.0922   23.7174   -0.6832 C   0  0  0  0  0  0  0  0  0  0  0  0
   13.3753   24.9748   -0.2287 C   0  0  0  0  0  0  0  0  0  0  0  0
   12.3339   24.5292    0.7746 C   0  0  0  0  0  0  0  0  0  0  0  0
   15.5116   23.9300   -0.5214 N   0  0  0  0  0  0  0  0  0  0  0  0
   15.9417   24.5590   -1.7322 C   0  0  0  0  0  0  0  0  0  0  0  0
   17.0286   25.2165   -1.8587 O   0  0  0  0  0  0  0  0  0  0  0  0
   14.9783   24.3391   -2.7635 N   0  0  0  0  0  0  0  0  0  0  0  0
   13.9498   23.5583   -2.1445 C   0  0  0  0  0  0  0  0  0  0  0  0
   13.0972   22.8743   -2.7489 O   0  0  0  0  0  0  0  0  0  0  0  0
   16.3625   23.6086    0.5772 C   0  0  0  0  0  0  0  0  0  0  0  0
   17.4615   24.3979    0.8847 C   0  0  0  0  0  0  0  0  0  0  0  0
   18.2794   24.0794    1.9502 C   0  0  0  0  0  0  0  0  0  0  0  0
   19.2926   24.7888    2.2512 O   0  0  0  0  0  0  0  0  0  0  0  0
   18.0437   22.9947    2.7293 N   0  0  0  0  0  0  0  0  0  0  0  0
   16.9725   22.2460    2.4104 C   0  0  0  0  0  0  0  0  0  0  0  0
   16.1632   22.5420    1.3740 N   0  0  0  0  0  0  0  0  0  0  0  0
   18.6648   22.7462    3.5457 H   0  0  0  0  0  0  0  0  0  0  0  0
   15.0441   24.8023   -4.1055 C   0  0  0  0  0  0  0  0  0  0  0  0
   14.5078   25.9877   -4.5148 C   0  0  0  0  0  0  0  0  0  0  0  0
   14.6049   26.3827   -5.8358 C   0  0  0  0  0  0  0  0  0  0  0  0
   15.2500   25.5857   -6.7821 C   0  0  0  0  0  0  0  0  0  0  0  0
   15.7883   24.3947   -6.3680 C   0  0  0  0  0  0  0  0  0  0  0  0
   15.6880   24.0114   -5.0605 C   0  0  0  0  0  0  0  0  0  0  0  0
   15.3436   26.0116   -8.1562 C   0  0  0  0  0  0  0  0  0  0  0  0
   15.4189   26.3356   -9.2574 N   0  0  0  0  0  0  0  0  0  0  0  0
   10.2208   23.4045    0.8008 C   0  0  0  0  0  0  0  0  0  0  0  0
    7.6680   22.8881    1.9778 C   0  0  0  0  0  0  0  0  0  0  0  0
    8.1516   22.0309    0.8785 C   0  0  0  0  0  0  0  0  0  0  0  0
    7.3903   20.9801    0.4231 C   0  0  0  0  0  0  0  0  0  0  0  0
    7.8338   20.1626   -0.6146 C   0  0  0  0  0  0  0  0  0  0  0  0
    9.0598   20.4695   -1.1438 C   0  0  0  0  0  0  0  0  0  0  0  0
    9.7834   21.5010   -0.6809 N   0  0  0  0  0  0  0  0  0  0  0  0
    9.3800   22.3010    0.3144 C   0  0  0  0  0  0  0  0  0  0  0  0
 30 31  1  0  0  0
 31 32  2  0  0  0
 32 33  1  0  0  0
 33 34  2  0  0  0
 34 35  1  0  0  0
 35 36  2  0  0  0
 36 29  1  0  0  0
 29  1  1  0  0  0
  1  2  1  0  0  0
  2  3  1  0  0  0
  3  4  1  0  0  0
  4  5  1  0  0  0
  5  6  1  0  0  0
  4  7  1  0  0  0
  7  8  1  0  0  0
  8  9  2  0  0  0
  8 10  1  0  0  0
 10 11  1  0  0  0
 11 12  2  0  0  0
 10 21  1  0  0  0
 21 22  2  0  0  0
 22 23  1  0  0  0
 23 24  2  0  0  0
 24 25  1  0  0  0
 25 26  2  0  0  0
 24 27  1  0  0  0
 27 28  3  0  0  0
  7 13  1  0  0  0
 13 14  2  0  0  0
 14 15  1  0  0  0
 15 16  2  0  0  0
 15 17  1  0  0  0
 17 18  1  0  0  0
 18 19  2  0  0  0
 36 31  1  0  0  0
  6  1  1  0  0  0
 26 21  1  0  0  0
 19 13  1  0  0  0
 11  4  1  0  0  0
 17 20  1  0  0  0
M  END
> <minimizedAffinity>
7.22626

> <CNNscore>
0.5633919239

> <CNNaffinity>
7.7251844406

> <CNN_VS>
4.3523063660

> <CNNaffinity_variance>
0.3690457642

$$$$
[H]c1nc(C([H])([H])N2C([H])([H])C([H])([H])C3(C(=O)N(c4c([H])c([H])c(C#N)c([H])c4[H])C(=O)N3c3nc([H])n([H])c(=O)c3[H])C([H])([H])C2([H])[H])c(C([H])([H])[H])c([H])c1[H]


 36 40  0  0  0  0  0  0  0  0999 V2000
   12.9910   25.9234   -2.7037 N   0  0  0  0  0  0  0  0  0  0  0  0
   14.1899   25.6979   -1.8844 C   0  0  0  0  0  0  0  0  0  0  0  0
   14.0410   24.5063   -0.9982 C   0  0  0  0  0  0  0  0  0  0  0  0
   12.6164   24.2268   -0.5879 C   0  0  0  0  0  0  0  0  0  0  0  0
   11.6578   24.1796   -1.7628 C   0  0  0  0  0  0  0  0  0  0  0  0
   12.4581   24.5928   -2.9788 C   0  0  0  0  0  0  0  0  0  0  0  0
   12.5478   22.9560    0.0951 N   0  0  0  0  0  0  0  0  0  0  0  0
   11.4699   23.0837    1.0271 C   0  0  0  0  0  0  0  0  0  0  0  0
   10.8633   22.1003    1.5699 O   0  0  0  0  0  0  0  0  0  0  0  0
   11.1825   24.4645    1.2524 N   0  0  0  0  0  0  0  0  0  0  0  0
   12.1170   25.1727    0.4303 C   0  0  0  0  0  0  0  0  0  0  0  0
   12.4372   26.3723    0.5665 O   0  0  0  0  0  0  0  0  0  0  0  0
   13.3470   21.7865   -0.0718 C   0  0  0  0  0  0  0  0  0  0  0  0
   14.5448   21.6358    0.6123 C   0  0  0  0  0  0  0  0  0  0  0  0
   15.3116   20.5002    0.4449 C   0  0  0  0  0  0  0  0  0  0  0  0
   16.4134   20.3400    1.0621 O   0  0  0  0  0  0  0  0  0  0  0  0
   14.9289   19.4988   -0.3855 N   0  0  0  0  0  0  0  0  0  0  0  0
   13.7643   19.6691   -1.0370 C   0  0  0  0  0  0  0  0  0  0  0  0
   13.0028   20.7709   -0.8856 N   0  0  0  0  0  0  0  0  0  0  0  0
   15.5103   18.6278   -0.5174 H   0  0  0  0  0  0  0  0  0  0  0  0
   10.1833   24.9993    2.1098 C   0  0  0  0  0  0  0  0  0  0  0  0
    8.9687   24.4092    2.3023 C   0  0  0  0  0  0  0  0  0  0  0  0
    8.0380   24.9795    3.1502 C   0  0  0  0  0  0  0  0  0  0  0  0
    8.3124   26.1672    3.8292 C   0  0  0  0  0  0  0  0  0  0  0  0
    9.5339   26.7583    3.6342 C   0  0  0  0  0  0  0  0  0  0  0  0
   10.4484   26.1882    2.7943 C   0  0  0  0  0  0  0  0  0  0  0  0
    7.3316   26.7496    4.7108 C   0  0  0  0  0  0  0  0  0  0  0  0
    6.5610   27.2183    5.4248 N   0  0  0  0  0  0  0  0  0  0  0  0
   13.4034   26.5778   -3.9257 C   0  0  0  0  0  0  0  0  0  0  0  0
   14.7390   26.9049   -6.4314 C   0  0  0  0  0  0  0  0  0  0  0  0
   15.4875   27.0985   -5.1747 C   0  0  0  0  0  0  0  0  0  0  0  0
   16.8234   27.4239   -5.1985 C   0  0  0  0  0  0  0  0  0  0  0  0
   17.5430   27.6103   -4.0198 C   0  0  0  0  0  0  0  0  0  0  0  0
   16.8431   27.4506   -2.8528 C   0  0  0  0  0  0  0  0  0  0  0  0
   15.5390   27.1325   -2.8571 N   0  0  0  0  0  0  0  0  0  0  0  0
   14.8253   26.9481   -3.9752 C   0  0  0  0  0  0  0  0  0  0  0  0
 30 31  1  0  0  0
 31 32  2  0  0  0
 32 33  1  0  0  0
 33 34  2  0  0  0
 34 35  1  0  0  0
 35 36  2  0  0  0
 36 29  1  0  0  0
 29  1  1  0  0  0
  1  2  1  0  0  0
  2  3  1  0  0  0
  3  4  1  0  0  0
  4  5  1  0  0  0
  5  6  1  0  0  0
  4  7  1  0  0  0
  7  8  1  0  0  0
  8  9  2  0  0  0
  8 10  1  0  0  0
 10 11  1  0  0  0
 11 12  2  0  0  0
 10 21  1  0  0  0
 21 22  2  0  0  0
 22 23  1  0  0  0
 23 24  2  0  0  0
 24 25  1  0  0  0
 25 26  2  0  0  0
 24 27  1  0  0  0
 27 28  3  0  0  0
  7 13  1  0  0  0
 13 14  2  0  0  0
 14 15  1  0  0  0
 15 16  2  0  0  0
 15 17  1  0  0  0
 17 18  1  0  0  0
 18 19  2  0  0  0
 36 31  1  0  0  0
  6  1  1  0  0  0
 26 21  1  0  0  0
 19 13  1  0  0  0
 11  4  1  0  0  0
 17 20  1  0  0  0
M  END
> <minimizedAffinity>
-0.21977

> <CNNscore>
0.5186914802

> <CNNaffinity>
7.5064024925

> <CNN_VS>
3.8935070038

> <CNNaffinity_variance>
0.7063548565

$$$$
[H]c1nc(C([H])([H])N2C([H])([H])C([H])([H])C3(C(=O)N(c4c([H])c([H])c(C#N)c([H])c4[H])C(=O)N3c3nc([H])n([H])c(=O)c3[H])C([H])([H])C2([H])[H])c(C([H])([H])[H])c([H])c1[H]


 36 40  0  0  0  0  0  0  0  0999 V2000
   12.7463   26.3066   -3.7622 N   0  0  0  0  0  0  0  0  0  0  0  0
   12.8815   26.8676   -2.4107 C   0  0  0  0  0  0  0  0  0  0  0  0
   13.4763   25.8847   -1.4581 C   0  0  0  0  0  0  0  0  0  0  0  0
   13.1740   24.4467   -1.7992 C   0  0  0  0  0  0  0  0  0  0  0  0
   13.4916   24.0983   -3.2412 C   0  0  0  0  0  0  0  0  0  0  0  0
   13.8774   25.3970   -3.9152 C   0  0  0  0  0  0  0  0  0  0  0  0
   13.9472   23.5724   -0.9484 N   0  0  0  0  0  0  0  0  0  0  0  0
   13.1515   22.3937   -0.7920 C   0  0  0  0  0  0  0  0  0  0  0  0
   13.6032   21.2618   -0.4122 O   0  0  0  0  0  0  0  0  0  0  0  0
   11.7913   22.6776   -1.1224 N   0  0  0  0  0  0  0  0  0  0  0  0
   11.7831   24.0631   -1.4844 C   0  0  0  0  0  0  0  0  0  0  0  0
   10.7721   24.7958   -1.5210 O   0  0  0  0  0  0  0  0  0  0  0  0
   15.2296   23.7747   -0.3577 C   0  0  0  0  0  0  0  0  0  0  0  0
   16.2472   24.4069   -1.0577 C   0  0  0  0  0  0  0  0  0  0  0  0
   17.4851   24.5988   -0.4778 C   0  0  0  0  0  0  0  0  0  0  0  0
   18.4333   25.1764   -1.1005 O   0  0  0  0  0  0  0  0  0  0  0  0
   17.7524   24.1813    0.7844 N   0  0  0  0  0  0  0  0  0  0  0  0
   16.7496   23.5713    1.4416 C   0  0  0  0  0  0  0  0  0  0  0  0
   15.5348   23.3757    0.8913 N   0  0  0  0  0  0  0  0  0  0  0  0
   18.6965   24.3255    1.2337 H   0  0  0  0  0  0  0  0  0  0  0  0
   10.6984   21.7696   -1.0921 C   0  0  0  0  0  0  0  0  0  0  0  0
   10.0721   21.3151   -2.2152 C   0  0  0  0  0  0  0  0  0  0  0  0
    9.0134   20.4317   -2.1194 C   0  0  0  0  0  0  0  0  0  0  0  0
    8.5580   19.9825   -0.8793 C   0  0  0  0  0  0  0  0  0  0  0  0
    9.1893   20.4408    0.2481 C   0  0  0  0  0  0  0  0  0  0  0  0
   10.2351   21.3139    0.1448 C   0  0  0  0  0  0  0  0  0  0  0  0
    7.4528   19.0606   -0.7956 C   0  0  0  0  0  0  0  0  0  0  0  0
    6.5608   18.3376   -0.7252 N   0  0  0  0  0  0  0  0  0  0  0  0
   12.8290   27.3978   -4.7076 C   0  0  0  0  0  0  0  0  0  0  0  0
   10.0842   27.8280   -5.3786 C   0  0  0  0  0  0  0  0  0  0  0  0
   10.8185   28.8553   -4.6153 C   0  0  0  0  0  0  0  0  0  0  0  0
   10.1975   30.0214   -4.2339 C   0  0  0  0  0  0  0  0  0  0  0  0
   10.8781   31.0001   -3.5123 C   0  0  0  0  0  0  0  0  0  0  0  0
   12.1872   30.7289   -3.2121 C   0  0  0  0  0  0  0  0  0  0  0  0
   12.7700   29.5824   -3.5966 N   0  0  0  0  0  0  0  0  0  0  0  0
   12.1383   28.6267   -4.2901 C   0  0  0  0  0  0  0  0  0  0  0  0
 30 31  1  0  0  0
 31 32  2  0  0  0
 32 33  1  0  0  0
 33 34  2  0  0  0
 34 35  1  0  0  0
 35 36  2  0  0  0
 36 29  1  0  0  0
 29  1  1  0  0  0
  1  2  1  0  0  0
  2  3  1  0  0  0
  3  4  1  0  0  0
  4  5  1  0  0  0
  5  6  1  0  0  0
  4  7  1  0  0  0
  7  8  1  0  0  0
  8  9  2  0  0  0
  8 10  1  0  0  0
 10 11  1  0  0  0
 11 12  2  0  0  0
 10 21  1  0  0  0
 21 22  2  0  0  0
 22 23  1  0  0  0
 23 24  2  0  0  0
 24 25  1  0  0  0
 25 26  2  0  0  0
 24 27  1  0  0  0
 27 28  3  0  0  0
  7 13  1  0  0  0
 13 14  2  0  0  0
 14 15  1  0  0  0
 15 16  2  0  0  0
 15 17  1  0  0  0
 17 18  1  0  0  0
 18 19  2  0  0  0
 36 31  1  0  0  0
  6  1  1  0  0  0
 26 21  1  0  0  0
 19 13  1  0  0  0
 11  4  1  0  0  0
 17 20  1  0  0  0
M  END
> <minimizedAffinity>
17.53056

> <CNNscore>
0.5183222294

> <CNNaffinity>
7.5028533936

> <CNN_VS>
3.8888957500

> <CNNaffinity_variance>
1.1407616138

$$$$
[H]c1nc(C([H])([H])N2C([H])([H])C([H])([H])C3(C(=O)N(c4c([H])c([H])c(C#N)c([H])c4[H])C(=O)N3c3nc([H])n([H])c(=O)c3[H])C([H])([H])C2([H])[H])c(C([H])([H])[H])c([H])c1[H]


 36 40  0  0  0  0  0  0  0  0999 V2000
   12.2743   22.4687   -1.8946 N   0  0  0  0  0  0  0  0  0  0  0  0
   13.4482   21.6019   -2.0685 C   0  0  0  0  0  0  0  0  0  0  0  0
   14.6977   22.2540   -1.5777 C   0  0  0  0  0  0  0  0  0  0  0  0
   14.6791   23.7591   -1.6786 C   0  0  0  0  0  0  0  0  0  0  0  0
   13.4392   24.3809   -1.0641 C   0  0  0  0  0  0  0  0  0  0  0  0
   12.5360   23.2301   -0.6773 C   0  0  0  0  0  0  0  0  0  0  0  0
   15.8334   24.3057   -1.0040 N   0  0  0  0  0  0  0  0  0  0  0  0
   16.1462   25.5132   -1.7047 C   0  0  0  0  0  0  0  0  0  0  0  0
   16.8622   26.4585   -1.2322 O   0  0  0  0  0  0  0  0  0  0  0  0
   15.5404   25.4960   -2.9981 N   0  0  0  0  0  0  0  0  0  0  0  0
   14.8502   24.2430   -3.0634 C   0  0  0  0  0  0  0  0  0  0  0  0
   14.4705   23.6792   -4.1113 O   0  0  0  0  0  0  0  0  0  0  0  0
   16.5547   23.8053    0.1201 C   0  0  0  0  0  0  0  0  0  0  0  0
   16.2843   22.5478    0.6406 C   0  0  0  0  0  0  0  0  0  0  0  0
   16.9878   22.0713    1.7285 C   0  0  0  0  0  0  0  0  0  0  0  0
   16.7574   20.9211    2.2227 O   0  0  0  0  0  0  0  0  0  0  0  0
   17.9597   22.8054    2.3248 N   0  0  0  0  0  0  0  0  0  0  0  0
   18.2026   24.0207    1.8015 C   0  0  0  0  0  0  0  0  0  0  0  0
   17.5258   24.5018    0.7398 N   0  0  0  0  0  0  0  0  0  0  0  0
   18.5017   22.4467    3.1564 H   0  0  0  0  0  0  0  0  0  0  0  0
   15.6178   26.5106   -3.9902 C   0  0  0  0  0  0  0  0  0  0  0  0
   14.8233   26.5351   -5.0986 C   0  0  0  0  0  0  0  0  0  0  0  0
   14.9471   27.5504   -6.0283 C   0  0  0  0  0  0  0  0  0  0  0  0
   15.8820   28.5726   -5.8607 C   0  0  0  0  0  0  0  0  0  0  0  0
   16.6792   28.5457   -4.7457 C   0  0  0  0  0  0  0  0  0  0  0  0
   16.5506   27.5386   -3.8314 C   0  0  0  0  0  0  0  0  0  0  0  0
   15.9989   29.6251   -6.8389 C   0  0  0  0  0  0  0  0  0  0  0  0
   16.0757   30.4656   -7.6205 N   0  0  0  0  0  0  0  0  0  0  0  0
   11.1142   21.6201   -1.7342 C   0  0  0  0  0  0  0  0  0  0  0  0
   12.0478   19.4842   -0.0802 C   0  0  0  0  0  0  0  0  0  0  0  0
   11.0716   20.4509    0.4580 C   0  0  0  0  0  0  0  0  0  0  0  0
   10.5992   20.3268    1.7435 C   0  0  0  0  0  0  0  0  0  0  0  0
    9.6776   21.2323    2.2654 C   0  0  0  0  0  0  0  0  0  0  0  0
    9.2786   22.2396    1.4266 C   0  0  0  0  0  0  0  0  0  0  0  0
    9.7550   22.3381    0.1756 N   0  0  0  0  0  0  0  0  0  0  0  0
   10.6405   21.4816   -0.3493 C   0  0  0  0  0  0  0  0  0  0  0  0
 30 31  1  0  0  0
 31 32  2  0  0  0
 32 33  1  0  0  0
 33 34  2  0  0  0
 34 35  1  0  0  0
 35 36  2  0  0  0
 36 29  1  0  0  0
 29  1  1  0  0  0
  1  2  1  0  0  0
  2  3  1  0  0  0
  3  4  1  0  0  0
  4  5  1  0  0  0
  5  6  1  0  0  0
  4  7  1  0  0  0
  7  8  1  0  0  0
  8  9  2  0  0  0
  8 10  1  0  0  0
 10 11  1  0  0  0
 11 12  2  0  0  0
 10 21  1  0  0  0
 21 22  2  0  0  0
 22 23  1  0  0  0
 23 24  2  0  0  0
 24 25  1  0  0  0
 25 26  2  0  0  0
 24 27  1  0  0  0
 27 28  3  0  0  0
  7 13  1  0  0  0
 13 14  2  0  0  0
 14 15  1  0  0  0
 15 16  2  0  0  0
 15 17  1  0  0  0
 17 18  1  0  0  0
 18 19  2  0  0  0
 36 31  1  0  0  0
  6  1  1  0  0  0
 26 21  1  0  0  0
 19 13  1  0  0  0
 11  4  1  0  0  0
 17 20  1  0  0  0
M  END
> <minimizedAffinity>
10.09665

> <CNNscore>
0.5163521171

> <CNNaffinity>
7.7084970474

> <CNN_VS>
3.9802987576

> <CNNaffinity_variance>
0.6352628469

$$$$
[H]c1nc(C([H])([H])N2C([H])([H])C([H])([H])C3(C(=O)N(c4c([H])c([H])c(C#N)c([H])c4[H])C(=O)N3c3nc([H])n([H])c(=O)c3[H])C([H])([H])C2([H])[H])c(C([H])([H])[H])c([H])c1[H]


 36 40  0  0  0  0  0  0  0  0999 V2000
   13.4046   26.1904   -4.0784 N   0  0  0  0  0  0  0  0  0  0  0  0
   13.8905   27.0326   -2.9766 C   0  0  0  0  0  0  0  0  0  0  0  0
   14.5378   26.2233   -1.9026 C   0  0  0  0  0  0  0  0  0  0  0  0
   13.9863   24.8246   -1.7781 C   0  0  0  0  0  0  0  0  0  0  0  0
   13.9482   24.0809   -3.0998 C   0  0  0  0  0  0  0  0  0  0  0  0
   14.3506   25.0821   -4.1606 C   0  0  0  0  0  0  0  0  0  0  0  0
   14.7995   24.0616   -0.8602 N   0  0  0  0  0  0  0  0  0  0  0  0
   13.9074   23.1215   -0.2541 C   0  0  0  0  0  0  0  0  0  0  0  0
   14.2771   22.0552    0.3426 O   0  0  0  0  0  0  0  0  0  0  0  0
   12.5569   23.5564   -0.4187 N   0  0  0  0  0  0  0  0  0  0  0  0
   12.6538   24.7882   -1.1425 C   0  0  0  0  0  0  0  0  0  0  0  0
   11.7617   25.6598   -1.2110 O   0  0  0  0  0  0  0  0  0  0  0  0
   16.1920   24.1676   -0.5705 C   0  0  0  0  0  0  0  0  0  0  0  0
   16.6590   24.0860    0.7336 C   0  0  0  0  0  0  0  0  0  0  0  0
   18.0086   24.1893    1.0045 C   0  0  0  0  0  0  0  0  0  0  0  0
   18.4598   24.1171    2.1926 O   0  0  0  0  0  0  0  0  0  0  0  0
   18.9208   24.3726    0.0180 N   0  0  0  0  0  0  0  0  0  0  0  0
   18.4428   24.4484   -1.2372 C   0  0  0  0  0  0  0  0  0  0  0  0
   17.1286   24.3496   -1.5201 N   0  0  0  0  0  0  0  0  0  0  0  0
   19.9540   24.4517    0.2184 H   0  0  0  0  0  0  0  0  0  0  0  0
   11.3858   22.8969    0.0428 C   0  0  0  0  0  0  0  0  0  0  0  0
   10.6850   22.0019   -0.7111 C   0  0  0  0  0  0  0  0  0  0  0  0
    9.5522   21.3931   -0.2048 C   0  0  0  0  0  0  0  0  0  0  0  0
    9.0959   21.6745    1.0834 C   0  0  0  0  0  0  0  0  0  0  0  0
    9.8021   22.5744    1.8392 C   0  0  0  0  0  0  0  0  0  0  0  0
   10.9209   23.1718    1.3314 C   0  0  0  0  0  0  0  0  0  0  0  0
    7.9129   21.0310    1.5978 C   0  0  0  0  0  0  0  0  0  0  0  0
    6.9604   20.5317    2.0062 N   0  0  0  0  0  0  0  0  0  0  0  0
   13.4296   26.9821   -5.2884 C   0  0  0  0  0  0  0  0  0  0  0  0
   15.9399   28.3411   -5.1452 C   0  0  0  0  0  0  0  0  0  0  0  0
   15.7301   27.3021   -6.1715 C   0  0  0  0  0  0  0  0  0  0  0  0
   16.7270   26.9899   -7.0658 C   0  0  0  0  0  0  0  0  0  0  0  0
   16.5434   26.0106   -8.0400 C   0  0  0  0  0  0  0  0  0  0  0  0
   15.3227   25.3882   -8.0487 C   0  0  0  0  0  0  0  0  0  0  0  0
   14.3661   25.7119   -7.1644 N   0  0  0  0  0  0  0  0  0  0  0  0
   14.5175   26.6484   -6.2192 C   0  0  0  0  0  0  0  0  0  0  0  0
 30 31  1  0  0  0
 31 32  2  0  0  0
 32 33  1  0  0  0
 33 34  2  0  0  0
 34 35  1  0  0  0
 35 36  2  0  0  0
 36 29  1  0  0  0
 29  1  1  0  0  0
  1  2  1  0  0  0
  2  3  1  0  0  0
  3  4  1  0  0  0
  4  5  1  0  0  0
  5  6  1  0  0  0
  4  7  1  0  0  0
  7  8  1  0  0  0
  8  9  2  0  0  0
  8 10  1  0  0  0
 10 11  1  0  0  0
 11 12  2  0  0  0
 10 21  1  0  0  0
 21 22  2  0  0  0
 22 23  1  0  0  0
 23 24  2  0  0  0
 24 25  1  0  0  0
 25 26  2  0  0  0
 24 27  1  0  0  0
 27 28  3  0  0  0
  7 13  1  0  0  0
 13 14  2  0  0  0
 14 15  1  0  0  0
 15 16  2  0  0  0
 15 17  1  0  0  0
 17 18  1  0  0  0
 18 19  2  0  0  0
 36 31  1  0  0  0
  6  1  1  0  0  0
 26 21  1  0  0  0
 19 13  1  0  0  0
 11  4  1  0  0  0
 17 20  1  0  0  0
M  END
> <minimizedAffinity>
5.00676

> <CNNscore>
0.5073152781

> <CNNaffinity>
7.8668036461

> <CNN_VS>
3.9909496307

> <CNNaffinity_variance>
1.2890975475

$$$$
[H]OC(=O)c1c([H])c([H])c(N2C(=O)N(c3nc([H])nc(OC([H])([H])[H])c3[H])C3(C2=O)C([H])([H])C([H])([H])N(C([H])([H])c2nc([H])c([H])c([H])c2C([H])([H])[H])C([H])([H])C3([H])[H])c([H])c1[H]


 38 42  0  0  0  0  0  0  0  0999 V2000
   14.4801   25.0253   -2.4970 N   0  0  0  0  0  0  0  0  0  0  0  0
   15.8143   25.0031   -1.9494 C   0  0  0  0  0  0  0  0  0  0  0  0
   16.8506   25.5119   -2.5287 O   0  0  0  0  0  0  0  0  0  0  0  0
   15.8207   24.3543   -0.7340 N   0  0  0  0  0  0  0  0  0  0  0  0
   14.4637   23.9277   -0.4653 C   0  0  0  0  0  0  0  0  0  0  0  0
   14.1200   23.4033    0.6090 O   0  0  0  0  0  0  0  0  0  0  0  0
   13.6264   24.2252   -1.6388 C   0  0  0  0  0  0  0  0  0  0  0  0
   12.4747   25.0508   -1.0761 C   0  0  0  0  0  0  0  0  0  0  0  0
   11.1627   24.4439   -1.3293 C   0  0  0  0  0  0  0  0  0  0  0  0
   11.1140   23.0241   -0.9877 N   0  0  0  0  0  0  0  0  0  0  0  0
   12.1653   22.2326   -1.3343 C   0  0  0  0  0  0  0  0  0  0  0  0
   13.1436   22.9737   -2.2748 C   0  0  0  0  0  0  0  0  0  0  0  0
   14.5789   26.5214   -5.9551 C   0  0  0  0  0  0  0  0  0  0  0  0
   14.8976   25.8096   -4.7938 C   0  0  0  0  0  0  0  0  0  0  0  0
   14.1176   25.7745   -3.6740 C   0  0  0  0  0  0  0  0  0  0  0  0
   12.9697   26.5034   -3.7318 N   0  0  0  0  0  0  0  0  0  0  0  0
   12.6541   27.1987   -4.8666 C   0  0  0  0  0  0  0  0  0  0  0  0
   13.4458   27.1989   -5.9410 N   0  0  0  0  0  0  0  0  0  0  0  0
   15.4946   25.4735   -8.0043 C   0  0  0  0  0  0  0  0  0  0  0  0
   15.4917   26.4331   -6.9807 O   0  0  0  0  0  0  0  0  0  0  0  0
   16.8444   24.0839    0.2392 C   0  0  0  0  0  0  0  0  0  0  0  0
   18.0479   24.7833    0.0547 C   0  0  0  0  0  0  0  0  0  0  0  0
   19.0072   24.8066    1.0195 C   0  0  0  0  0  0  0  0  0  0  0  0
   18.7886   24.1191    2.2118 C   0  0  0  0  0  0  0  0  0  0  0  0
   17.5995   23.4314    2.3614 C   0  0  0  0  0  0  0  0  0  0  0  0
   16.6245   23.4056    1.3931 C   0  0  0  0  0  0  0  0  0  0  0  0
   19.7372   24.1782    3.2962 C   0  0  0  0  0  0  0  0  0  0  0  0
   19.4008   23.5315    4.5149 O   0  0  0  0  0  0  0  0  0  0  0  0
   20.8072   24.7723    3.1914 O   0  0  0  0  0  0  0  0  0  0  0  0
   18.4707   23.8546    4.8836 H   0  0  0  0  0  0  0  0  0  0  0  0
    9.9997   22.7155   -0.2252 C   0  0  0  0  0  0  0  0  0  0  0  0
   10.2033   22.2492    1.1700 C   0  0  0  0  0  0  0  0  0  0  0  0
   11.3412   22.1248    1.8327 N   0  0  0  0  0  0  0  0  0  0  0  0
   11.3752   21.8478    3.1700 C   0  0  0  0  0  0  0  0  0  0  0  0
   10.1517   21.6977    3.8056 C   0  0  0  0  0  0  0  0  0  0  0  0
    8.9503   21.8181    3.1398 C   0  0  0  0  0  0  0  0  0  0  0  0
    8.9353   22.0953    1.8131 C   0  0  0  0  0  0  0  0  0  0  0  0
    7.7141   22.1427    0.9466 C   0  0  0  0  0  0  0  0  0  0  0  0
 19 20  1  0  0  0
 20 13  1  0  0  0
 13 14  2  0  0  0
 14 15  1  0  0  0
 15 16  2  0  0  0
 16 17  1  0  0  0
 17 18  2  0  0  0
 15  1  1  0  0  0
  1  2  1  0  0  0
  2  3  2  0  0  0
  2  4  1  0  0  0
  4  5  1  0  0  0
  5  6  2  0  0  0
  5  7  1  0  0  0
  7  8  1  0  0  0
  8  9  1  0  0  0
  9 10  1  0  0  0
 10 31  1  0  0  0
 31 32  1  0  0  0
 32 33  2  0  0  0
 33 34  1  0  0  0
 34 35  2  0  0  0
 35 36  1  0  0  0
 36 37  2  0  0  0
 37 38  1  0  0  0
 10 11  1  0  0  0
 11 12  1  0  0  0
  4 21  1  0  0  0
 21 22  2  0  0  0
 22 23  1  0  0  0
 23 24  2  0  0  0
 24 25  1  0  0  0
 25 26  2  0  0  0
 24 27  1  0  0  0
 27 28  1  0  0  0
 27 29  2  0  0  0
 18 13  1  0  0  0
  7  1  1  0  0  0
 12  7  1  0  0  0
 26 21  1  0  0  0
 37 32  1  0  0  0
 28 30  1  0  0  0
M  END
> <minimizedAffinity>
13.02309

> <CNNscore>
0.6690821648

> <CNNaffinity>
7.9609231949

> <CNN_VS>
5.3265118599

> <CNNaffinity_variance>
0.4989790022

$$$$
[H]OC(=O)c1c([H])c([H])c(N2C(=O)N(c3nc([H])nc(OC([H])([H])[H])c3[H])C3(C2=O)C([H])([H])C([H])([H])N(C([H])([H])c2nc([H])c([H])c([H])c2C([H])([H])[H])C([H])([H])C3([H])[H])c([H])c1[H]


 38 42  0  0  0  0  0  0  0  0999 V2000
   15.6279   23.7150   -0.3979 N   0  0  0  0  0  0  0  0  0  0  0  0
   14.6183   23.3100    0.5492 C   0  0  0  0  0  0  0  0  0  0  0  0
   14.8614   22.9361    1.7615 O   0  0  0  0  0  0  0  0  0  0  0  0
   13.3694   23.3694   -0.0296 N   0  0  0  0  0  0  0  0  0  0  0  0
   13.5472   23.8174   -1.3946 C   0  0  0  0  0  0  0  0  0  0  0  0
   12.5941   24.0735   -2.1517 O   0  0  0  0  0  0  0  0  0  0  0  0
   14.9873   23.9089   -1.6854 C   0  0  0  0  0  0  0  0  0  0  0  0
   15.1763   25.3351   -2.1903 C   0  0  0  0  0  0  0  0  0  0  0  0
   15.7435   25.3894   -3.5428 C   0  0  0  0  0  0  0  0  0  0  0  0
   15.0670   24.4985   -4.4826 N   0  0  0  0  0  0  0  0  0  0  0  0
   14.7376   23.2438   -4.0713 C   0  0  0  0  0  0  0  0  0  0  0  0
   15.3849   22.9087   -2.7077 C   0  0  0  0  0  0  0  0  0  0  0  0
   18.7504   24.3322    1.6208 C   0  0  0  0  0  0  0  0  0  0  0  0
   17.4193   24.1340    1.2391 C   0  0  0  0  0  0  0  0  0  0  0  0
   17.0107   23.9186   -0.0455 C   0  0  0  0  0  0  0  0  0  0  0  0
   17.9955   23.9160   -0.9849 N   0  0  0  0  0  0  0  0  0  0  0  0
   19.2983   24.1074   -0.6147 C   0  0  0  0  0  0  0  0  0  0  0  0
   19.6517   24.3089    0.6563 N   0  0  0  0  0  0  0  0  0  0  0  0
   20.2074   24.5190    3.6153 C   0  0  0  0  0  0  0  0  0  0  0  0
   18.9641   24.5327    2.9650 O   0  0  0  0  0  0  0  0  0  0  0  0
   12.0394   23.1185    0.4564 C   0  0  0  0  0  0  0  0  0  0  0  0
   11.3688   24.2376    0.9755 C   0  0  0  0  0  0  0  0  0  0  0  0
   10.0363   24.1995    1.2490 C   0  0  0  0  0  0  0  0  0  0  0  0
    9.3272   23.0238    1.0106 C   0  0  0  0  0  0  0  0  0  0  0  0
   10.0151   21.9355    0.5091 C   0  0  0  0  0  0  0  0  0  0  0  0
   11.3600   21.9670    0.2274 C   0  0  0  0  0  0  0  0  0  0  0  0
    7.9003   22.9560    1.2073 C   0  0  0  0  0  0  0  0  0  0  0  0
    7.1015   22.4592    0.1434 O   0  0  0  0  0  0  0  0  0  0  0  0
    7.3710   23.3197    2.2543 O   0  0  0  0  0  0  0  0  0  0  0  0
    7.2780   22.9804   -0.7525 H   0  0  0  0  0  0  0  0  0  0  0  0
   14.7497   25.1434   -5.6666 C   0  0  0  0  0  0  0  0  0  0  0  0
   15.0948   26.5812   -5.8044 C   0  0  0  0  0  0  0  0  0  0  0  0
   14.9170   27.5527   -4.9245 N   0  0  0  0  0  0  0  0  0  0  0  0
   15.4366   28.8026   -5.1093 C   0  0  0  0  0  0  0  0  0  0  0  0
   16.1616   29.0092   -6.2734 C   0  0  0  0  0  0  0  0  0  0  0  0
   16.3598   28.0166   -7.2097 C   0  0  0  0  0  0  0  0  0  0  0  0
   15.8387   26.7816   -7.0091 C   0  0  0  0  0  0  0  0  0  0  0  0
   15.8808   25.6486   -7.9884 C   0  0  0  0  0  0  0  0  0  0  0  0
 19 20  1  0  0  0
 20 13  1  0  0  0
 13 14  2  0  0  0
 14 15  1  0  0  0
 15 16  2  0  0  0
 16 17  1  0  0  0
 17 18  2  0  0  0
 15  1  1  0  0  0
  1  2  1  0  0  0
  2  3  2  0  0  0
  2  4  1  0  0  0
  4  5  1  0  0  0
  5  6  2  0  0  0
  5  7  1  0  0  0
  7  8  1  0  0  0
  8  9  1  0  0  0
  9 10  1  0  0  0
 10 31  1  0  0  0
 31 32  1  0  0  0
 32 33  2  0  0  0
 33 34  1  0  0  0
 34 35  2  0  0  0
 35 36  1  0  0  0
 36 37  2  0  0  0
 37 38  1  0  0  0
 10 11  1  0  0  0
 11 12  1  0  0  0
  4 21  1  0  0  0
 21 22  2  0  0  0
 22 23  1  0  0  0
 23 24  2  0  0  0
 24 25  1  0  0  0
 25 26  2  0  0  0
 24 27  1  0  0  0
 27 28  1  0  0  0
 27 29  2  0  0  0
 18 13  1  0  0  0
  7  1  1  0  0  0
 12  7  1  0  0  0
 26 21  1  0  0  0
 37 32  1  0  0  0
 28 30  1  0  0  0
M  END
> <minimizedAffinity>
10.61332

> <CNNscore>
0.6303875446

> <CNNaffinity>
7.8880691528

> <CNN_VS>
4.9725403786

> <CNNaffinity_variance>
0.7099877000

$$$$
[H]OC(=O)c1c([H])c([H])c(N2C(=O)N(c3nc([H])nc(OC([H])([H])[H])c3[H])C3(C2=O)C([H])([H])C([H])([H])N(C([H])([H])c2nc([H])c([H])c([H])c2C([H])([H])[H])C([H])([H])C3([H])[H])c([H])c1[H]


 38 42  0  0  0  0  0  0  0  0999 V2000
   13.9065   25.4032   -2.4104 N   0  0  0  0  0  0  0  0  0  0  0  0
   15.1931   25.5658   -1.7790 C   0  0  0  0  0  0  0  0  0  0  0  0
   16.1733   26.2409   -2.2807 O   0  0  0  0  0  0  0  0  0  0  0  0
   15.2244   24.8907   -0.5784 N   0  0  0  0  0  0  0  0  0  0  0  0
   13.9341   24.2576   -0.4054 C   0  0  0  0  0  0  0  0  0  0  0  0
   13.6096   23.6569    0.6344 O   0  0  0  0  0  0  0  0  0  0  0  0
   13.1337   24.4596   -1.6242 C   0  0  0  0  0  0  0  0  0  0  0  0
   11.8383   25.0864   -1.1206 C   0  0  0  0  0  0  0  0  0  0  0  0
   10.6512   24.2969   -1.4689 C   0  0  0  0  0  0  0  0  0  0  0  0
   10.7979   22.8767   -1.1586 N   0  0  0  0  0  0  0  0  0  0  0  0
   11.9761   22.2623   -1.4525 C   0  0  0  0  0  0  0  0  0  0  0  0
   12.8857   23.1687   -2.3138 C   0  0  0  0  0  0  0  0  0  0  0  0
   11.9438   27.5821   -4.7781 C   0  0  0  0  0  0  0  0  0  0  0  0
   12.3638   26.8678   -3.6511 C   0  0  0  0  0  0  0  0  0  0  0  0
   13.5063   26.1230   -3.5934 C   0  0  0  0  0  0  0  0  0  0  0  0
   14.2487   26.0928   -4.7337 N   0  0  0  0  0  0  0  0  0  0  0  0
   13.8420   26.7919   -5.8368 C   0  0  0  0  0  0  0  0  0  0  0  0
   12.7187   27.5123   -5.8449 N   0  0  0  0  0  0  0  0  0  0  0  0
   10.6219   29.6711   -4.6212 C   0  0  0  0  0  0  0  0  0  0  0  0
   10.7632   28.2753   -4.6419 O   0  0  0  0  0  0  0  0  0  0  0  0
   16.2165   24.7492    0.4530 C   0  0  0  0  0  0  0  0  0  0  0  0
   16.9446   23.5488    0.4250 C   0  0  0  0  0  0  0  0  0  0  0  0
   18.0616   23.3815    1.1839 C   0  0  0  0  0  0  0  0  0  0  0  0
   18.4868   24.4232    2.0061 C   0  0  0  0  0  0  0  0  0  0  0  0
   17.7451   25.5889    2.0209 C   0  0  0  0  0  0  0  0  0  0  0  0
   16.6177   25.7668    1.2551 C   0  0  0  0  0  0  0  0  0  0  0  0
   19.7071   24.3267    2.7682 C   0  0  0  0  0  0  0  0  0  0  0  0
   19.6121   24.3225    4.1850 O   0  0  0  0  0  0  0  0  0  0  0  0
   20.8073   24.2571    2.2264 O   0  0  0  0  0  0  0  0  0  0  0  0
   19.0752   25.1530    4.5420 H   0  0  0  0  0  0  0  0  0  0  0  0
    9.6993   22.3825   -0.4751 C   0  0  0  0  0  0  0  0  0  0  0  0
    9.4552   22.8570    0.9107 C   0  0  0  0  0  0  0  0  0  0  0  0
    8.7610   23.9122    1.3034 N   0  0  0  0  0  0  0  0  0  0  0  0
    8.4696   24.1403    2.6184 C   0  0  0  0  0  0  0  0  0  0  0  0
    8.9424   23.2093    3.5311 C   0  0  0  0  0  0  0  0  0  0  0  0
    9.6716   22.1024    3.1511 C   0  0  0  0  0  0  0  0  0  0  0  0
    9.9497   21.8906    1.8416 C   0  0  0  0  0  0  0  0  0  0  0  0
   10.8206   20.7978    1.3015 C   0  0  0  0  0  0  0  0  0  0  0  0
 19 20  1  0  0  0
 20 13  1  0  0  0
 13 14  2  0  0  0
 14 15  1  0  0  0
 15 16  2  0  0  0
 16 17  1  0  0  0
 17 18  2  0  0  0
 15  1  1  0  0  0
  1  2  1  0  0  0
  2  3  2  0  0  0
  2  4  1  0  0  0
  4  5  1  0  0  0
  5  6  2  0  0  0
  5  7  1  0  0  0
  7  8  1  0  0  0
  8  9  1  0  0  0
  9 10  1  0  0  0
 10 31  1  0  0  0
 31 32  1  0  0  0
 32 33  2  0  0  0
 33 34  1  0  0  0
 34 35  2  0  0  0
 35 36  1  0  0  0
 36 37  2  0  0  0
 37 38  1  0  0  0
 10 11  1  0  0  0
 11 12  1  0  0  0
  4 21  1  0  0  0
 21 22  2  0  0  0
 22 23  1  0  0  0
 23 24  2  0  0  0
 24 25  1  0  0  0
 25 26  2  0  0  0
 24 27  1  0  0  0
 27 28  1  0  0  0
 27 29  2  0  0  0
 18 13  1  0  0  0
  7  1  1  0  0  0
 12  7  1  0  0  0
 26 21  1  0  0  0
 37 32  1  0  0  0
 28 30  1  0  0  0
M  END
> <minimizedAffinity>
17.62932

> <CNNscore>
0.6286576390

> <CNNaffinity>
7.6466569901

> <CNN_VS>
4.8071293831

> <CNNaffinity_variance>
0.9173776507

$$$$
[H]OC(=O)c1c([H])c([H])c(N2C(=O)N(c3nc([H])nc(OC([H])([H])[H])c3[H])C3(C2=O)C([H])([H])C([H])([H])N(C([H])([H])c2nc([H])c([H])c([H])c2C([H])([H])[H])C([H])([H])C3([H])[H])c([H])c1[H]


 38 42  0  0  0  0  0  0  0  0999 V2000
   14.8163   24.0524   -0.7588 N   0  0  0  0  0  0  0  0  0  0  0  0
   15.5158   24.8349   -1.7481 C   0  0  0  0  0  0  0  0  0  0  0  0
   16.8006   24.9497   -1.8144 O   0  0  0  0  0  0  0  0  0  0  0  0
   14.6178   25.4451   -2.5963 N   0  0  0  0  0  0  0  0  0  0  0  0
   13.2892   25.0686   -2.1619 C   0  0  0  0  0  0  0  0  0  0  0  0
   12.2603   25.3748   -2.7900 O   0  0  0  0  0  0  0  0  0  0  0  0
   13.3942   24.2961   -0.9133 C   0  0  0  0  0  0  0  0  0  0  0  0
   12.6387   23.0050   -1.2083 C   0  0  0  0  0  0  0  0  0  0  0  0
   11.5224   22.7750   -0.2837 C   0  0  0  0  0  0  0  0  0  0  0  0
   10.6709   23.9497   -0.1119 N   0  0  0  0  0  0  0  0  0  0  0  0
   11.2599   25.1689    0.0250 C   0  0  0  0  0  0  0  0  0  0  0  0
   12.7881   25.0385    0.2203 C   0  0  0  0  0  0  0  0  0  0  0  0
   17.2907   22.6774    1.7297 C   0  0  0  0  0  0  0  0  0  0  0  0
   16.6218   23.5089    0.8253 C   0  0  0  0  0  0  0  0  0  0  0  0
   15.4781   23.1647    0.1641 C   0  0  0  0  0  0  0  0  0  0  0  0
   14.9996   21.9173    0.4238 N   0  0  0  0  0  0  0  0  0  0  0  0
   15.6502   21.1026    1.3091 C   0  0  0  0  0  0  0  0  0  0  0  0
   16.7638   21.4848    1.9375 N   0  0  0  0  0  0  0  0  0  0  0  0
   19.0114   24.4407    1.9857 C   0  0  0  0  0  0  0  0  0  0  0  0
   18.4284   23.2031    2.2973 O   0  0  0  0  0  0  0  0  0  0  0  0
   14.7628   26.2867   -3.7534 C   0  0  0  0  0  0  0  0  0  0  0  0
   15.5700   27.4215   -3.5731 C   0  0  0  0  0  0  0  0  0  0  0  0
   15.9835   28.1704   -4.6313 C   0  0  0  0  0  0  0  0  0  0  0  0
   15.5937   27.8026   -5.9177 C   0  0  0  0  0  0  0  0  0  0  0  0
   14.7911   26.6875   -6.0639 C   0  0  0  0  0  0  0  0  0  0  0  0
   14.3719   25.9241   -5.0006 C   0  0  0  0  0  0  0  0  0  0  0  0
   16.0699   28.5145   -7.0777 C   0  0  0  0  0  0  0  0  0  0  0  0
   16.0372   29.9339   -7.0513 O   0  0  0  0  0  0  0  0  0  0  0  0
   16.4884   27.9285   -8.0728 O   0  0  0  0  0  0  0  0  0  0  0  0
   15.0774   30.2973   -6.8229 H   0  0  0  0  0  0  0  0  0  0  0  0
    9.3278   23.6352   -0.2366 C   0  0  0  0  0  0  0  0  0  0  0  0
    8.5854   23.2063    0.9760 C   0  0  0  0  0  0  0  0  0  0  0  0
    8.3231   23.9091    2.0654 N   0  0  0  0  0  0  0  0  0  0  0  0
    7.4812   23.4510    3.0388 C   0  0  0  0  0  0  0  0  0  0  0  0
    6.9123   22.2030    2.8328 C   0  0  0  0  0  0  0  0  0  0  0  0
    7.1703   21.4468    1.7091 C   0  0  0  0  0  0  0  0  0  0  0  0
    8.0068   21.9178    0.7522 C   0  0  0  0  0  0  0  0  0  0  0  0
    8.4610   21.1604   -0.4579 C   0  0  0  0  0  0  0  0  0  0  0  0
 19 20  1  0  0  0
 20 13  1  0  0  0
 13 14  2  0  0  0
 14 15  1  0  0  0
 15 16  2  0  0  0
 16 17  1  0  0  0
 17 18  2  0  0  0
 15  1  1  0  0  0
  1  2  1  0  0  0
  2  3  2  0  0  0
  2  4  1  0  0  0
  4  5  1  0  0  0
  5  6  2  0  0  0
  5  7  1  0  0  0
  7  8  1  0  0  0
  8  9  1  0  0  0
  9 10  1  0  0  0
 10 31  1  0  0  0
 31 32  1  0  0  0
 32 33  2  0  0  0
 33 34  1  0  0  0
 34 35  2  0  0  0
 35 36  1  0  0  0
 36 37  2  0  0  0
 37 38  1  0  0  0
 10 11  1  0  0  0
 11 12  1  0  0  0
  4 21  1  0  0  0
 21 22  2  0  0  0
 22 23  1  0  0  0
 23 24  2  0  0  0
 24 25  1  0  0  0
 25 26  2  0  0  0
 24 27  1  0  0  0
 27 28  1  0  0  0
 27 29  2  0  0  0
 18 13  1  0  0  0
  7  1  1  0  0  0
 12  7  1  0  0  0
 26 21  1  0  0  0
 37 32  1  0  0  0
 28 30  1  0  0  0
M  END
> <minimizedAffinity>
4.61610

> <CNNscore>
0.6119974256

> <CNNaffinity>
7.6257944107

> <CNN_VS>
4.6669664383

> <CNNaffinity_variance>
0.4810363650

$$$$
[H]OC(=O)c1c([H])c([H])c(N2C(=O)N(c3nc([H])nc(OC([H])([H])[H])c3[H])C3(C2=O)C([H])([H])C([H])([H])N(C([H])([H])c2nc([H])c([H])c([H])c2C([H])([H])[H])C([H])([H])C3([H])[H])c([H])c1[H]


 38 42  0  0  0  0  0  0  0  0999 V2000
   14.8713   23.6830   -0.5010 N   0  0  0  0  0  0  0  0  0  0  0  0
   15.5935   24.5164   -1.4307 C   0  0  0  0  0  0  0  0  0  0  0  0
   16.8808   24.5557   -1.5294 O   0  0  0  0  0  0  0  0  0  0  0  0
   14.7148   25.2655   -2.1823 N   0  0  0  0  0  0  0  0  0  0  0  0
   13.3767   24.9315   -1.7422 C   0  0  0  0  0  0  0  0  0  0  0  0
   12.3533   25.3648   -2.3008 O   0  0  0  0  0  0  0  0  0  0  0  0
   13.4648   24.0307   -0.5814 C   0  0  0  0  0  0  0  0  0  0  0  0
   12.6172   22.8269   -0.9778 C   0  0  0  0  0  0  0  0  0  0  0  0
   11.5143   22.5750   -0.0429 C   0  0  0  0  0  0  0  0  0  0  0  0
   10.7478   23.7777    0.2746 N   0  0  0  0  0  0  0  0  0  0  0  0
   11.4202   24.9367    0.5124 C   0  0  0  0  0  0  0  0  0  0  0  0
   12.9412   24.6905    0.6410 C   0  0  0  0  0  0  0  0  0  0  0  0
   15.8734   20.3163    0.8656 C   0  0  0  0  0  0  0  0  0  0  0  0
   15.2820   21.3323    0.1074 C   0  0  0  0  0  0  0  0  0  0  0  0
   15.4981   22.6656    0.3052 C   0  0  0  0  0  0  0  0  0  0  0  0
   16.3424   22.9812    1.3250 N   0  0  0  0  0  0  0  0  0  0  0  0
   16.9239   21.9901    2.0669 C   0  0  0  0  0  0  0  0  0  0  0  0
   16.6871   20.6978    1.8328 N   0  0  0  0  0  0  0  0  0  0  0  0
   16.2689   18.1807   -0.3253 C   0  0  0  0  0  0  0  0  0  0  0  0
   15.5324   19.0308    0.5134 O   0  0  0  0  0  0  0  0  0  0  0  0
   14.8831   26.2098   -3.2537 C   0  0  0  0  0  0  0  0  0  0  0  0
   16.1499   26.8107   -3.3309 C   0  0  0  0  0  0  0  0  0  0  0  0
   16.5234   27.5358   -4.4202 C   0  0  0  0  0  0  0  0  0  0  0  0
   15.6272   27.6852   -5.4768 C   0  0  0  0  0  0  0  0  0  0  0  0
   14.3843   27.0913   -5.3690 C   0  0  0  0  0  0  0  0  0  0  0  0
   14.0007   26.3550   -4.2736 C   0  0  0  0  0  0  0  0  0  0  0  0
   16.0023   28.3749   -6.6863 C   0  0  0  0  0  0  0  0  0  0  0  0
   16.6936   27.6420   -7.6871 O   0  0  0  0  0  0  0  0  0  0  0  0
   15.7476   29.5636   -6.8617 O   0  0  0  0  0  0  0  0  0  0  0  0
   17.5539   27.1748   -7.3036 H   0  0  0  0  0  0  0  0  0  0  0  0
    9.3839   23.5632    0.1654 C   0  0  0  0  0  0  0  0  0  0  0  0
    8.9109   22.2351   -0.3013 C   0  0  0  0  0  0  0  0  0  0  0  0
    9.3893   21.4978   -1.2897 N   0  0  0  0  0  0  0  0  0  0  0  0
    8.9716   20.2152   -1.5057 C   0  0  0  0  0  0  0  0  0  0  0  0
    8.0117   19.7187   -0.6364 C   0  0  0  0  0  0  0  0  0  0  0  0
    7.4924   20.4654    0.3999 C   0  0  0  0  0  0  0  0  0  0  0  0
    7.9200   21.7357    0.6009 C   0  0  0  0  0  0  0  0  0  0  0  0
    7.3651   22.6923    1.6116 C   0  0  0  0  0  0  0  0  0  0  0  0
 19 20  1  0  0  0
 20 13  1  0  0  0
 13 14  2  0  0  0
 14 15  1  0  0  0
 15 16  2  0  0  0
 16 17  1  0  0  0
 17 18  2  0  0  0
 15  1  1  0  0  0
  1  2  1  0  0  0
  2  3  2  0  0  0
  2  4  1  0  0  0
  4  5  1  0  0  0
  5  6  2  0  0  0
  5  7  1  0  0  0
  7  8  1  0  0  0
  8  9  1  0  0  0
  9 10  1  0  0  0
 10 31  1  0  0  0
 31 32  1  0  0  0
 32 33  2  0  0  0
 33 34  1  0  0  0
 34 35  2  0  0  0
 35 36  1  0  0  0
 36 37  2  0  0  0
 37 38  1  0  0  0
 10 11  1  0  0  0
 11 12  1  0  0  0
  4 21  1  0  0  0
 21 22  2  0  0  0
 22 23  1  0  0  0
 23 24  2  0  0  0
 24 25  1  0  0  0
 25 26  2  0  0  0
 24 27  1  0  0  0
 27 28  1  0  0  0
 27 29  2  0  0  0
 18 13  1  0  0  0
  7  1  1  0  0  0
 12  7  1  0  0  0
 26 21  1  0  0  0
 37 32  1  0  0  0
 28 30  1  0  0  0
M  END
> <minimizedAffinity>
6.19818

> <CNNscore>
0.6045331359

> <CNNaffinity>
7.7861108780

> <CNN_VS>
4.7069621086

> <CNNaffinity_variance>
0.6036978960

$$$$
[H]OC(=O)c1c([H])c([H])c(N2C(=O)N(c3nc([H])nc(OC([H])([H])[H])c3[H])C3(C2=O)C([H])([H])C([H])([H])N(C([H])([H])c2nc([H])c([H])c([H])c2C([H])([H])[H])C([H])([H])C3([H])[H])c([H])c1[H]


 38 42  0  0  0  0  0  0  0  0999 V2000
   14.4535   23.5834   -0.6592 N   0  0  0  0  0  0  0  0  0  0  0  0
   15.2172   24.3539   -1.6098 C   0  0  0  0  0  0  0  0  0  0  0  0
   16.5016   24.2967   -1.7333 O   0  0  0  0  0  0  0  0  0  0  0  0
   14.3819   25.1609   -2.3510 N   0  0  0  0  0  0  0  0  0  0  0  0
   13.0317   24.9305   -1.8826 C   0  0  0  0  0  0  0  0  0  0  0  0
   12.0324   25.4346   -2.4254 O   0  0  0  0  0  0  0  0  0  0  0  0
   13.0754   24.0341   -0.7159 C   0  0  0  0  0  0  0  0  0  0  0  0
   12.1332   22.8938   -1.0855 C   0  0  0  0  0  0  0  0  0  0  0  0
   11.0332   22.7314   -0.1276 C   0  0  0  0  0  0  0  0  0  0  0  0
   10.3645   23.9900    0.1939 N   0  0  0  0  0  0  0  0  0  0  0  0
   11.1255   25.0976    0.4087 C   0  0  0  0  0  0  0  0  0  0  0  0
   12.6264   24.7399    0.5104 C   0  0  0  0  0  0  0  0  0  0  0  0
   14.7892   20.4405    1.3940 C   0  0  0  0  0  0  0  0  0  0  0  0
   14.2770   21.4838    0.6156 C   0  0  0  0  0  0  0  0  0  0  0  0
   15.0188   22.5281    0.1437 C   0  0  0  0  0  0  0  0  0  0  0  0
   16.3358   22.5185    0.4871 N   0  0  0  0  0  0  0  0  0  0  0  0
   16.8402   21.4987    1.2463 C   0  0  0  0  0  0  0  0  0  0  0  0
   16.0769   20.4941    1.6809 N   0  0  0  0  0  0  0  0  0  0  0  0
   12.5987   19.7070    2.2880 C   0  0  0  0  0  0  0  0  0  0  0  0
   13.8838   19.4768    1.7739 O   0  0  0  0  0  0  0  0  0  0  0  0
   14.5988   26.0822   -3.4337 C   0  0  0  0  0  0  0  0  0  0  0  0
   15.7613   26.8634   -3.3335 C   0  0  0  0  0  0  0  0  0  0  0  0
   16.2123   27.5982   -4.3863 C   0  0  0  0  0  0  0  0  0  0  0  0
   15.5021   27.5749   -5.5850 C   0  0  0  0  0  0  0  0  0  0  0  0
   14.3564   26.8054   -5.6514 C   0  0  0  0  0  0  0  0  0  0  0  0
   13.8961   26.0581   -4.5937 C   0  0  0  0  0  0  0  0  0  0  0  0
   15.9806   28.2710   -6.7537 C   0  0  0  0  0  0  0  0  0  0  0  0
   16.0996   29.6846   -6.6880 O   0  0  0  0  0  0  0  0  0  0  0  0
   16.2745   27.6776   -7.7881 O   0  0  0  0  0  0  0  0  0  0  0  0
   15.1990   30.1380   -6.3902 H   0  0  0  0  0  0  0  0  0  0  0  0
    8.9865   23.8768    0.1126 C   0  0  0  0  0  0  0  0  0  0  0  0
    8.2545   23.2946    1.2661 C   0  0  0  0  0  0  0  0  0  0  0  0
    8.0015   23.8509    2.4391 N   0  0  0  0  0  0  0  0  0  0  0  0
    7.1679   23.2704    3.3525 C   0  0  0  0  0  0  0  0  0  0  0  0
    6.5974   22.0586    2.9923 C   0  0  0  0  0  0  0  0  0  0  0  0
    6.8459   21.4536    1.7785 C   0  0  0  0  0  0  0  0  0  0  0  0
    7.6741   22.0449    0.8832 C   0  0  0  0  0  0  0  0  0  0  0  0
    8.1181   21.4500   -0.4181 C   0  0  0  0  0  0  0  0  0  0  0  0
 19 20  1  0  0  0
 20 13  1  0  0  0
 13 14  2  0  0  0
 14 15  1  0  0  0
 15 16  2  0  0  0
 16 17  1  0  0  0
 17 18  2  0  0  0
 15  1  1  0  0  0
  1  2  1  0  0  0
  2  3  2  0  0  0
  2  4  1  0  0  0
  4  5  1  0  0  0
  5  6  2  0  0  0
  5  7  1  0  0  0
  7  8  1  0  0  0
  8  9  1  0  0  0
  9 10  1  0  0  0
 10 31  1  0  0  0
 31 32  1  0  0  0
 32 33  2  0  0  0
 33 34  1  0  0  0
 34 35  2  0  0  0
 35 36  1  0  0  0
 36 37  2  0  0  0
 37 38  1  0  0  0
 10 11  1  0  0  0
 11 12  1  0  0  0
  4 21  1  0  0  0
 21 22  2  0  0  0
 22 23  1  0  0  0
 23 24  2  0  0  0
 24 25  1  0  0  0
 25 26  2  0  0  0
 24 27  1  0  0  0
 27 28  1  0  0  0
 27 29  2  0  0  0
 18 13  1  0  0  0
  7  1  1  0  0  0
 12  7  1  0  0  0
 26 21  1  0  0  0
 37 32  1  0  0  0
 28 30  1  0  0  0
M  END
> <minimizedAffinity>
0.81175

> <CNNscore>
0.5949943662

> <CNNaffinity>
7.6215963364

> <CNN_VS>
4.5348067284

> <CNNaffinity_variance>
0.5521128774

$$$$
[H]OC(=O)c1c([H])c([H])c(N2C(=O)N(c3nc([H])nc(OC([H])([H])[H])c3[H])C3(C2=O)C([H])([H])C([H])([H])N(C([H])([H])c2nc([H])c([H])c([H])c2C([H])([H])[H])C([H])([H])C3([H])[H])c([H])c1[H]


 38 42  0  0  0  0  0  0  0  0999 V2000
   11.9909   24.2761   -0.9883 N   0  0  0  0  0  0  0  0  0  0  0  0
   12.0529   24.9636   -2.2548 C   0  0  0  0  0  0  0  0  0  0  0  0
   11.0262   25.4319   -2.8833 O   0  0  0  0  0  0  0  0  0  0  0  0
   13.3562   25.0353   -2.6957 N   0  0  0  0  0  0  0  0  0  0  0  0
   14.1833   24.3765   -1.7070 C   0  0  0  0  0  0  0  0  0  0  0  0
   15.4258   24.3648   -1.7640 O   0  0  0  0  0  0  0  0  0  0  0  0
   13.3159   23.7687   -0.6846 C   0  0  0  0  0  0  0  0  0  0  0  0
   13.8383   24.3332    0.6318 C   0  0  0  0  0  0  0  0  0  0  0  0
   14.2717   23.2883    1.5669 C   0  0  0  0  0  0  0  0  0  0  0  0
   15.1419   22.2916    0.9471 N   0  0  0  0  0  0  0  0  0  0  0  0
   14.8241   21.8273   -0.2920 C   0  0  0  0  0  0  0  0  0  0  0  0
   13.4121   22.2878   -0.7221 C   0  0  0  0  0  0  0  0  0  0  0  0
    9.5370   24.7097    1.8396 C   0  0  0  0  0  0  0  0  0  0  0  0
   10.6821   24.7704    1.0384 C   0  0  0  0  0  0  0  0  0  0  0  0
   10.7931   24.1877   -0.1911 C   0  0  0  0  0  0  0  0  0  0  0  0
    9.6977   23.5037   -0.6206 N   0  0  0  0  0  0  0  0  0  0  0  0
    8.5757   23.4442    0.1595 C   0  0  0  0  0  0  0  0  0  0  0  0
    8.5109   24.0353    1.3542 N   0  0  0  0  0  0  0  0  0  0  0  0
    9.1614   24.8736    4.2825 C   0  0  0  0  0  0  0  0  0  0  0  0
    9.6170   25.3617    3.0484 O   0  0  0  0  0  0  0  0  0  0  0  0
   13.9813   25.6282   -3.8472 C   0  0  0  0  0  0  0  0  0  0  0  0
   15.1350   24.9736   -4.3078 C   0  0  0  0  0  0  0  0  0  0  0  0
   15.6879   25.2795   -5.5129 C   0  0  0  0  0  0  0  0  0  0  0  0
   15.0964   26.2644   -6.3016 C   0  0  0  0  0  0  0  0  0  0  0  0
   13.9680   26.8987   -5.8184 C   0  0  0  0  0  0  0  0  0  0  0  0
   13.4017   26.5934   -4.6038 C   0  0  0  0  0  0  0  0  0  0  0  0
   15.5952   26.5694   -7.6197 C   0  0  0  0  0  0  0  0  0  0  0  0
   15.3185   25.6524   -8.6681 O   0  0  0  0  0  0  0  0  0  0  0  0
   16.2492   27.5837   -7.8480 O   0  0  0  0  0  0  0  0  0  0  0  0
   15.6282   24.6775   -8.4249 H   0  0  0  0  0  0  0  0  0  0  0  0
   16.2724   22.0491    1.7097 C   0  0  0  0  0  0  0  0  0  0  0  0
   17.4594   22.9197    1.5130 C   0  0  0  0  0  0  0  0  0  0  0  0
   17.7248   24.0819    2.0859 N   0  0  0  0  0  0  0  0  0  0  0  0
   18.9355   24.6994    1.9469 C   0  0  0  0  0  0  0  0  0  0  0  0
   19.8801   24.0483    1.1675 C   0  0  0  0  0  0  0  0  0  0  0  0
   19.6300   22.8384    0.5554 C   0  0  0  0  0  0  0  0  0  0  0  0
   18.4238   22.2390    0.7058 C   0  0  0  0  0  0  0  0  0  0  0  0
   17.9800   20.9877    0.0118 C   0  0  0  0  0  0  0  0  0  0  0  0
 19 20  1  0  0  0
 20 13  1  0  0  0
 13 14  2  0  0  0
 14 15  1  0  0  0
 15 16  2  0  0  0
 16 17  1  0  0  0
 17 18  2  0  0  0
 15  1  1  0  0  0
  1  2  1  0  0  0
  2  3  2  0  0  0
  2  4  1  0  0  0
  4  5  1  0  0  0
  5  6  2  0  0  0
  5  7  1  0  0  0
  7  8  1  0  0  0
  8  9  1  0  0  0
  9 10  1  0  0  0
 10 31  1  0  0  0
 31 32  1  0  0  0
 32 33  2  0  0  0
 33 34  1  0  0  0
 34 35  2  0  0  0
 35 36  1  0  0  0
 36 37  2  0  0  0
 37 38  1  0  0  0
 10 11  1  0  0  0
 11 12  1  0  0  0
  4 21  1  0  0  0
 21 22  2  0  0  0
 22 23  1  0  0  0
 23 24  2  0  0  0
 24 25  1  0  0  0
 25 26  2  0  0  0
 24 27  1  0  0  0
 27 28  1  0  0  0
 27 29  2  0  0  0
 18 13  1  0  0  0
  7  1  1  0  0  0
 12  7  1  0  0  0
 26 21  1  0  0  0
 37 32  1  0  0  0
 28 30  1  0  0  0
M  END
> <minimizedAffinity>
17.69934

> <CNNscore>
0.5948823094

> <CNNaffinity>
7.6078391075

> <CNN_VS>
4.5257687569

> <CNNaffinity_variance>
0.6091282964

$$$$
[H]OC(=O)c1c([H])c([H])c(N2C(=O)N(c3nc([H])nc(OC([H])([H])[H])c3[H])C3(C2=O)C([H])([H])C([H])([H])N(C([H])([H])c2nc([H])c([H])c([H])c2C([H])([H])[H])C([H])([H])C3([H])[H])c([H])c1[H]


 38 42  0  0  0  0  0  0  0  0999 V2000
   11.1060   24.8337    0.5626 N   0  0  0  0  0  0  0  0  0  0  0  0
   11.5067   25.9174   -0.3007 C   0  0  0  0  0  0  0  0  0  0  0  0
   11.0364   27.1185   -0.2325 O   0  0  0  0  0  0  0  0  0  0  0  0
   12.4479   25.4820   -1.2079 N   0  0  0  0  0  0  0  0  0  0  0  0
   12.6774   24.0760   -0.9506 C   0  0  0  0  0  0  0  0  0  0  0  0
   13.5535   23.4156   -1.5367 O   0  0  0  0  0  0  0  0  0  0  0  0
   11.7322   23.6169    0.0802 C   0  0  0  0  0  0  0  0  0  0  0  0
   12.6207   22.9887    1.1483 C   0  0  0  0  0  0  0  0  0  0  0  0
   12.2963   21.5801    1.4020 C   0  0  0  0  0  0  0  0  0  0  0  0
   12.1713   20.7926    0.1777 N   0  0  0  0  0  0  0  0  0  0  0  0
   11.5059   21.3313   -0.8802 C   0  0  0  0  0  0  0  0  0  0  0  0
   10.7731   22.6333   -0.4822 C   0  0  0  0  0  0  0  0  0  0  0  0
    8.4933   24.2226    3.2096 C   0  0  0  0  0  0  0  0  0  0  0  0
    9.3274   24.0892    2.0946 C   0  0  0  0  0  0  0  0  0  0  0  0
   10.2624   25.0099    1.7181 C   0  0  0  0  0  0  0  0  0  0  0  0
   10.3459   26.1198    2.5014 N   0  0  0  0  0  0  0  0  0  0  0  0
    9.5332   26.2523    3.5936 C   0  0  0  0  0  0  0  0  0  0  0  0
    8.6363   25.3219    3.9268 N   0  0  0  0  0  0  0  0  0  0  0  0
    6.6315   23.1329    4.4269 C   0  0  0  0  0  0  0  0  0  0  0  0
    7.6142   23.1868    3.4268 O   0  0  0  0  0  0  0  0  0  0  0  0
   13.1971   26.1339   -2.2480 C   0  0  0  0  0  0  0  0  0  0  0  0
   14.5773   25.8759   -2.2456 C   0  0  0  0  0  0  0  0  0  0  0  0
   15.3646   26.2296   -3.2976 C   0  0  0  0  0  0  0  0  0  0  0  0
   14.7865   26.8631   -4.3961 C   0  0  0  0  0  0  0  0  0  0  0  0
   13.4280   27.1133   -4.3664 C   0  0  0  0  0  0  0  0  0  0  0  0
   12.6256   26.7564   -3.3091 C   0  0  0  0  0  0  0  0  0  0  0  0
   15.5611   27.1858   -5.5688 C   0  0  0  0  0  0  0  0  0  0  0  0
   15.9896   28.5290   -5.7383 O   0  0  0  0  0  0  0  0  0  0  0  0
   15.8457   26.3395   -6.4123 O   0  0  0  0  0  0  0  0  0  0  0  0
   15.1849   29.2039   -5.6890 H   0  0  0  0  0  0  0  0  0  0  0  0
   12.8848   19.6078    0.2520 C   0  0  0  0  0  0  0  0  0  0  0  0
   14.3631   19.6779    0.3758 C   0  0  0  0  0  0  0  0  0  0  0  0
   15.1235   19.2267    1.3594 N   0  0  0  0  0  0  0  0  0  0  0  0
   16.4865   19.2017    1.2696 C   0  0  0  0  0  0  0  0  0  0  0  0
   17.0412   19.6791    0.0915 C   0  0  0  0  0  0  0  0  0  0  0  0
   16.2736   20.1588   -0.9487 C   0  0  0  0  0  0  0  0  0  0  0  0
   14.9224   20.1742   -0.8431 C   0  0  0  0  0  0  0  0  0  0  0  0
   13.9771   20.7668   -1.8430 C   0  0  0  0  0  0  0  0  0  0  0  0
 19 20  1  0  0  0
 20 13  1  0  0  0
 13 14  2  0  0  0
 14 15  1  0  0  0
 15 16  2  0  0  0
 16 17  1  0  0  0
 17 18  2  0  0  0
 15  1  1  0  0  0
  1  2  1  0  0  0
  2  3  2  0  0  0
  2  4  1  0  0  0
  4  5  1  0  0  0
  5  6  2  0  0  0
  5  7  1  0  0  0
  7  8  1  0  0  0
  8  9  1  0  0  0
  9 10  1  0  0  0
 10 31  1  0  0  0
 31 32  1  0  0  0
 32 33  2  0  0  0
 33 34  1  0  0  0
 34 35  2  0  0  0
 35 36  1  0  0  0
 36 37  2  0  0  0
 37 38  1  0  0  0
 10 11  1  0  0  0
 11 12  1  0  0  0
  4 21  1  0  0  0
 21 22  2  0  0  0
 22 23  1  0  0  0
 23 24  2  0  0  0
 24 25  1  0  0  0
 25 26  2  0  0  0
 24 27  1  0  0  0
 27 28  1  0  0  0
 27 29  2  0  0  0
 18 13  1  0  0  0
  7  1  1  0  0  0
 12  7  1  0  0  0
 26 21  1  0  0  0
 37 32  1  0  0  0
 28 30  1  0  0  0
M  END
> <minimizedAffinity>
20.40524

> <CNNscore>
0.5913520455

> <CNNaffinity>
7.2387795448

> <CNN_VS>
4.2806673050

> <CNNaffinity_variance>
0.7334717512

$$$$
[H]OC(=O)c1c([H])c([H])c(N2C(=O)N(c3nc([H])nc(OC([H])([H])[H])c3[H])C3(C2=O)C([H])([H])C([H])([H])N(C([H])([H])c2nc([H])c([H])c([H])c2C([H])([H])[H])C([H])([H])C3([H])[H])c([H])c1[H]


 38 42  0  0  0  0  0  0  0  0999 V2000
   13.8722   23.1070   -0.5099 N   0  0  0  0  0  0  0  0  0  0  0  0
   14.6605   23.7666   -1.5219 C   0  0  0  0  0  0  0  0  0  0  0  0
   15.8371   23.3860   -1.8952 O   0  0  0  0  0  0  0  0  0  0  0  0
   13.9832   24.8591   -2.0177 N   0  0  0  0  0  0  0  0  0  0  0  0
   12.7180   24.9363   -1.3186 C   0  0  0  0  0  0  0  0  0  0  0  0
   11.8311   25.7569   -1.6143 O   0  0  0  0  0  0  0  0  0  0  0  0
   12.6910   23.9122   -0.2617 C   0  0  0  0  0  0  0  0  0  0  0  0
   11.4146   23.1250   -0.5370 C   0  0  0  0  0  0  0  0  0  0  0  0
   10.4842   23.1345    0.5980 C   0  0  0  0  0  0  0  0  0  0  0  0
   10.2656   24.4708    1.1469 N   0  0  0  0  0  0  0  0  0  0  0  0
   11.3364   25.2959    1.3030 C   0  0  0  0  0  0  0  0  0  0  0  0
   12.6676   24.5407    1.0830 C   0  0  0  0  0  0  0  0  0  0  0  0
   13.7625   19.9751    1.5843 C   0  0  0  0  0  0  0  0  0  0  0  0
   13.4483   21.2042    0.9949 C   0  0  0  0  0  0  0  0  0  0  0  0
   14.2334   21.8411    0.0775 C   0  0  0  0  0  0  0  0  0  0  0  0
   15.3937   21.2078   -0.2466 N   0  0  0  0  0  0  0  0  0  0  0  0
   15.7028   20.0049    0.3263 C   0  0  0  0  0  0  0  0  0  0  0  0
   14.9005   19.4164    1.2156 N   0  0  0  0  0  0  0  0  0  0  0  0
   11.7030   20.1673    2.9471 C   0  0  0  0  0  0  0  0  0  0  0  0
   12.8437   19.4920    2.4872 O   0  0  0  0  0  0  0  0  0  0  0  0
   14.2771   25.8262   -3.0407 C   0  0  0  0  0  0  0  0  0  0  0  0
   15.5004   26.5002   -2.8962 C   0  0  0  0  0  0  0  0  0  0  0  0
   16.0120   27.2604   -3.9021 C   0  0  0  0  0  0  0  0  0  0  0  0
   15.3035   27.3724   -5.0969 C   0  0  0  0  0  0  0  0  0  0  0  0
   14.0979   26.7064   -5.2071 C   0  0  0  0  0  0  0  0  0  0  0  0
   13.5761   25.9342   -4.1969 C   0  0  0  0  0  0  0  0  0  0  0  0
   15.8395   28.0992   -6.2211 C   0  0  0  0  0  0  0  0  0  0  0  0
   15.8465   29.5178   -6.1582 O   0  0  0  0  0  0  0  0  0  0  0  0
   16.2749   27.5266   -7.2167 O   0  0  0  0  0  0  0  0  0  0  0  0
   14.8902   29.9035   -5.9527 H   0  0  0  0  0  0  0  0  0  0  0  0
    8.9187   24.7412    1.3238 C   0  0  0  0  0  0  0  0  0  0  0  0
    8.3930   24.8440    2.7088 C   0  0  0  0  0  0  0  0  0  0  0  0
    8.5608   25.8284    3.5761 N   0  0  0  0  0  0  0  0  0  0  0  0
    7.8794   25.8767    4.7592 C   0  0  0  0  0  0  0  0  0  0  0  0
    6.9994   24.8354    5.0134 C   0  0  0  0  0  0  0  0  0  0  0  0
    6.8070   23.7945    4.1298 C   0  0  0  0  0  0  0  0  0  0  0  0
    7.4900   23.7637    2.9595 C   0  0  0  0  0  0  0  0  0  0  0  0
    7.4629   22.6445    1.9639 C   0  0  0  0  0  0  0  0  0  0  0  0
 19 20  1  0  0  0
 20 13  1  0  0  0
 13 14  2  0  0  0
 14 15  1  0  0  0
 15 16  2  0  0  0
 16 17  1  0  0  0
 17 18  2  0  0  0
 15  1  1  0  0  0
  1  2  1  0  0  0
  2  3  2  0  0  0
  2  4  1  0  0  0
  4  5  1  0  0  0
  5  6  2  0  0  0
  5  7  1  0  0  0
  7  8  1  0  0  0
  8  9  1  0  0  0
  9 10  1  0  0  0
 10 31  1  0  0  0
 31 32  1  0  0  0
 32 33  2  0  0  0
 33 34  1  0  0  0
 34 35  2  0  0  0
 35 36  1  0  0  0
 36 37  2  0  0  0
 37 38  1  0  0  0
 10 11  1  0  0  0
 11 12  1  0  0  0
  4 21  1  0  0  0
 21 22  2  0  0  0
 22 23  1  0  0  0
 23 24  2  0  0  0
 24 25  1  0  0  0
 25 26  2  0  0  0
 24 27  1  0  0  0
 27 28  1  0  0  0
 27 29  2  0  0  0
 18 13  1  0  0  0
  7  1  1  0  0  0
 12  7  1  0  0  0
 26 21  1  0  0  0
 37 32  1  0  0  0
 28 30  1  0  0  0
M  END
> <minimizedAffinity>
-1.62128

> <CNNscore>
0.5558621287

> <CNNaffinity>
7.1812639236

> <CNN_VS>
3.9917926788

> <CNNaffinity_variance>
0.1916712970

$$$$
[H]OC(=O)c1c([H])c([H])c(-c2c([H])c([H])c(N3C(=O)N(c4c([H])c([H])c(C#N)c([H])c4[H])C(=O)C34C([H])([H])C([H])([H])N(C([H])([H])c3nc([H])c([H])c([H])c3C([H])([H])[H])C([H])([H])C4([H])[H])c([H])c2[H])c([H])c1[H]


 44 49  0  0  0  0  0  0  0  0999 V2000
   14.1051   26.0109   -3.8693 N   0  0  0  0  0  0  0  0  0  0  0  0
   14.2398   24.5720   -4.0529 C   0  0  0  0  0  0  0  0  0  0  0  0
   14.6569   23.8975   -2.7624 C   0  0  0  0  0  0  0  0  0  0  0  0
   13.7402   24.2788   -1.6208 C   0  0  0  0  0  0  0  0  0  0  0  0
   12.6194   25.1423   -2.0850 C   0  0  0  0  0  0  0  0  0  0  0  0
   13.1492   26.3310   -2.8446 C   0  0  0  0  0  0  0  0  0  0  0  0
   13.3186   23.0355   -1.0094 N   0  0  0  0  0  0  0  0  0  0  0  0
   14.4533   22.6268   -0.2024 C   0  0  0  0  0  0  0  0  0  0  0  0
   14.6868   21.4261    0.1316 O   0  0  0  0  0  0  0  0  0  0  0  0
   15.1818   23.8089    0.0989 N   0  0  0  0  0  0  0  0  0  0  0  0
   14.5139   24.9084   -0.5036 C   0  0  0  0  0  0  0  0  0  0  0  0
   14.5880   26.1082   -0.1457 O   0  0  0  0  0  0  0  0  0  0  0  0
   16.3859   23.8691    0.8724 C   0  0  0  0  0  0  0  0  0  0  0  0
   17.0959   25.0443    0.8557 C   0  0  0  0  0  0  0  0  0  0  0  0
   18.2768   25.2015    1.5764 C   0  0  0  0  0  0  0  0  0  0  0  0
   18.7313   24.1332    2.3240 C   0  0  0  0  0  0  0  0  0  0  0  0
   18.0123   22.9446    2.3403 C   0  0  0  0  0  0  0  0  0  0  0  0
   16.8378   22.8184    1.6108 C   0  0  0  0  0  0  0  0  0  0  0  0
   19.9355   24.2087    3.0965 C   0  0  0  0  0  0  0  0  0  0  0  0
   20.9075   24.2642    3.7209 N   0  0  0  0  0  0  0  0  0  0  0  0
   12.1010   22.3061   -1.1323 C   0  0  0  0  0  0  0  0  0  0  0  0
   12.0834   20.9651   -0.8239 C   0  0  0  0  0  0  0  0  0  0  0  0
   10.9468   20.1901   -0.9132 C   0  0  0  0  0  0  0  0  0  0  0  0
    9.7577   20.7765   -1.3328 C   0  0  0  0  0  0  0  0  0  0  0  0
    9.7547   22.1177   -1.6465 C   0  0  0  0  0  0  0  0  0  0  0  0
   10.9257   22.8769   -1.5449 C   0  0  0  0  0  0  0  0  0  0  0  0
    8.5505   19.9393   -1.4183 C   0  0  0  0  0  0  0  0  0  0  0  0
    8.3801   18.9185   -0.5100 C   0  0  0  0  0  0  0  0  0  0  0  0
    7.2697   18.0959   -0.5336 C   0  0  0  0  0  0  0  0  0  0  0  0
    6.2895   18.2817   -1.4841 C   0  0  0  0  0  0  0  0  0  0  0  0
    6.4692   19.3052   -2.3882 C   0  0  0  0  0  0  0  0  0  0  0  0
    7.5819   20.1346   -2.3697 C   0  0  0  0  0  0  0  0  0  0  0  0
    5.0932   17.4196   -1.5318 C   0  0  0  0  0  0  0  0  0  0  0  0
    5.0302   16.2669   -0.7546 O   0  0  0  0  0  0  0  0  0  0  0  0
    4.1230   17.7106   -2.2664 O   0  0  0  0  0  0  0  0  0  0  0  0
    5.8670   15.6734   -0.7351 H   0  0  0  0  0  0  0  0  0  0  0  0
   13.6331   26.5380   -5.1322 C   0  0  0  0  0  0  0  0  0  0  0  0
   15.8989   28.1699   -5.0832 C   0  0  0  0  0  0  0  0  0  0  0  0
   15.7021   27.2274   -6.2140 C   0  0  0  0  0  0  0  0  0  0  0  0
   16.6458   27.1724   -7.2328 C   0  0  0  0  0  0  0  0  0  0  0  0
   16.4029   26.2724   -8.2560 C   0  0  0  0  0  0  0  0  0  0  0  0
   15.2750   25.4610   -8.2729 C   0  0  0  0  0  0  0  0  0  0  0  0
   14.3997   25.5666   -7.2514 N   0  0  0  0  0  0  0  0  0  0  0  0
   14.5821   26.4156   -6.2390 C   0  0  0  0  0  0  0  0  0  0  0  0
 38 39  1  0  0  0
 39 40  2  0  0  0
 40 41  1  0  0  0
 41 42  2  0  0  0
 42 43  1  0  0  0
 43 44  2  0  0  0
 44 37  1  0  0  0
 37  1  1  0  0  0
  1  2  1  0  0  0
  2  3  1  0  0  0
  3  4  1  0  0  0
  4  5  1  0  0  0
  5  6  1  0  0  0
  4  7  1  0  0  0
  7  8  1  0  0  0
  8  9  2  0  0  0
  8 10  1  0  0  0
 10 11  1  0  0  0
 11 12  2  0  0  0
 10 13  1  0  0  0
 13 14  2  0  0  0
 14 15  1  0  0  0
 15 16  2  0  0  0
 16 17  1  0  0  0
 17 18  2  0  0  0
 16 19  1  0  0  0
 19 20  3  0  0  0
  7 21  1  0  0  0
 21 22  2  0  0  0
 22 23  1  0  0  0
 23 24  2  0  0  0
 24 25  1  0  0  0
 25 26  2  0  0  0
 24 27  1  0  0  0
 27 28  2  0  0  0
 28 29  1  0  0  0
 29 30  2  0  0  0
 30 31  1  0  0  0
 31 32  2  0  0  0
 30 33  1  0  0  0
 33 34  1  0  0  0
 33 35  2  0  0  0
 44 39  1  0  0  0
  6  1  1  0  0  0
 18 13  1  0  0  0
 26 21  1  0  0  0
 32 27  1  0  0  0
 11  4  1  0  0  0
 34 36  1  0  0  0
M  END
> <minimizedAffinity>
12.40379

> <CNNscore>
0.6117917895

> <CNNaffinity>
7.9951782227

> <CNN_VS>
4.8913846016

> <CNNaffinity_variance>
0.5996128321

$$$$
[H]OC(=O)c1c([H])c([H])c(-c2c([H])c([H])c(N3C(=O)N(c4c([H])c([H])c(C#N)c([H])c4[H])C(=O)C34C([H])([H])C([H])([H])N(C([H])([H])c3nc([H])c([H])c([H])c3C([H])([H])[H])C([H])([H])C4([H])[H])c([H])c2[H])c([H])c1[H]


 44 49  0  0  0  0  0  0  0  0999 V2000
   11.8553   20.5864    2.3820 N   0  0  0  0  0  0  0  0  0  0  0  0
   11.0554   20.7373    1.1738 C   0  0  0  0  0  0  0  0  0  0  0  0
   10.1971   21.9835    1.2441 C   0  0  0  0  0  0  0  0  0  0  0  0
   11.0258   23.2045    1.5777 C   0  0  0  0  0  0  0  0  0  0  0  0
   12.4757   22.8752    1.6594 C   0  0  0  0  0  0  0  0  0  0  0  0
   12.7028   21.7255    2.6066 C   0  0  0  0  0  0  0  0  0  0  0  0
   10.6978   24.2000    0.5783 N   0  0  0  0  0  0  0  0  0  0  0  0
    9.4153   24.7294    1.0031 C   0  0  0  0  0  0  0  0  0  0  0  0
    8.5803   25.2725    0.2185 O   0  0  0  0  0  0  0  0  0  0  0  0
    9.3305   24.5082    2.4041 N   0  0  0  0  0  0  0  0  0  0  0  0
   10.5245   23.8641    2.8254 C   0  0  0  0  0  0  0  0  0  0  0  0
   11.0045   23.8754    3.9841 O   0  0  0  0  0  0  0  0  0  0  0  0
    8.2231   24.8699    3.2375 C   0  0  0  0  0  0  0  0  0  0  0  0
    8.1765   26.1577    3.7118 C   0  0  0  0  0  0  0  0  0  0  0  0
    7.1401   26.6052    4.5267 C   0  0  0  0  0  0  0  0  0  0  0  0
    6.1387   25.7135    4.8566 C   0  0  0  0  0  0  0  0  0  0  0  0
    6.1867   24.4109    4.3762 C   0  0  0  0  0  0  0  0  0  0  0  0
    7.2337   23.9941    3.5654 C   0  0  0  0  0  0  0  0  0  0  0  0
    5.0344   26.0901    5.6880 C   0  0  0  0  0  0  0  0  0  0  0  0
    4.1399   26.3953    6.3547 N   0  0  0  0  0  0  0  0  0  0  0  0
   11.4033   24.6116   -0.5890 C   0  0  0  0  0  0  0  0  0  0  0  0
   12.7534   24.3627   -0.6847 C   0  0  0  0  0  0  0  0  0  0  0  0
   13.5067   24.7255   -1.7806 C   0  0  0  0  0  0  0  0  0  0  0  0
   12.8879   25.3730   -2.8445 C   0  0  0  0  0  0  0  0  0  0  0  0
   11.5372   25.6314   -2.7677 C   0  0  0  0  0  0  0  0  0  0  0  0
   10.8005   25.2498   -1.6410 C   0  0  0  0  0  0  0  0  0  0  0  0
   13.7024   25.7497   -4.0107 C   0  0  0  0  0  0  0  0  0  0  0  0
   14.7737   24.9584   -4.3607 C   0  0  0  0  0  0  0  0  0  0  0  0
   15.5786   25.2542   -5.4445 C   0  0  0  0  0  0  0  0  0  0  0  0
   15.3232   26.3684   -6.2140 C   0  0  0  0  0  0  0  0  0  0  0  0
   14.2496   27.1535   -5.8557 C   0  0  0  0  0  0  0  0  0  0  0  0
   13.4376   26.8619   -4.7687 C   0  0  0  0  0  0  0  0  0  0  0  0
   16.1650   26.7075   -7.3772 C   0  0  0  0  0  0  0  0  0  0  0  0
   16.4586   25.7403   -8.3338 O   0  0  0  0  0  0  0  0  0  0  0  0
   16.6240   27.8626   -7.5206 O   0  0  0  0  0  0  0  0  0  0  0  0
   16.7267   24.8119   -7.9887 H   0  0  0  0  0  0  0  0  0  0  0  0
   12.6847   19.4181    2.1753 C   0  0  0  0  0  0  0  0  0  0  0  0
   12.2229   19.8342   -0.5475 C   0  0  0  0  0  0  0  0  0  0  0  0
   13.6164   19.8408   -0.0337 C   0  0  0  0  0  0  0  0  0  0  0  0
   14.6707   20.0510   -0.9144 C   0  0  0  0  0  0  0  0  0  0  0  0
   15.9439   20.0459   -0.3711 C   0  0  0  0  0  0  0  0  0  0  0  0
   16.1666   19.8413    0.9850 C   0  0  0  0  0  0  0  0  0  0  0  0
   15.0967   19.6433    1.7831 N   0  0  0  0  0  0  0  0  0  0  0  0
   13.8476   19.6381    1.3153 C   0  0  0  0  0  0  0  0  0  0  0  0
 38 39  1  0  0  0
 39 40  2  0  0  0
 40 41  1  0  0  0
 41 42  2  0  0  0
 42 43  1  0  0  0
 43 44  2  0  0  0
 44 37  1  0  0  0
 37  1  1  0  0  0
  1  2  1  0  0  0
  2  3  1  0  0  0
  3  4  1  0  0  0
  4  5  1  0  0  0
  5  6  1  0  0  0
  4  7  1  0  0  0
  7  8  1  0  0  0
  8  9  2  0  0  0
  8 10  1  0  0  0
 10 11  1  0  0  0
 11 12  2  0  0  0
 10 13  1  0  0  0
 13 14  2  0  0  0
 14 15  1  0  0  0
 15 16  2  0  0  0
 16 17  1  0  0  0
 17 18  2  0  0  0
 16 19  1  0  0  0
 19 20  3  0  0  0
  7 21  1  0  0  0
 21 22  2  0  0  0
 22 23  1  0  0  0
 23 24  2  0  0  0
 24 25  1  0  0  0
 25 26  2  0  0  0
 24 27  1  0  0  0
 27 28  2  0  0  0
 28 29  1  0  0  0
 29 30  2  0  0  0
 30 31  1  0  0  0
 31 32  2  0  0  0
 30 33  1  0  0  0
 33 34  1  0  0  0
 33 35  2  0  0  0
 44 39  1  0  0  0
  6  1  1  0  0  0
 18 13  1  0  0  0
 26 21  1  0  0  0
 32 27  1  0  0  0
 11  4  1  0  0  0
 34 36  1  0  0  0
M  END
> <minimizedAffinity>
11.56431

> <CNNscore>
0.6001259685

> <CNNaffinity>
7.5407180786

> <CNN_VS>
4.5253806114

> <CNNaffinity_variance>
1.1622155905

$$$$
[H]OC(=O)c1c([H])c([H])c(-c2c([H])c([H])c(N3C(=O)N(c4c([H])c([H])c(C#N)c([H])c4[H])C(=O)C34C([H])([H])C([H])([H])N(C([H])([H])c3nc([H])c([H])c([H])c3C([H])([H])[H])C([H])([H])C4([H])[H])c([H])c2[H])c([H])c1[H]


 44 49  0  0  0  0  0  0  0  0999 V2000
   16.5550   23.4324    0.6564 N   0  0  0  0  0  0  0  0  0  0  0  0
   15.8679   24.6985    0.8736 C   0  0  0  0  0  0  0  0  0  0  0  0
   15.0810   25.1060   -0.3548 C   0  0  0  0  0  0  0  0  0  0  0  0
   14.1667   23.9928   -0.8171 C   0  0  0  0  0  0  0  0  0  0  0  0
   14.2145   22.8268    0.1079 C   0  0  0  0  0  0  0  0  0  0  0  0
   15.6377   22.3786    0.3183 C   0  0  0  0  0  0  0  0  0  0  0  0
   12.8524   24.5837   -0.9610 N   0  0  0  0  0  0  0  0  0  0  0  0
   12.9151   25.3020   -2.2203 C   0  0  0  0  0  0  0  0  0  0  0  0
   12.1747   26.2904   -2.5075 O   0  0  0  0  0  0  0  0  0  0  0  0
   13.9297   24.6754   -2.9929 N   0  0  0  0  0  0  0  0  0  0  0  0
   14.4714   23.6056   -2.2314 C   0  0  0  0  0  0  0  0  0  0  0  0
   15.0589   22.5947   -2.6854 O   0  0  0  0  0  0  0  0  0  0  0  0
   14.3338   25.0681   -4.3099 C   0  0  0  0  0  0  0  0  0  0  0  0
   15.1572   24.2165   -5.0043 C   0  0  0  0  0  0  0  0  0  0  0  0
   15.6021   24.5084   -6.2909 C   0  0  0  0  0  0  0  0  0  0  0  0
   15.1925   25.6937   -6.8690 C   0  0  0  0  0  0  0  0  0  0  0  0
   14.3594   26.5547   -6.1657 C   0  0  0  0  0  0  0  0  0  0  0  0
   13.9326   26.2357   -4.8837 C   0  0  0  0  0  0  0  0  0  0  0  0
   15.6011   26.0721   -8.1890 C   0  0  0  0  0  0  0  0  0  0  0  0
   15.9344   26.3734   -9.2547 N   0  0  0  0  0  0  0  0  0  0  0  0
   11.7142   24.5366   -0.1054 C   0  0  0  0  0  0  0  0  0  0  0  0
   11.7633   25.1639    1.1185 C   0  0  0  0  0  0  0  0  0  0  0  0
   10.7051   25.1677    2.0019 C   0  0  0  0  0  0  0  0  0  0  0  0
    9.5292   24.5118    1.6541 C   0  0  0  0  0  0  0  0  0  0  0  0
    9.4603   23.8775    0.4334 C   0  0  0  0  0  0  0  0  0  0  0  0
   10.5524   23.8925   -0.4412 C   0  0  0  0  0  0  0  0  0  0  0  0
    8.4052   24.5282    2.6039 C   0  0  0  0  0  0  0  0  0  0  0  0
    7.7869   25.7258    2.8860 C   0  0  0  0  0  0  0  0  0  0  0  0
    6.7257   25.8116    3.7672 C   0  0  0  0  0  0  0  0  0  0  0  0
    6.2533   24.6798    4.3956 C   0  0  0  0  0  0  0  0  0  0  0  0
    6.8785   23.4869    4.1069 C   0  0  0  0  0  0  0  0  0  0  0  0
    7.9445   23.3942    3.2230 C   0  0  0  0  0  0  0  0  0  0  0  0
    5.1212   24.7419    5.3397 C   0  0  0  0  0  0  0  0  0  0  0  0
    4.7281   25.9621    5.8813 O   0  0  0  0  0  0  0  0  0  0  0  0
    4.5010   23.7049    5.6649 O   0  0  0  0  0  0  0  0  0  0  0  0
    5.4731   26.5842    6.2142 H   0  0  0  0  0  0  0  0  0  0  0  0
   17.2054   23.1047    1.9075 C   0  0  0  0  0  0  0  0  0  0  0  0
   18.6866   23.7599   -0.3677 C   0  0  0  0  0  0  0  0  0  0  0  0
   19.2406   24.0627    0.9767 C   0  0  0  0  0  0  0  0  0  0  0  0
   20.4886   24.6648    1.0841 C   0  0  0  0  0  0  0  0  0  0  0  0
   20.9462   24.9204    2.3653 C   0  0  0  0  0  0  0  0  0  0  0  0
   20.2030   24.5946    3.4931 C   0  0  0  0  0  0  0  0  0  0  0  0
   18.9991   24.0116    3.3154 N   0  0  0  0  0  0  0  0  0  0  0  0
   18.5074   23.7419    2.1052 C   0  0  0  0  0  0  0  0  0  0  0  0
 38 39  1  0  0  0
 39 40  2  0  0  0
 40 41  1  0  0  0
 41 42  2  0  0  0
 42 43  1  0  0  0
 43 44  2  0  0  0
 44 37  1  0  0  0
 37  1  1  0  0  0
  1  2  1  0  0  0
  2  3  1  0  0  0
  3  4  1  0  0  0
  4  5  1  0  0  0
  5  6  1  0  0  0
  4  7  1  0  0  0
  7  8  1  0  0  0
  8  9  2  0  0  0
  8 10  1  0  0  0
 10 11  1  0  0  0
 11 12  2  0  0  0
 10 13  1  0  0  0
 13 14  2  0  0  0
 14 15  1  0  0  0
 15 16  2  0  0  0
 16 17  1  0  0  0
 17 18  2  0  0  0
 16 19  1  0  0  0
 19 20  3  0  0  0
  7 21  1  0  0  0
 21 22  2  0  0  0
 22 23  1  0  0  0
 23 24  2  0  0  0
 24 25  1  0  0  0
 25 26  2  0  0  0
 24 27  1  0  0  0
 27 28  2  0  0  0
 28 29  1  0  0  0
 29 30  2  0  0  0
 30 31  1  0  0  0
 31 32  2  0  0  0
 30 33  1  0  0  0
 33 34  1  0  0  0
 33 35  2  0  0  0
 44 39  1  0  0  0
  6  1  1  0  0  0
 18 13  1  0  0  0
 26 21  1  0  0  0
 32 27  1  0  0  0
 11  4  1  0  0  0
 34 36  1  0  0  0
M  END
> <minimizedAffinity>
17.25365

> <CNNscore>
0.5749883056

> <CNNaffinity>
7.6585640907

> <CNN_VS>
4.4035849571

> <CNNaffinity_variance>
0.4062509537

$$$$
[H]OC(=O)c1c([H])c([H])c(-c2c([H])c([H])c(N3C(=O)N(c4c([H])c([H])c(C#N)c([H])c4[H])C(=O)C34C([H])([H])C([H])([H])N(C([H])([H])c3nc([H])c([H])c([H])c3C([H])([H])[H])C([H])([H])C4([H])[H])c([H])c2[H])c([H])c1[H]


 44 49  0  0  0  0  0  0  0  0999 V2000
   14.3236   20.8918   -0.1628 N   0  0  0  0  0  0  0  0  0  0  0  0
   14.4964   22.0905    0.6470 C   0  0  0  0  0  0  0  0  0  0  0  0
   14.2738   23.3400   -0.1799 C   0  0  0  0  0  0  0  0  0  0  0  0
   12.9497   23.2883   -0.9099 C   0  0  0  0  0  0  0  0  0  0  0  0
   12.1760   22.0672   -0.5527 C   0  0  0  0  0  0  0  0  0  0  0  0
   13.0157   20.8326   -0.7563 C   0  0  0  0  0  0  0  0  0  0  0  0
   12.2721   24.5314   -0.6048 N   0  0  0  0  0  0  0  0  0  0  0  0
   12.9134   25.5119   -1.4610 C   0  0  0  0  0  0  0  0  0  0  0  0
   12.9465   26.7545   -1.2107 O   0  0  0  0  0  0  0  0  0  0  0  0
   13.4529   24.7952   -2.5629 N   0  0  0  0  0  0  0  0  0  0  0  0
   13.1508   23.4182   -2.3883 C   0  0  0  0  0  0  0  0  0  0  0  0
   13.0809   22.5532   -3.2938 O   0  0  0  0  0  0  0  0  0  0  0  0
   14.1811   25.3715   -3.6535 C   0  0  0  0  0  0  0  0  0  0  0  0
   14.8561   24.5179   -4.4908 C   0  0  0  0  0  0  0  0  0  0  0  0
   15.5901   24.9815   -5.5793 C   0  0  0  0  0  0  0  0  0  0  0  0
   15.6283   26.3429   -5.8075 C   0  0  0  0  0  0  0  0  0  0  0  0
   14.9450   27.2058   -4.9598 C   0  0  0  0  0  0  0  0  0  0  0  0
   14.2216   26.7130   -3.8822 C   0  0  0  0  0  0  0  0  0  0  0  0
   16.3575   26.9056   -6.9049 C   0  0  0  0  0  0  0  0  0  0  0  0
   16.9494   27.3623   -7.7873 N   0  0  0  0  0  0  0  0  0  0  0  0
   11.2252   24.8162    0.3185 C   0  0  0  0  0  0  0  0  0  0  0  0
    9.9831   24.2564    0.1243 C   0  0  0  0  0  0  0  0  0  0  0  0
    8.9195   24.4790    0.9725 C   0  0  0  0  0  0  0  0  0  0  0  0
    9.0951   25.3046    2.0778 C   0  0  0  0  0  0  0  0  0  0  0  0
   10.3309   25.8747    2.2894 C   0  0  0  0  0  0  0  0  0  0  0  0
   11.3906   25.6283    1.4095 C   0  0  0  0  0  0  0  0  0  0  0  0
    7.9532   25.5294    2.9784 C   0  0  0  0  0  0  0  0  0  0  0  0
    7.4989   26.8147    3.1726 C   0  0  0  0  0  0  0  0  0  0  0  0
    6.4310   27.0956    4.0038 C   0  0  0  0  0  0  0  0  0  0  0  0
    5.7844   26.0771    4.6697 C   0  0  0  0  0  0  0  0  0  0  0  0
    6.2463   24.7951    4.4689 C   0  0  0  0  0  0  0  0  0  0  0  0
    7.3180   24.5066    3.6356 C   0  0  0  0  0  0  0  0  0  0  0  0
    4.6410   26.3478    5.5619 C   0  0  0  0  0  0  0  0  0  0  0  0
    4.1230   25.3340    6.3624 O   0  0  0  0  0  0  0  0  0  0  0  0
    4.1237   27.4859    5.6125 O   0  0  0  0  0  0  0  0  0  0  0  0
    3.9916   24.4162    5.9228 H   0  0  0  0  0  0  0  0  0  0  0  0
   14.4817   19.7689    0.7370 C   0  0  0  0  0  0  0  0  0  0  0  0
   11.8713   19.5719   -0.2359 C   0  0  0  0  0  0  0  0  0  0  0  0
   12.1108   19.5168    1.2288 C   0  0  0  0  0  0  0  0  0  0  0  0
   11.0335   19.3709    2.0946 C   0  0  0  0  0  0  0  0  0  0  0  0
   11.3257   19.3257    3.4469 C   0  0  0  0  0  0  0  0  0  0  0  0
   12.6270   19.4212    3.9243 C   0  0  0  0  0  0  0  0  0  0  0  0
   13.6253   19.5616    3.0274 N   0  0  0  0  0  0  0  0  0  0  0  0
   13.4034   19.6109    1.7131 C   0  0  0  0  0  0  0  0  0  0  0  0
 38 39  1  0  0  0
 39 40  2  0  0  0
 40 41  1  0  0  0
 41 42  2  0  0  0
 42 43  1  0  0  0
 43 44  2  0  0  0
 44 37  1  0  0  0
 37  1  1  0  0  0
  1  2  1  0  0  0
  2  3  1  0  0  0
  3  4  1  0  0  0
  4  5  1  0  0  0
  5  6  1  0  0  0
  4  7  1  0  0  0
  7  8  1  0  0  0
  8  9  2  0  0  0
  8 10  1  0  0  0
 10 11  1  0  0  0
 11 12  2  0  0  0
 10 13  1  0  0  0
 13 14  2  0  0  0
 14 15  1  0  0  0
 15 16  2  0  0  0
 16 17  1  0  0  0
 17 18  2  0  0  0
 16 19  1  0  0  0
 19 20  3  0  0  0
  7 21  1  0  0  0
 21 22  2  0  0  0
 22 23  1  0  0  0
 23 24  2  0  0  0
 24 25  1  0  0  0
 25 26  2  0  0  0
 24 27  1  0  0  0
 27 28  2  0  0  0
 28 29  1  0  0  0
 29 30  2  0  0  0
 30 31  1  0  0  0
 31 32  2  0  0  0
 30 33  1  0  0  0
 33 34  1  0  0  0
 33 35  2  0  0  0
 44 39  1  0  0  0
  6  1  1  0  0  0
 18 13  1  0  0  0
 26 21  1  0  0  0
 32 27  1  0  0  0
 11  4  1  0  0  0
 34 36  1  0  0  0
M  END
> <minimizedAffinity>
8.13750

> <CNNscore>
0.5640384555

> <CNNaffinity>
7.5238256454

> <CNN_VS>
4.2437272072

> <CNNaffinity_variance>
0.6544525027

$$$$
[H]OC(=O)c1c([H])c([H])c(-c2c([H])c([H])c(N3C(=O)N(c4c([H])c([H])c(C#N)c([H])c4[H])C(=O)C34C([H])([H])C([H])([H])N(C([H])([H])c3nc([H])c([H])c([H])c3C([H])([H])[H])C([H])([H])C4([H])[H])c([H])c2[H])c([H])c1[H]


 44 49  0  0  0  0  0  0  0  0999 V2000
   14.5071   25.8391   -3.8215 N   0  0  0  0  0  0  0  0  0  0  0  0
   14.4370   24.3854   -3.7556 C   0  0  0  0  0  0  0  0  0  0  0  0
   15.0453   23.8713   -2.4672 C   0  0  0  0  0  0  0  0  0  0  0  0
   14.4458   24.5614   -1.2617 C   0  0  0  0  0  0  0  0  0  0  0  0
   13.3548   25.4961   -1.6535 C   0  0  0  0  0  0  0  0  0  0  0  0
   13.8374   26.4566   -2.7096 C   0  0  0  0  0  0  0  0  0  0  0  0
   14.0301   23.5079   -0.3591 N   0  0  0  0  0  0  0  0  0  0  0  0
   15.2594   23.0697    0.2752 C   0  0  0  0  0  0  0  0  0  0  0  0
   15.4239   21.9165    0.7761 O   0  0  0  0  0  0  0  0  0  0  0  0
   16.1634   24.1636    0.2039 N   0  0  0  0  0  0  0  0  0  0  0  0
   15.5082   25.2395   -0.4527 C   0  0  0  0  0  0  0  0  0  0  0  0
   15.7916   26.4566   -0.3464 O   0  0  0  0  0  0  0  0  0  0  0  0
   17.5053   24.1675    0.7050 C   0  0  0  0  0  0  0  0  0  0  0  0
   18.5169   23.8877   -0.1804 C   0  0  0  0  0  0  0  0  0  0  0  0
   19.8532   23.8695    0.2101 C   0  0  0  0  0  0  0  0  0  0  0  0
   20.1503   24.1436    1.5305 C   0  0  0  0  0  0  0  0  0  0  0  0
   19.1262   24.4266    2.4255 C   0  0  0  0  0  0  0  0  0  0  0  0
   17.8028   24.4370    2.0059 C   0  0  0  0  0  0  0  0  0  0  0  0
   21.4977   24.1481    2.0173 C   0  0  0  0  0  0  0  0  0  0  0  0
   22.5846   24.1469    2.4126 N   0  0  0  0  0  0  0  0  0  0  0  0
   12.7410   22.9567   -0.1059 C   0  0  0  0  0  0  0  0  0  0  0  0
   12.0241   23.3900    0.9860 C   0  0  0  0  0  0  0  0  0  0  0  0
   10.7702   22.9099    1.2982 C   0  0  0  0  0  0  0  0  0  0  0  0
   10.1917   21.9438    0.4822 C   0  0  0  0  0  0  0  0  0  0  0  0
   10.8933   21.4968   -0.6155 C   0  0  0  0  0  0  0  0  0  0  0  0
   12.1645   22.0048   -0.9052 C   0  0  0  0  0  0  0  0  0  0  0  0
    8.8504   21.4438    0.8236 C   0  0  0  0  0  0  0  0  0  0  0  0
    8.1165   20.7890   -0.1402 C   0  0  0  0  0  0  0  0  0  0  0  0
    6.8515   20.2939    0.1140 C   0  0  0  0  0  0  0  0  0  0  0  0
    6.2849   20.4470    1.3607 C   0  0  0  0  0  0  0  0  0  0  0  0
    7.0267   21.1034    2.3178 C   0  0  0  0  0  0  0  0  0  0  0  0
    8.2974   21.6028    2.0688 C   0  0  0  0  0  0  0  0  0  0  0  0
    4.9369   19.9273    1.6604 C   0  0  0  0  0  0  0  0  0  0  0  0
    4.1257   20.5784    2.5849 O   0  0  0  0  0  0  0  0  0  0  0  0
    4.5054   18.9002    1.0907 O   0  0  0  0  0  0  0  0  0  0  0  0
    4.5681   20.8795    3.4604 H   0  0  0  0  0  0  0  0  0  0  0  0
   13.8351   26.2219   -5.0452 C   0  0  0  0  0  0  0  0  0  0  0  0
   15.8595   28.1426   -5.1560 C   0  0  0  0  0  0  0  0  0  0  0  0
   15.6898   27.1943   -6.2864 C   0  0  0  0  0  0  0  0  0  0  0  0
   16.5382   27.2773   -7.3841 C   0  0  0  0  0  0  0  0  0  0  0  0
   16.3270   26.3638   -8.4024 C   0  0  0  0  0  0  0  0  0  0  0  0
   15.3198   25.4087   -8.3398 C   0  0  0  0  0  0  0  0  0  0  0  0
   14.5325   25.3848   -7.2442 N   0  0  0  0  0  0  0  0  0  0  0  0
   14.6897   26.2398   -6.2325 C   0  0  0  0  0  0  0  0  0  0  0  0
 38 39  1  0  0  0
 39 40  2  0  0  0
 40 41  1  0  0  0
 41 42  2  0  0  0
 42 43  1  0  0  0
 43 44  2  0  0  0
 44 37  1  0  0  0
 37  1  1  0  0  0
  1  2  1  0  0  0
  2  3  1  0  0  0
  3  4  1  0  0  0
  4  5  1  0  0  0
  5  6  1  0  0  0
  4  7  1  0  0  0
  7  8  1  0  0  0
  8  9  2  0  0  0
  8 10  1  0  0  0
 10 11  1  0  0  0
 11 12  2  0  0  0
 10 13  1  0  0  0
 13 14  2  0  0  0
 14 15  1  0  0  0
 15 16  2  0  0  0
 16 17  1  0  0  0
 17 18  2  0  0  0
 16 19  1  0  0  0
 19 20  3  0  0  0
  7 21  1  0  0  0
 21 22  2  0  0  0
 22 23  1  0  0  0
 23 24  2  0  0  0
 24 25  1  0  0  0
 25 26  2  0  0  0
 24 27  1  0  0  0
 27 28  2  0  0  0
 28 29  1  0  0  0
 29 30  2  0  0  0
 30 31  1  0  0  0
 31 32  2  0  0  0
 30 33  1  0  0  0
 33 34  1  0  0  0
 33 35  2  0  0  0
 44 39  1  0  0  0
  6  1  1  0  0  0
 18 13  1  0  0  0
 26 21  1  0  0  0
 32 27  1  0  0  0
 11  4  1  0  0  0
 34 36  1  0  0  0
M  END
> <minimizedAffinity>
15.40557

> <CNNscore>
0.5577889681

> <CNNaffinity>
7.9754724503

> <CNN_VS>
4.4486303329

> <CNNaffinity_variance>
0.6274303198

$$$$
[H]OC(=O)c1c([H])c([H])c(-c2c([H])c([H])c(N3C(=O)N(c4c([H])c([H])c(C#N)c([H])c4[H])C(=O)C34C([H])([H])C([H])([H])N(C([H])([H])c3nc([H])c([H])c([H])c3C([H])([H])[H])C([H])([H])C4([H])[H])c([H])c2[H])c([H])c1[H]


 44 49  0  0  0  0  0  0  0  0999 V2000
   16.5658   23.7696    0.4519 N   0  0  0  0  0  0  0  0  0  0  0  0
   15.4988   24.7108    0.7650 C   0  0  0  0  0  0  0  0  0  0  0  0
   14.8251   25.2061   -0.4980 C   0  0  0  0  0  0  0  0  0  0  0  0
   14.3791   24.0545   -1.3719 C   0  0  0  0  0  0  0  0  0  0  0  0
   14.6382   22.7412   -0.7195 C   0  0  0  0  0  0  0  0  0  0  0  0
   16.0797   22.6399   -0.2922 C   0  0  0  0  0  0  0  0  0  0  0  0
   12.9859   24.2994   -1.6821 N   0  0  0  0  0  0  0  0  0  0  0  0
   13.0196   25.3127   -2.7203 C   0  0  0  0  0  0  0  0  0  0  0  0
   12.0658   26.1139   -2.9568 O   0  0  0  0  0  0  0  0  0  0  0  0
   14.2842   25.1965   -3.3577 N   0  0  0  0  0  0  0  0  0  0  0  0
   15.0030   24.1439   -2.7306 C   0  0  0  0  0  0  0  0  0  0  0  0
   15.9348   23.4759   -3.2391 O   0  0  0  0  0  0  0  0  0  0  0  0
   14.7473   26.0111   -4.4411 C   0  0  0  0  0  0  0  0  0  0  0  0
   15.3735   27.1923   -4.1277 C   0  0  0  0  0  0  0  0  0  0  0  0
   15.8603   28.0508   -5.1098 C   0  0  0  0  0  0  0  0  0  0  0  0
   15.6994   27.6866   -6.4321 C   0  0  0  0  0  0  0  0  0  0  0  0
   15.0657   26.4914   -6.7481 C   0  0  0  0  0  0  0  0  0  0  0  0
   14.5907   25.6561   -5.7461 C   0  0  0  0  0  0  0  0  0  0  0  0
   16.1713   28.5093   -7.5059 C   0  0  0  0  0  0  0  0  0  0  0  0
   16.5546   29.1768   -8.3691 N   0  0  0  0  0  0  0  0  0  0  0  0
   11.7989   23.7356   -1.1318 C   0  0  0  0  0  0  0  0  0  0  0  0
   11.3920   22.4865   -1.5417 C   0  0  0  0  0  0  0  0  0  0  0  0
   10.2586   21.8703   -1.0559 C   0  0  0  0  0  0  0  0  0  0  0  0
    9.4818   22.5290   -0.1090 C   0  0  0  0  0  0  0  0  0  0  0  0
    9.8721   23.7803    0.3140 C   0  0  0  0  0  0  0  0  0  0  0  0
   11.0286   24.3784   -0.1987 C   0  0  0  0  0  0  0  0  0  0  0  0
    8.2776   21.8577    0.4056 C   0  0  0  0  0  0  0  0  0  0  0  0
    7.8630   22.1233    1.6915 C   0  0  0  0  0  0  0  0  0  0  0  0
    6.7408   21.5282    2.2361 C   0  0  0  0  0  0  0  0  0  0  0  0
    5.9973   20.6388    1.4912 C   0  0  0  0  0  0  0  0  0  0  0  0
    6.4202   20.3796    0.2062 C   0  0  0  0  0  0  0  0  0  0  0  0
    7.5461   20.9740   -0.3464 C   0  0  0  0  0  0  0  0  0  0  0  0
    4.7942   19.9900    2.0466 C   0  0  0  0  0  0  0  0  0  0  0  0
    4.1232   20.5642    3.1221 O   0  0  0  0  0  0  0  0  0  0  0  0
    4.3615   18.9209    1.5614 O   0  0  0  0  0  0  0  0  0  0  0  0
    4.6992   20.9143    3.8957 H   0  0  0  0  0  0  0  0  0  0  0  0
   17.0834   23.3069    1.7222 C   0  0  0  0  0  0  0  0  0  0  0  0
   18.7852   23.9932   -0.3831 C   0  0  0  0  0  0  0  0  0  0  0  0
   19.2557   24.1494    1.0169 C   0  0  0  0  0  0  0  0  0  0  0  0
   20.5362   24.6319    1.2600 C   0  0  0  0  0  0  0  0  0  0  0  0
   20.9120   24.7542    2.5866 C   0  0  0  0  0  0  0  0  0  0  0  0
   20.0593   24.4138    3.6296 C   0  0  0  0  0  0  0  0  0  0  0  0
   18.8297   23.9516    3.3213 N   0  0  0  0  0  0  0  0  0  0  0  0
   18.4133   23.8131    2.0617 C   0  0  0  0  0  0  0  0  0  0  0  0
 38 39  1  0  0  0
 39 40  2  0  0  0
 40 41  1  0  0  0
 41 42  2  0  0  0
 42 43  1  0  0  0
 43 44  2  0  0  0
 44 37  1  0  0  0
 37  1  1  0  0  0
  1  2  1  0  0  0
  2  3  1  0  0  0
  3  4  1  0  0  0
  4  5  1  0  0  0
  5  6  1  0  0  0
  4  7  1  0  0  0
  7  8  1  0  0  0
  8  9  2  0  0  0
  8 10  1  0  0  0
 10 11  1  0  0  0
 11 12  2  0  0  0
 10 13  1  0  0  0
 13 14  2  0  0  0
 14 15  1  0  0  0
 15 16  2  0  0  0
 16 17  1  0  0  0
 17 18  2  0  0  0
 16 19  1  0  0  0
 19 20  3  0  0  0
  7 21  1  0  0  0
 21 22  2  0  0  0
 22 23  1  0  0  0
 23 24  2  0  0  0
 24 25  1  0  0  0
 25 26  2  0  0  0
 24 27  1  0  0  0
 27 28  2  0  0  0
 28 29  1  0  0  0
 29 30  2  0  0  0
 30 31  1  0  0  0
 31 32  2  0  0  0
 30 33  1  0  0  0
 33 34  1  0  0  0
 33 35  2  0  0  0
 44 39  1  0  0  0
  6  1  1  0  0  0
 18 13  1  0  0  0
 26 21  1  0  0  0
 32 27  1  0  0  0
 11  4  1  0  0  0
 34 36  1  0  0  0
M  END
> <minimizedAffinity>
19.33942

> <CNNscore>
0.5054253936

> <CNNaffinity>
7.6707625389

> <CNN_VS>
3.8769981861

> <CNNaffinity_variance>
0.2820818424

$$$$
[H]OC(=O)c1c([H])c([H])c(-c2c([H])c([H])c(N3C(=O)N(c4c([H])c([H])c(C#N)c([H])c4[H])C(=O)C34C([H])([H])C([H])([H])N(C([H])([H])c3nc([H])c([H])c([H])c3C([H])([H])[H])C([H])([H])C4([H])[H])c([H])c2[H])c([H])c1[H]


 44 49  0  0  0  0  0  0  0  0999 V2000
   14.2282   20.9666    1.3337 N   0  0  0  0  0  0  0  0  0  0  0  0
   14.1415   20.7463   -0.1038 C   0  0  0  0  0  0  0  0  0  0  0  0
   12.7414   21.0231   -0.6111 C   0  0  0  0  0  0  0  0  0  0  0  0
   12.2593   22.3903   -0.1781 C   0  0  0  0  0  0  0  0  0  0  0  0
   13.3196   23.1372    0.5535 C   0  0  0  0  0  0  0  0  0  0  0  0
   13.8586   22.3090    1.6912 C   0  0  0  0  0  0  0  0  0  0  0  0
   11.7876   23.0503   -1.3778 N   0  0  0  0  0  0  0  0  0  0  0  0
   10.4818   22.4662   -1.6218 C   0  0  0  0  0  0  0  0  0  0  0  0
    9.9303   22.4204   -2.7626 O   0  0  0  0  0  0  0  0  0  0  0  0
   10.0089   21.9951   -0.3675 N   0  0  0  0  0  0  0  0  0  0  0  0
   10.9935   22.2825    0.6153 C   0  0  0  0  0  0  0  0  0  0  0  0
   10.7976   22.4068    1.8478 O   0  0  0  0  0  0  0  0  0  0  0  0
    8.7557   21.3380   -0.1449 C   0  0  0  0  0  0  0  0  0  0  0  0
    8.5170   20.1721   -0.8298 C   0  0  0  0  0  0  0  0  0  0  0  0
    7.3305   19.4594   -0.6794 C   0  0  0  0  0  0  0  0  0  0  0  0
    6.3778   19.9551    0.1887 C   0  0  0  0  0  0  0  0  0  0  0  0
    6.6202   21.1347    0.8813 C   0  0  0  0  0  0  0  0  0  0  0  0
    7.8136   21.8232    0.7099 C   0  0  0  0  0  0  0  0  0  0  0  0
    5.1301   19.2851    0.4050 C   0  0  0  0  0  0  0  0  0  0  0  0
    4.1253   18.7395    0.5795 N   0  0  0  0  0  0  0  0  0  0  0  0
   12.4048   24.0381   -2.1982 C   0  0  0  0  0  0  0  0  0  0  0  0
   13.6116   23.7594   -2.7980 C   0  0  0  0  0  0  0  0  0  0  0  0
   14.2715   24.6586   -3.6081 C   0  0  0  0  0  0  0  0  0  0  0  0
   13.7042   25.9073   -3.8378 C   0  0  0  0  0  0  0  0  0  0  0  0
   12.4967   26.2056   -3.2462 C   0  0  0  0  0  0  0  0  0  0  0  0
   11.8519   25.2703   -2.4292 C   0  0  0  0  0  0  0  0  0  0  0  0
   14.4163   26.8557   -4.7090 C   0  0  0  0  0  0  0  0  0  0  0  0
   14.6755   26.4989   -6.0135 C   0  0  0  0  0  0  0  0  0  0  0  0
   15.3387   27.3423   -6.8848 C   0  0  0  0  0  0  0  0  0  0  0  0
   15.7638   28.5824   -6.4603 C   0  0  0  0  0  0  0  0  0  0  0  0
   15.4999   28.9299   -5.1538 C   0  0  0  0  0  0  0  0  0  0  0  0
   14.8345   28.0876   -4.2741 C   0  0  0  0  0  0  0  0  0  0  0  0
   16.4727   29.5034   -7.3691 C   0  0  0  0  0  0  0  0  0  0  0  0
   16.4900   30.8699   -7.1063 O   0  0  0  0  0  0  0  0  0  0  0  0
   17.0659   29.0722   -8.3829 O   0  0  0  0  0  0  0  0  0  0  0  0
   15.6024   31.2999   -6.8233 H   0  0  0  0  0  0  0  0  0  0  0  0
   15.6135   20.7499    1.6938 C   0  0  0  0  0  0  0  0  0  0  0  0
   15.7832   21.7352   -0.9139 C   0  0  0  0  0  0  0  0  0  0  0  0
   16.5781   22.3787    0.1631 C   0  0  0  0  0  0  0  0  0  0  0  0
   17.3970   23.4595   -0.1416 C   0  0  0  0  0  0  0  0  0  0  0  0
   18.1100   24.0133    0.9077 C   0  0  0  0  0  0  0  0  0  0  0  0
   18.0187   23.5202    2.2035 C   0  0  0  0  0  0  0  0  0  0  0  0
   17.2043   22.4681    2.4283 N   0  0  0  0  0  0  0  0  0  0  0  0
   16.4933   21.8944    1.4564 C   0  0  0  0  0  0  0  0  0  0  0  0
 38 39  1  0  0  0
 39 40  2  0  0  0
 40 41  1  0  0  0
 41 42  2  0  0  0
 42 43  1  0  0  0
 43 44  2  0  0  0
 44 37  1  0  0  0
 37  1  1  0  0  0
  1  2  1  0  0  0
  2  3  1  0  0  0
  3  4  1  0  0  0
  4  5  1  0  0  0
  5  6  1  0  0  0
  4  7  1  0  0  0
  7  8  1  0  0  0
  8  9  2  0  0  0
  8 10  1  0  0  0
 10 11  1  0  0  0
 11 12  2  0  0  0
 10 13  1  0  0  0
 13 14  2  0  0  0
 14 15  1  0  0  0
 15 16  2  0  0  0
 16 17  1  0  0  0
 17 18  2  0  0  0
 16 19  1  0  0  0
 19 20  3  0  0  0
  7 21  1  0  0  0
 21 22  2  0  0  0
 22 23  1  0  0  0
 23 24  2  0  0  0
 24 25  1  0  0  0
 25 26  2  0  0  0
 24 27  1  0  0  0
 27 28  2  0  0  0
 28 29  1  0  0  0
 29 30  2  0  0  0
 30 31  1  0  0  0
 31 32  2  0  0  0
 30 33  1  0  0  0
 33 34  1  0  0  0
 33 35  2  0  0  0
 44 39  1  0  0  0
  6  1  1  0  0  0
 18 13  1  0  0  0
 26 21  1  0  0  0
 32 27  1  0  0  0
 11  4  1  0  0  0
 34 36  1  0  0  0
M  END
> <minimizedAffinity>
15.94531

> <CNNscore>
0.4817463458

> <CNNaffinity>
7.6908974648

> <CNN_VS>
3.7050616741

> <CNNaffinity_variance>
0.6283732653

$$$$
[H]OC(=O)c1c([H])c([H])c(-c2c([H])c([H])c(N3C(=O)N(c4c([H])c([H])c(C#N)c([H])c4[H])C(=O)C34C([H])([H])C([H])([H])N(C([H])([H])c3nc([H])c([H])c([H])c3C([H])([H])[H])C([H])([H])C4([H])[H])c([H])c2[H])c([H])c1[H]


 44 49  0  0  0  0  0  0  0  0999 V2000
   15.4456   21.7898   -1.6130 N   0  0  0  0  0  0  0  0  0  0  0  0
   15.3807   22.8443   -0.6098 C   0  0  0  0  0  0  0  0  0  0  0  0
   14.9377   24.1542   -1.2281 C   0  0  0  0  0  0  0  0  0  0  0  0
   13.6556   23.9864   -2.0135 C   0  0  0  0  0  0  0  0  0  0  0  0
   13.1205   22.6017   -1.8967 C   0  0  0  0  0  0  0  0  0  0  0  0
   14.1792   21.5944   -2.2645 C   0  0  0  0  0  0  0  0  0  0  0  0
   12.7533   25.0143   -1.5374 N   0  0  0  0  0  0  0  0  0  0  0  0
   13.2096   26.2267   -2.1914 C   0  0  0  0  0  0  0  0  0  0  0  0
   13.0060   27.3933   -1.7384 O   0  0  0  0  0  0  0  0  0  0  0  0
   13.8870   25.8188   -3.3719 N   0  0  0  0  0  0  0  0  0  0  0  0
   13.8465   24.4004   -3.4402 C   0  0  0  0  0  0  0  0  0  0  0  0
   13.9510   23.7042   -4.4781 O   0  0  0  0  0  0  0  0  0  0  0  0
   14.5073   26.6955   -4.3197 C   0  0  0  0  0  0  0  0  0  0  0  0
   15.2971   27.7066   -3.8306 C   0  0  0  0  0  0  0  0  0  0  0  0
   15.9440   28.6082   -4.6716 C   0  0  0  0  0  0  0  0  0  0  0  0
   15.7744   28.4652   -6.0346 C   0  0  0  0  0  0  0  0  0  0  0  0
   14.9751   27.4419   -6.5285 C   0  0  0  0  0  0  0  0  0  0  0  0
   14.3427   26.5584   -5.6643 C   0  0  0  0  0  0  0  0  0  0  0  0
   16.4042   29.3471   -6.9717 C   0  0  0  0  0  0  0  0  0  0  0  0
   16.9079   30.0614   -7.7291 N   0  0  0  0  0  0  0  0  0  0  0  0
   11.6605   24.9415   -0.6262 C   0  0  0  0  0  0  0  0  0  0  0  0
   11.8265   25.3903    0.6641 C   0  0  0  0  0  0  0  0  0  0  0  0
   10.8192   25.3577    1.6045 C   0  0  0  0  0  0  0  0  0  0  0  0
    9.5744   24.8508    1.2474 C   0  0  0  0  0  0  0  0  0  0  0  0
    9.3883   24.3964   -0.0394 C   0  0  0  0  0  0  0  0  0  0  0  0
   10.4314   24.4437   -0.9708 C   0  0  0  0  0  0  0  0  0  0  0  0
    8.5062   24.8269    2.2593 C   0  0  0  0  0  0  0  0  0  0  0  0
    8.1079   23.6165    2.7814 C   0  0  0  0  0  0  0  0  0  0  0  0
    7.1118   23.5232    3.7349 C   0  0  0  0  0  0  0  0  0  0  0  0
    6.4825   24.6601    4.1934 C   0  0  0  0  0  0  0  0  0  0  0  0
    6.8878   25.8658    3.6650 C   0  0  0  0  0  0  0  0  0  0  0  0
    7.8874   25.9661    2.7074 C   0  0  0  0  0  0  0  0  0  0  0  0
    5.4171   24.5901    5.2116 C   0  0  0  0  0  0  0  0  0  0  0  0
    5.5355   23.7173    6.2892 O   0  0  0  0  0  0  0  0  0  0  0  0
    4.3978   25.3103    5.1225 O   0  0  0  0  0  0  0  0  0  0  0  0
    5.8615   22.7665    6.0832 H   0  0  0  0  0  0  0  0  0  0  0  0
   15.8006   20.5783   -0.9047 C   0  0  0  0  0  0  0  0  0  0  0  0
   16.6316   20.9312    1.7381 C   0  0  0  0  0  0  0  0  0  0  0  0
   15.2847   20.3681    1.4651 C   0  0  0  0  0  0  0  0  0  0  0  0
   14.4581   20.0221    2.5274 C   0  0  0  0  0  0  0  0  0  0  0  0
   13.2160   19.5037    2.2042 C   0  0  0  0  0  0  0  0  0  0  0  0
   12.8074   19.3334    0.8872 C   0  0  0  0  0  0  0  0  0  0  0  0
   13.6608   19.6904   -0.0952 N   0  0  0  0  0  0  0  0  0  0  0  0
   14.8694   20.1952    0.1567 C   0  0  0  0  0  0  0  0  0  0  0  0
 38 39  1  0  0  0
 39 40  2  0  0  0
 40 41  1  0  0  0
 41 42  2  0  0  0
 42 43  1  0  0  0
 43 44  2  0  0  0
 44 37  1  0  0  0
 37  1  1  0  0  0
  1  2  1  0  0  0
  2  3  1  0  0  0
  3  4  1  0  0  0
  4  5  1  0  0  0
  5  6  1  0  0  0
  4  7  1  0  0  0
  7  8  1  0  0  0
  8  9  2  0  0  0
  8 10  1  0  0  0
 10 11  1  0  0  0
 11 12  2  0  0  0
 10 13  1  0  0  0
 13 14  2  0  0  0
 14 15  1  0  0  0
 15 16  2  0  0  0
 16 17  1  0  0  0
 17 18  2  0  0  0
 16 19  1  0  0  0
 19 20  3  0  0  0
  7 21  1  0  0  0
 21 22  2  0  0  0
 22 23  1  0  0  0
 23 24  2  0  0  0
 24 25  1  0  0  0
 25 26  2  0  0  0
 24 27  1  0  0  0
 27 28  2  0  0  0
 28 29  1  0  0  0
 29 30  2  0  0  0
 30 31  1  0  0  0
 31 32  2  0  0  0
 30 33  1  0  0  0
 33 34  1  0  0  0
 33 35  2  0  0  0
 44 39  1  0  0  0
  6  1  1  0  0  0
 18 13  1  0  0  0
 26 21  1  0  0  0
 32 27  1  0  0  0
 11  4  1  0  0  0
 34 36  1  0  0  0
M  END
> <minimizedAffinity>
20.08832

> <CNNscore>
0.4810273945

> <CNNaffinity>
7.3017511368

> <CNN_VS>
3.5123422146

> <CNNaffinity_variance>
0.6797913313

$$$$
[H]OC(=O)c1c([H])c([H])c(-c2c([H])c([H])c(N3C(=O)N(c4c([H])c([H])c(C#N)c([H])c4[H])C(=O)C34C([H])([H])C([H])([H])N(C([H])([H])c3nc([H])c([H])c([H])c3C([H])([H])[H])C([H])([H])C4([H])[H])c([H])c2[H])c([H])c1[H]


 44 49  0  0  0  0  0  0  0  0999 V2000
   17.0891   24.1596    0.6573 N   0  0  0  0  0  0  0  0  0  0  0  0
   16.0779   25.1969    0.8115 C   0  0  0  0  0  0  0  0  0  0  0  0
   15.2515   25.3401   -0.4499 C   0  0  0  0  0  0  0  0  0  0  0  0
   14.6889   24.0076   -0.8936 C   0  0  0  0  0  0  0  0  0  0  0  0
   15.0198   22.9252    0.0741 C   0  0  0  0  0  0  0  0  0  0  0  0
   16.5034   22.8869    0.3354 C   0  0  0  0  0  0  0  0  0  0  0  0
   13.2692   24.2147   -1.0909 N   0  0  0  0  0  0  0  0  0  0  0  0
   13.1771   24.8869   -2.3736 C   0  0  0  0  0  0  0  0  0  0  0  0
   12.2067   25.6282   -2.7147 O   0  0  0  0  0  0  0  0  0  0  0  0
   14.3487   24.5380   -3.0979 N   0  0  0  0  0  0  0  0  0  0  0  0
   15.1342   23.6778   -2.2850 C   0  0  0  0  0  0  0  0  0  0  0  0
   15.9883   22.8522   -2.6873 O   0  0  0  0  0  0  0  0  0  0  0  0
   14.6751   24.9882   -4.4180 C   0  0  0  0  0  0  0  0  0  0  0  0
   15.3537   24.1205   -5.2376 C   0  0  0  0  0  0  0  0  0  0  0  0
   15.7137   24.4648   -6.5378 C   0  0  0  0  0  0  0  0  0  0  0  0
   15.3693   25.7201   -6.9988 C   0  0  0  0  0  0  0  0  0  0  0  0
   14.6827   26.5974   -6.1688 C   0  0  0  0  0  0  0  0  0  0  0  0
   14.3376   26.2249   -4.8766 C   0  0  0  0  0  0  0  0  0  0  0  0
   15.6985   26.1559   -8.3232 C   0  0  0  0  0  0  0  0  0  0  0  0
   15.9646   26.5129   -9.3907 N   0  0  0  0  0  0  0  0  0  0  0  0
   12.1584   23.8842   -0.2623 C   0  0  0  0  0  0  0  0  0  0  0  0
   12.3752   23.2239    0.9255 C   0  0  0  0  0  0  0  0  0  0  0  0
   11.3560   22.8715    1.7842 C   0  0  0  0  0  0  0  0  0  0  0  0
   10.0450   23.1910    1.4477 C   0  0  0  0  0  0  0  0  0  0  0  0
    9.8072   23.8516    0.2627 C   0  0  0  0  0  0  0  0  0  0  0  0
   10.8643   24.1956   -0.5871 C   0  0  0  0  0  0  0  0  0  0  0  0
    8.9670   22.8142    2.3758 C   0  0  0  0  0  0  0  0  0  0  0  0
    9.0327   21.5971    3.0166 C   0  0  0  0  0  0  0  0  0  0  0  0
    8.0549   21.1822    3.9010 C   0  0  0  0  0  0  0  0  0  0  0  0
    6.9719   21.9916    4.1666 C   0  0  0  0  0  0  0  0  0  0  0  0
    6.9153   23.2068    3.5206 C   0  0  0  0  0  0  0  0  0  0  0  0
    7.8938   23.6292    2.6316 C   0  0  0  0  0  0  0  0  0  0  0  0
    5.9143   21.5747    5.1070 C   0  0  0  0  0  0  0  0  0  0  0  0
    4.6268   21.3204    4.6439 O   0  0  0  0  0  0  0  0  0  0  0  0
    6.1578   21.4436    6.3273 O   0  0  0  0  0  0  0  0  0  0  0  0
    4.2320   21.9923    3.9763 H   0  0  0  0  0  0  0  0  0  0  0  0
   17.7617   24.0567    1.9350 C   0  0  0  0  0  0  0  0  0  0  0  0
   19.1508   24.1790    4.3548 C   0  0  0  0  0  0  0  0  0  0  0  0
   19.8997   24.2845    3.0766 C   0  0  0  0  0  0  0  0  0  0  0  0
   21.2800   24.4453    3.1021 C   0  0  0  0  0  0  0  0  0  0  0  0
   21.9171   24.5362    1.8766 C   0  0  0  0  0  0  0  0  0  0  0  0
   21.2205   24.4716    0.6761 C   0  0  0  0  0  0  0  0  0  0  0  0
   19.8811   24.3146    0.7251 N   0  0  0  0  0  0  0  0  0  0  0  0
   19.2143   24.2210    1.8765 C   0  0  0  0  0  0  0  0  0  0  0  0
 38 39  1  0  0  0
 39 40  2  0  0  0
 40 41  1  0  0  0
 41 42  2  0  0  0
 42 43  1  0  0  0
 43 44  2  0  0  0
 44 37  1  0  0  0
 37  1  1  0  0  0
  1  2  1  0  0  0
  2  3  1  0  0  0
  3  4  1  0  0  0
  4  5  1  0  0  0
  5  6  1  0  0  0
  4  7  1  0  0  0
  7  8  1  0  0  0
  8  9  2  0  0  0
  8 10  1  0  0  0
 10 11  1  0  0  0
 11 12  2  0  0  0
 10 13  1  0  0  0
 13 14  2  0  0  0
 14 15  1  0  0  0
 15 16  2  0  0  0
 16 17  1  0  0  0
 17 18  2  0  0  0
 16 19  1  0  0  0
 19 20  3  0  0  0
  7 21  1  0  0  0
 21 22  2  0  0  0
 22 23  1  0  0  0
 23 24  2  0  0  0
 24 25  1  0  0  0
 25 26  2  0  0  0
 24 27  1  0  0  0
 27 28  2  0  0  0
 28 29  1  0  0  0
 29 30  2  0  0  0
 30 31  1  0  0  0
 31 32  2  0  0  0
 30 33  1  0  0  0
 33 34  1  0  0  0
 33 35  2  0  0  0
 44 39  1  0  0  0
  6  1  1  0  0  0
 18 13  1  0  0  0
 26 21  1  0  0  0
 32 27  1  0  0  0
 11  4  1  0  0  0
 34 36  1  0  0  0
M  END
> <minimizedAffinity>
25.33326

> <CNNscore>
0.4710937142

> <CNNaffinity>
7.5031242371

> <CNN_VS>
3.5346746445

> <CNNaffinity_variance>
0.2109701186

$$$$
[H]OC(=O)c1c([H])c([H])c(-c2c([H])c([H])c(N3C(=O)N(c4nc([H])nc(C([H])([H])[H])c4[H])C4(C3=O)C([H])([H])C([H])([H])N(C([H])([H])c3nc([H])c([H])c([H])c3C([H])([H])[H])C([H])([H])C4([H])[H])c([H])c2[H])c(C([H])([H])[H])c1[H]


 44 49  0  0  0  0  0  0  0  0999 V2000
   14.7403   24.3449   -0.5543 N   0  0  0  0  0  0  0  0  0  0  0  0
   14.0056   23.8197    0.5431 C   0  0  0  0  0  0  0  0  0  0  0  0
   14.4644   23.6241    1.7061 O   0  0  0  0  0  0  0  0  0  0  0  0
   12.6840   23.5635    0.0874 N   0  0  0  0  0  0  0  0  0  0  0  0
   12.6167   23.9292   -1.2648 C   0  0  0  0  0  0  0  0  0  0  0  0
   11.7080   23.6437   -2.0784 O   0  0  0  0  0  0  0  0  0  0  0  0
   13.8262   24.7439   -1.6329 C   0  0  0  0  0  0  0  0  0  0  0  0
   13.5314   26.2072   -1.6135 C   0  0  0  0  0  0  0  0  0  0  0  0
   14.0130   26.8391   -2.9008 C   0  0  0  0  0  0  0  0  0  0  0  0
   13.3720   26.1674   -3.9790 N   0  0  0  0  0  0  0  0  0  0  0  0
   13.9212   24.8597   -4.1581 C   0  0  0  0  0  0  0  0  0  0  0  0
   14.3891   24.2110   -2.9040 C   0  0  0  0  0  0  0  0  0  0  0  0
   18.9752   24.1420    1.9195 C   0  0  0  0  0  0  0  0  0  0  0  0
   18.2012   24.3310    0.6610 C   0  0  0  0  0  0  0  0  0  0  0  0
   16.8260   24.2423    0.6665 C   0  0  0  0  0  0  0  0  0  0  0  0
   16.1667   24.4277   -0.5294 C   0  0  0  0  0  0  0  0  0  0  0  0
   16.8783   24.6809   -1.6237 N   0  0  0  0  0  0  0  0  0  0  0  0
   18.1967   24.7613   -1.6057 C   0  0  0  0  0  0  0  0  0  0  0  0
   18.8923   24.5897   -0.4691 N   0  0  0  0  0  0  0  0  0  0  0  0
   11.6739   23.0220    0.9109 C   0  0  0  0  0  0  0  0  0  0  0  0
   10.7431   23.8577    1.5389 C   0  0  0  0  0  0  0  0  0  0  0  0
    9.7618   23.2972    2.3128 C   0  0  0  0  0  0  0  0  0  0  0  0
    9.6799   21.9444    2.4781 C   0  0  0  0  0  0  0  0  0  0  0  0
   10.6062   21.1408    1.8526 C   0  0  0  0  0  0  0  0  0  0  0  0
   11.5903   21.6577    1.0801 C   0  0  0  0  0  0  0  0  0  0  0  0
    8.6137   21.3089    3.2796 C   0  0  0  0  0  0  0  0  0  0  0  0
    8.8360   20.8259    4.5519 C   0  0  0  0  0  0  0  0  0  0  0  0
    7.8004   20.2379    5.2872 C   0  0  0  0  0  0  0  0  0  0  0  0
    6.5331   20.1251    4.7633 C   0  0  0  0  0  0  0  0  0  0  0  0
    6.3112   20.6065    3.4948 C   0  0  0  0  0  0  0  0  0  0  0  0
    7.3525   21.1968    2.7564 C   0  0  0  0  0  0  0  0  0  0  0  0
    7.0519   21.6708    1.4016 C   0  0  0  0  0  0  0  0  0  0  0  0
    5.4345   19.5026    5.5234 C   0  0  0  0  0  0  0  0  0  0  0  0
    5.5788   18.2976    6.1737 O   0  0  0  0  0  0  0  0  0  0  0  0
    4.3118   20.0718    5.5969 O   0  0  0  0  0  0  0  0  0  0  0  0
    4.7981   17.6385    6.2248 H   0  0  0  0  0  0  0  0  0  0  0  0
   13.3521   26.9141   -5.1961 C   0  0  0  0  0  0  0  0  0  0  0  0
   14.4173   26.6582   -6.1553 C   0  0  0  0  0  0  0  0  0  0  0  0
   14.2832   25.7662   -7.1474 N   0  0  0  0  0  0  0  0  0  0  0  0
   15.2813   25.5187   -8.0176 C   0  0  0  0  0  0  0  0  0  0  0  0
   16.4768   26.1917   -7.8988 C   0  0  0  0  0  0  0  0  0  0  0  0
   16.6448   27.1196   -6.8837 C   0  0  0  0  0  0  0  0  0  0  0  0
   15.6044   27.3470   -6.0128 C   0  0  0  0  0  0  0  0  0  0  0  0
   15.7322   28.3213   -4.9234 C   0  0  0  0  0  0  0  0  0  0  0  0
 13 14  1  0  0  0
 14 15  2  0  0  0
 15 16  1  0  0  0
 16 17  2  0  0  0
 17 18  1  0  0  0
 18 19  2  0  0  0
 16  1  1  0  0  0
  1  2  1  0  0  0
  2  3  2  0  0  0
  2  4  1  0  0  0
  4  5  1  0  0  0
  5  6  2  0  0  0
  5  7  1  0  0  0
  7  8  1  0  0  0
  8  9  1  0  0  0
  9 10  1  0  0  0
 10 37  1  0  0  0
 37 38  1  0  0  0
 38 39  2  0  0  0
 39 40  1  0  0  0
 40 41  2  0  0  0
 41 42  1  0  0  0
 42 43  2  0  0  0
 43 44  1  0  0  0
 10 11  1  0  0  0
 11 12  1  0  0  0
  4 20  1  0  0  0
 20 21  2  0  0  0
 21 22  1  0  0  0
 22 23  2  0  0  0
 23 24  1  0  0  0
 24 25  2  0  0  0
 23 26  1  0  0  0
 26 27  2  0  0  0
 27 28  1  0  0  0
 28 29  2  0  0  0
 29 30  1  0  0  0
 30 31  2  0  0  0
 31 32  1  0  0  0
 29 33  1  0  0  0
 33 34  1  0  0  0
 33 35  2  0  0  0
 19 14  1  0  0  0
  7  1  1  0  0  0
 12  7  1  0  0  0
 25 20  1  0  0  0
 31 26  1  0  0  0
 43 38  1  0  0  0
 34 36  1  0  0  0
M  END
> <minimizedAffinity>
4.29884

> <CNNscore>
0.5491638184

> <CNNaffinity>
7.9080457687

> <CNN_VS>
4.3428125381

> <CNNaffinity_variance>
0.8157508969

$$$$
[H]OC(=O)c1c([H])c([H])c(-c2c([H])c([H])c(N3C(=O)N(c4nc([H])nc(C([H])([H])[H])c4[H])C4(C3=O)C([H])([H])C([H])([H])N(C([H])([H])c3nc([H])c([H])c([H])c3C([H])([H])[H])C([H])([H])C4([H])[H])c([H])c2[H])c(C([H])([H])[H])c1[H]


 44 49  0  0  0  0  0  0  0  0999 V2000
   15.0709   23.7383   -0.0117 N   0  0  0  0  0  0  0  0  0  0  0  0
   14.1141   23.3598    0.9687 C   0  0  0  0  0  0  0  0  0  0  0  0
   14.2980   23.3848    2.2205 O   0  0  0  0  0  0  0  0  0  0  0  0
   12.9369   22.9571    0.2819 N   0  0  0  0  0  0  0  0  0  0  0  0
   13.1743   23.0908   -1.0938 C   0  0  0  0  0  0  0  0  0  0  0  0
   12.4814   22.6239   -2.0270 O   0  0  0  0  0  0  0  0  0  0  0  0
   14.4209   23.9015   -1.3189 C   0  0  0  0  0  0  0  0  0  0  0  0
   14.1029   25.3288   -1.6194 C   0  0  0  0  0  0  0  0  0  0  0  0
   14.8549   25.7667   -2.8568 C   0  0  0  0  0  0  0  0  0  0  0  0
   14.4901   24.8913   -3.9176 N   0  0  0  0  0  0  0  0  0  0  0  0
   15.0894   23.6054   -3.7406 C   0  0  0  0  0  0  0  0  0  0  0  0
   15.2695   23.1998   -2.3209 C   0  0  0  0  0  0  0  0  0  0  0  0
   19.7488   24.2351   -1.4136 C   0  0  0  0  0  0  0  0  0  0  0  0
   18.6999   24.1431   -0.3600 C   0  0  0  0  0  0  0  0  0  0  0  0
   17.3751   23.9852   -0.7050 C   0  0  0  0  0  0  0  0  0  0  0  0
   16.4520   23.9055    0.3152 C   0  0  0  0  0  0  0  0  0  0  0  0
   16.8751   23.9839    1.5732 N   0  0  0  0  0  0  0  0  0  0  0  0
   18.1509   24.1356    1.8808 C   0  0  0  0  0  0  0  0  0  0  0  0
   19.0948   24.2189    0.9284 N   0  0  0  0  0  0  0  0  0  0  0  0
   11.7750   22.5017    0.9412 C   0  0  0  0  0  0  0  0  0  0  0  0
   11.4866   21.1338    1.0122 C   0  0  0  0  0  0  0  0  0  0  0  0
   10.3627   20.7249    1.6798 C   0  0  0  0  0  0  0  0  0  0  0  0
    9.5266   21.6269    2.2725 C   0  0  0  0  0  0  0  0  0  0  0  0
    9.8283   22.9675    2.1896 C   0  0  0  0  0  0  0  0  0  0  0  0
   10.9296   23.4100    1.5387 C   0  0  0  0  0  0  0  0  0  0  0  0
    8.3252   21.2142    3.0271 C   0  0  0  0  0  0  0  0  0  0  0  0
    7.0747   21.1567    2.4488 C   0  0  0  0  0  0  0  0  0  0  0  0
    5.9590   20.7521    3.1907 C   0  0  0  0  0  0  0  0  0  0  0  0
    6.0772   20.4004    4.5157 C   0  0  0  0  0  0  0  0  0  0  0  0
    7.3238   20.4578    5.0925 C   0  0  0  0  0  0  0  0  0  0  0  0
    8.4443   20.8648    4.3464 C   0  0  0  0  0  0  0  0  0  0  0  0
    9.7408   20.9232    5.0291 C   0  0  0  0  0  0  0  0  0  0  0  0
    4.9102   19.9786    5.3110 C   0  0  0  0  0  0  0  0  0  0  0  0
    4.3194   18.7448    5.1551 O   0  0  0  0  0  0  0  0  0  0  0  0
    4.4147   20.7556    6.1715 O   0  0  0  0  0  0  0  0  0  0  0  0
    3.3071   18.6376    5.2559 H   0  0  0  0  0  0  0  0  0  0  0  0
   14.7358   25.4251   -5.2190 C   0  0  0  0  0  0  0  0  0  0  0  0
   15.3487   26.7436   -5.2963 C   0  0  0  0  0  0  0  0  0  0  0  0
   14.9346   27.6713   -6.1715 N   0  0  0  0  0  0  0  0  0  0  0  0
   15.5213   28.8813   -6.2523 C   0  0  0  0  0  0  0  0  0  0  0  0
   16.5750   29.1890   -5.4208 C   0  0  0  0  0  0  0  0  0  0  0  0
   17.0249   28.2507   -4.5060 C   0  0  0  0  0  0  0  0  0  0  0  0
   16.4024   27.0251   -4.4510 C   0  0  0  0  0  0  0  0  0  0  0  0
   16.8400   25.9992   -3.4979 C   0  0  0  0  0  0  0  0  0  0  0  0
 13 14  1  0  0  0
 14 15  2  0  0  0
 15 16  1  0  0  0
 16 17  2  0  0  0
 17 18  1  0  0  0
 18 19  2  0  0  0
 16  1  1  0  0  0
  1  2  1  0  0  0
  2  3  2  0  0  0
  2  4  1  0  0  0
  4  5  1  0  0  0
  5  6  2  0  0  0
  5  7  1  0  0  0
  7  8  1  0  0  0
  8  9  1  0  0  0
  9 10  1  0  0  0
 10 37  1  0  0  0
 37 38  1  0  0  0
 38 39  2  0  0  0
 39 40  1  0  0  0
 40 41  2  0  0  0
 41 42  1  0  0  0
 42 43  2  0  0  0
 43 44  1  0  0  0
 10 11  1  0  0  0
 11 12  1  0  0  0
  4 20  1  0  0  0
 20 21  2  0  0  0
 21 22  1  0  0  0
 22 23  2  0  0  0
 23 24  1  0  0  0
 24 25  2  0  0  0
 23 26  1  0  0  0
 26 27  2  0  0  0
 27 28  1  0  0  0
 28 29  2  0  0  0
 29 30  1  0  0  0
 30 31  2  0  0  0
 31 32  1  0  0  0
 29 33  1  0  0  0
 33 34  1  0  0  0
 33 35  2  0  0  0
 19 14  1  0  0  0
  7  1  1  0  0  0
 12  7  1  0  0  0
 25 20  1  0  0  0
 31 26  1  0  0  0
 43 38  1  0  0  0
 34 36  1  0  0  0
M  END
> <minimizedAffinity>
10.13704

> <CNNscore>
0.5433846712

> <CNNaffinity>
7.8939447403

> <CNN_VS>
4.2894487381

> <CNNaffinity_variance>
0.5136238337

$$$$
[H]OC(=O)c1c([H])c([H])c(-c2c([H])c([H])c(N3C(=O)N(c4nc([H])nc(C([H])([H])[H])c4[H])C4(C3=O)C([H])([H])C([H])([H])N(C([H])([H])c3nc([H])c([H])c([H])c3C([H])([H])[H])C([H])([H])C4([H])[H])c([H])c2[H])c(C([H])([H])[H])c1[H]


 44 49  0  0  0  0  0  0  0  0999 V2000
   15.7541   24.2708   -0.2332 N   0  0  0  0  0  0  0  0  0  0  0  0
   14.6913   23.7510    0.5542 C   0  0  0  0  0  0  0  0  0  0  0  0
   14.7675   23.4487    1.7807 O   0  0  0  0  0  0  0  0  0  0  0  0
   13.5519   23.6403   -0.2880 N   0  0  0  0  0  0  0  0  0  0  0  0
   13.9165   24.0877   -1.5661 C   0  0  0  0  0  0  0  0  0  0  0  0
   13.2749   23.9317   -2.6306 O   0  0  0  0  0  0  0  0  0  0  0  0
   15.2332   24.8111   -1.4960 C   0  0  0  0  0  0  0  0  0  0  0  0
   15.0464   26.2914   -1.4448 C   0  0  0  0  0  0  0  0  0  0  0  0
   15.9323   26.9508   -2.4786 C   0  0  0  0  0  0  0  0  0  0  0  0
   15.5984   26.4021   -3.7483 N   0  0  0  0  0  0  0  0  0  0  0  0
   16.0856   25.0631   -3.8644 C   0  0  0  0  0  0  0  0  0  0  0  0
   16.1123   24.3042   -2.5854 C   0  0  0  0  0  0  0  0  0  0  0  0
   20.5344   23.6799   -1.1795 C   0  0  0  0  0  0  0  0  0  0  0  0
   19.4072   23.9393   -0.2409 C   0  0  0  0  0  0  0  0  0  0  0  0
   18.1094   23.9814   -0.7023 C   0  0  0  0  0  0  0  0  0  0  0  0
   17.1103   24.2245    0.2152 C   0  0  0  0  0  0  0  0  0  0  0  0
   17.4385   24.4061    1.4908 N   0  0  0  0  0  0  0  0  0  0  0  0
   18.6902   24.3616    1.9109 C   0  0  0  0  0  0  0  0  0  0  0  0
   19.7049   24.1280    1.0619 N   0  0  0  0  0  0  0  0  0  0  0  0
   12.3075   23.1446    0.1566 C   0  0  0  0  0  0  0  0  0  0  0  0
   11.9307   21.8234   -0.1112 C   0  0  0  0  0  0  0  0  0  0  0  0
   10.7260   21.3679    0.3550 C   0  0  0  0  0  0  0  0  0  0  0  0
    9.8944   22.1791    1.0722 C   0  0  0  0  0  0  0  0  0  0  0  0
   10.2839   23.4754    1.3232 C   0  0  0  0  0  0  0  0  0  0  0  0
   11.4666   23.9616    0.8791 C   0  0  0  0  0  0  0  0  0  0  0  0
    8.6044   21.7067    1.6159 C   0  0  0  0  0  0  0  0  0  0  0  0
    7.4357   21.7508    0.8854 C   0  0  0  0  0  0  0  0  0  0  0  0
    6.2323   21.2859    1.4283 C   0  0  0  0  0  0  0  0  0  0  0  0
    6.1805   20.7723    2.7037 C   0  0  0  0  0  0  0  0  0  0  0  0
    7.3455   20.7283    3.4323 C   0  0  0  0  0  0  0  0  0  0  0  0
    8.5542   21.1960    2.8862 C   0  0  0  0  0  0  0  0  0  0  0  0
    9.7555   21.1390    3.7253 C   0  0  0  0  0  0  0  0  0  0  0  0
    4.9194   20.2850    3.2906 C   0  0  0  0  0  0  0  0  0  0  0  0
    4.3107   19.1242    2.8691 O   0  0  0  0  0  0  0  0  0  0  0  0
    4.3562   20.9348    4.2127 O   0  0  0  0  0  0  0  0  0  0  0  0
    3.2905   19.0526    2.8442 H   0  0  0  0  0  0  0  0  0  0  0  0
   15.9937   27.2163   -4.8528 C   0  0  0  0  0  0  0  0  0  0  0  0
   15.7739   26.6827   -6.1896 C   0  0  0  0  0  0  0  0  0  0  0  0
   16.7888   26.3928   -7.0165 N   0  0  0  0  0  0  0  0  0  0  0  0
   16.5770   25.9203   -8.2601 C   0  0  0  0  0  0  0  0  0  0  0  0
   15.2898   25.7239   -8.7086 C   0  0  0  0  0  0  0  0  0  0  0  0
   14.2206   26.0142   -7.8766 C   0  0  0  0  0  0  0  0  0  0  0  0
   14.4739   26.4954   -6.6129 C   0  0  0  0  0  0  0  0  0  0  0  0
   13.3762   26.8151   -5.6937 C   0  0  0  0  0  0  0  0  0  0  0  0
 13 14  1  0  0  0
 14 15  2  0  0  0
 15 16  1  0  0  0
 16 17  2  0  0  0
 17 18  1  0  0  0
 18 19  2  0  0  0
 16  1  1  0  0  0
  1  2  1  0  0  0
  2  3  2  0  0  0
  2  4  1  0  0  0
  4  5  1  0  0  0
  5  6  2  0  0  0
  5  7  1  0  0  0
  7  8  1  0  0  0
  8  9  1  0  0  0
  9 10  1  0  0  0
 10 37  1  0  0  0
 37 38  1  0  0  0
 38 39  2  0  0  0
 39 40  1  0  0  0
 40 41  2  0  0  0
 41 42  1  0  0  0
 42 43  2  0  0  0
 43 44  1  0  0  0
 10 11  1  0  0  0
 11 12  1  0  0  0
  4 20  1  0  0  0
 20 21  2  0  0  0
 21 22  1  0  0  0
 22 23  2  0  0  0
 23 24  1  0  0  0
 24 25  2  0  0  0
 23 26  1  0  0  0
 26 27  2  0  0  0
 27 28  1  0  0  0
 28 29  2  0  0  0
 29 30  1  0  0  0
 30 31  2  0  0  0
 31 32  1  0  0  0
 29 33  1  0  0  0
 33 34  1  0  0  0
 33 35  2  0  0  0
 19 14  1  0  0  0
  7  1  1  0  0  0
 12  7  1  0  0  0
 25 20  1  0  0  0
 31 26  1  0  0  0
 43 38  1  0  0  0
 34 36  1  0  0  0
M  END
> <minimizedAffinity>
14.65686

> <CNNscore>
0.5364709496

> <CNNaffinity>
8.0553092957

> <CNN_VS>
4.3214392662

> <CNNaffinity_variance>
1.1151864529

$$$$
[H]OC(=O)c1c([H])c([H])c(-c2c([H])c([H])c(N3C(=O)N(c4nc([H])nc(C([H])([H])[H])c4[H])C4(C3=O)C([H])([H])C([H])([H])N(C([H])([H])c3nc([H])c([H])c([H])c3C([H])([H])[H])C([H])([H])C4([H])[H])c([H])c2[H])c(C([H])([H])[H])c1[H]


 44 49  0  0  0  0  0  0  0  0999 V2000
   11.9509   22.0125    0.1264 N   0  0  0  0  0  0  0  0  0  0  0  0
   12.9257   22.6456   -0.6914 C   0  0  0  0  0  0  0  0  0  0  0  0
   14.1293   22.2755   -0.8173 O   0  0  0  0  0  0  0  0  0  0  0  0
   12.2967   23.7509   -1.3259 N   0  0  0  0  0  0  0  0  0  0  0  0
   10.9605   23.7873   -0.9015 C   0  0  0  0  0  0  0  0  0  0  0  0
   10.1494   24.7308   -1.0460 O   0  0  0  0  0  0  0  0  0  0  0  0
   10.6070   22.4936   -0.2207 C   0  0  0  0  0  0  0  0  0  0  0  0
    9.8928   21.5627   -1.1438 C   0  0  0  0  0  0  0  0  0  0  0  0
    8.6404   21.0439   -0.4723 C   0  0  0  0  0  0  0  0  0  0  0  0
    7.8468   22.1675   -0.1088 N   0  0  0  0  0  0  0  0  0  0  0  0
    8.4234   22.8548    1.0043 C   0  0  0  0  0  0  0  0  0  0  0  0
    9.9091   22.8045    1.0571 C   0  0  0  0  0  0  0  0  0  0  0  0
   15.2777   19.0168    2.1398 C   0  0  0  0  0  0  0  0  0  0  0  0
   13.9167   19.6203    2.0931 C   0  0  0  0  0  0  0  0  0  0  0  0
   13.5926   20.5386    1.1181 C   0  0  0  0  0  0  0  0  0  0  0  0
   12.3171   21.0603    1.1272 C   0  0  0  0  0  0  0  0  0  0  0  0
   11.4649   20.6596    2.0657 N   0  0  0  0  0  0  0  0  0  0  0  0
   11.7974   19.7777    2.9914 C   0  0  0  0  0  0  0  0  0  0  0  0
   13.0260   19.2355    3.0314 N   0  0  0  0  0  0  0  0  0  0  0  0
   12.9711   24.6221   -2.2078 C   0  0  0  0  0  0  0  0  0  0  0  0
   14.2629   24.3222   -2.6556 C   0  0  0  0  0  0  0  0  0  0  0  0
   14.8793   25.1780   -3.5295 C   0  0  0  0  0  0  0  0  0  0  0  0
   14.2551   26.3109   -3.9664 C   0  0  0  0  0  0  0  0  0  0  0  0
   12.9853   26.5876   -3.5125 C   0  0  0  0  0  0  0  0  0  0  0  0
   12.3437   25.7662   -2.6488 C   0  0  0  0  0  0  0  0  0  0  0  0
   14.8813   27.2358   -4.9337 C   0  0  0  0  0  0  0  0  0  0  0  0
   15.2272   28.5284   -4.6004 C   0  0  0  0  0  0  0  0  0  0  0  0
   15.8278   29.3750   -5.5391 C   0  0  0  0  0  0  0  0  0  0  0  0
   16.0903   28.9433   -6.8189 C   0  0  0  0  0  0  0  0  0  0  0  0
   15.7454   27.6547   -7.1515 C   0  0  0  0  0  0  0  0  0  0  0  0
   15.1415   26.8047   -6.2078 C   0  0  0  0  0  0  0  0  0  0  0  0
   14.7806   25.4491   -6.6349 C   0  0  0  0  0  0  0  0  0  0  0  0
   16.7164   29.8257   -7.8198 C   0  0  0  0  0  0  0  0  0  0  0  0
   17.4522   29.3366   -8.8757 O   0  0  0  0  0  0  0  0  0  0  0  0
   16.5900   31.0770   -7.7297 O   0  0  0  0  0  0  0  0  0  0  0  0
   18.2688   29.8474   -9.2202 H   0  0  0  0  0  0  0  0  0  0  0  0
    6.4691   21.8584    0.1045 C   0  0  0  0  0  0  0  0  0  0  0  0
    5.8782   20.8246   -0.7334 C   0  0  0  0  0  0  0  0  0  0  0  0
    6.1999   20.6866   -2.0278 N   0  0  0  0  0  0  0  0  0  0  0  0
    5.6323   19.7417   -2.8023 C   0  0  0  0  0  0  0  0  0  0  0  0
    4.6956   18.8870   -2.2652 C   0  0  0  0  0  0  0  0  0  0  0  0
    4.3430   19.0053   -0.9306 C   0  0  0  0  0  0  0  0  0  0  0  0
    4.9426   19.9816   -0.1692 C   0  0  0  0  0  0  0  0  0  0  0  0
    4.6051   20.1453    1.2491 C   0  0  0  0  0  0  0  0  0  0  0  0
 13 14  1  0  0  0
 14 15  2  0  0  0
 15 16  1  0  0  0
 16 17  2  0  0  0
 17 18  1  0  0  0
 18 19  2  0  0  0
 16  1  1  0  0  0
  1  2  1  0  0  0
  2  3  2  0  0  0
  2  4  1  0  0  0
  4  5  1  0  0  0
  5  6  2  0  0  0
  5  7  1  0  0  0
  7  8  1  0  0  0
  8  9  1  0  0  0
  9 10  1  0  0  0
 10 37  1  0  0  0
 37 38  1  0  0  0
 38 39  2  0  0  0
 39 40  1  0  0  0
 40 41  2  0  0  0
 41 42  1  0  0  0
 42 43  2  0  0  0
 43 44  1  0  0  0
 10 11  1  0  0  0
 11 12  1  0  0  0
  4 20  1  0  0  0
 20 21  2  0  0  0
 21 22  1  0  0  0
 22 23  2  0  0  0
 23 24  1  0  0  0
 24 25  2  0  0  0
 23 26  1  0  0  0
 26 27  2  0  0  0
 27 28  1  0  0  0
 28 29  2  0  0  0
 29 30  1  0  0  0
 30 31  2  0  0  0
 31 32  1  0  0  0
 29 33  1  0  0  0
 33 34  1  0  0  0
 33 35  2  0  0  0
 19 14  1  0  0  0
  7  1  1  0  0  0
 12  7  1  0  0  0
 25 20  1  0  0  0
 31 26  1  0  0  0
 43 38  1  0  0  0
 34 36  1  0  0  0
M  END
> <minimizedAffinity>
11.73461

> <CNNscore>
0.4703859687

> <CNNaffinity>
7.8170342445

> <CNN_VS>
3.6770231724

> <CNNaffinity_variance>
0.5930529237

$$$$
[H]OC(=O)c1c([H])c([H])c(-c2c([H])c([H])c(N3C(=O)N(c4nc([H])nc(C([H])([H])[H])c4[H])C4(C3=O)C([H])([H])C([H])([H])N(C([H])([H])c3nc([H])c([H])c([H])c3C([H])([H])[H])C([H])([H])C4([H])[H])c([H])c2[H])c(C([H])([H])[H])c1[H]


 44 49  0  0  0  0  0  0  0  0999 V2000
   12.4284   22.5856    0.2573 N   0  0  0  0  0  0  0  0  0  0  0  0
   13.1646   22.8922   -0.9191 C   0  0  0  0  0  0  0  0  0  0  0  0
   13.9482   22.1012   -1.5205 O   0  0  0  0  0  0  0  0  0  0  0  0
   12.8542   24.2317   -1.2789 N   0  0  0  0  0  0  0  0  0  0  0  0
   11.9424   24.7299   -0.3371 C   0  0  0  0  0  0  0  0  0  0  0  0
   11.6103   25.9260   -0.1693 O   0  0  0  0  0  0  0  0  0  0  0  0
   11.3880   23.5979    0.4834 C   0  0  0  0  0  0  0  0  0  0  0  0
   10.0517   23.1584   -0.0164 C   0  0  0  0  0  0  0  0  0  0  0  0
    9.0771   23.0847    1.1382 C   0  0  0  0  0  0  0  0  0  0  0  0
    9.0353   24.3676    1.7521 N   0  0  0  0  0  0  0  0  0  0  0  0
   10.2336   24.6133    2.4922 C   0  0  0  0  0  0  0  0  0  0  0  0
   11.4513   23.9779    1.9214 C   0  0  0  0  0  0  0  0  0  0  0  0
   11.3034   19.5343    3.9341 C   0  0  0  0  0  0  0  0  0  0  0  0
   12.1906   19.9729    2.8208 C   0  0  0  0  0  0  0  0  0  0  0  0
   11.8708   21.0821    2.0682 C   0  0  0  0  0  0  0  0  0  0  0  0
   12.7319   21.4380    1.0528 C   0  0  0  0  0  0  0  0  0  0  0  0
   13.8209   20.7037    0.8460 N   0  0  0  0  0  0  0  0  0  0  0  0
   14.1077   19.6436    1.5802 C   0  0  0  0  0  0  0  0  0  0  0  0
   13.3052   19.2499    2.5833 N   0  0  0  0  0  0  0  0  0  0  0  0
   13.4172   24.8815   -2.3981 C   0  0  0  0  0  0  0  0  0  0  0  0
   12.7691   25.9727   -2.9884 C   0  0  0  0  0  0  0  0  0  0  0  0
   13.3550   26.5946   -4.0589 C   0  0  0  0  0  0  0  0  0  0  0  0
   14.5537   26.1678   -4.5539 C   0  0  0  0  0  0  0  0  0  0  0  0
   15.1734   25.0919   -3.9592 C   0  0  0  0  0  0  0  0  0  0  0  0
   14.6257   24.4517   -2.8998 C   0  0  0  0  0  0  0  0  0  0  0  0
   15.2256   26.8385   -5.6860 C   0  0  0  0  0  0  0  0  0  0  0  0
   15.3281   26.2570   -6.9321 C   0  0  0  0  0  0  0  0  0  0  0  0
   15.9634   26.9248   -7.9854 C   0  0  0  0  0  0  0  0  0  0  0  0
   16.5027   28.1782   -7.8086 C   0  0  0  0  0  0  0  0  0  0  0  0
   16.4008   28.7581   -6.5663 C   0  0  0  0  0  0  0  0  0  0  0  0
   15.7626   28.0862   -5.5083 C   0  0  0  0  0  0  0  0  0  0  0  0
   15.7072   28.7536   -4.2038 C   0  0  0  0  0  0  0  0  0  0  0  0
   17.1801   28.8907   -8.9068 C   0  0  0  0  0  0  0  0  0  0  0  0
   18.5410   28.8193   -9.1024 O   0  0  0  0  0  0  0  0  0  0  0  0
   16.5138   29.5981   -9.7101 O   0  0  0  0  0  0  0  0  0  0  0  0
   19.0595   29.6317   -9.4455 H   0  0  0  0  0  0  0  0  0  0  0  0
    7.8629   24.5970    2.5344 C   0  0  0  0  0  0  0  0  0  0  0  0
    7.7406   23.8645    3.7868 C   0  0  0  0  0  0  0  0  0  0  0  0
    7.6056   22.5309    3.8216 N   0  0  0  0  0  0  0  0  0  0  0  0
    7.4706   21.8622    4.9833 C   0  0  0  0  0  0  0  0  0  0  0  0
    7.4698   22.5523    6.1751 C   0  0  0  0  0  0  0  0  0  0  0  0
    7.6077   23.9309    6.1708 C   0  0  0  0  0  0  0  0  0  0  0  0
    7.7433   24.5811    4.9660 C   0  0  0  0  0  0  0  0  0  0  0  0
    7.8950   26.0392    4.9090 C   0  0  0  0  0  0  0  0  0  0  0  0
 13 14  1  0  0  0
 14 15  2  0  0  0
 15 16  1  0  0  0
 16 17  2  0  0  0
 17 18  1  0  0  0
 18 19  2  0  0  0
 16  1  1  0  0  0
  1  2  1  0  0  0
  2  3  2  0  0  0
  2  4  1  0  0  0
  4  5  1  0  0  0
  5  6  2  0  0  0
  5  7  1  0  0  0
  7  8  1  0  0  0
  8  9  1  0  0  0
  9 10  1  0  0  0
 10 37  1  0  0  0
 37 38  1  0  0  0
 38 39  2  0  0  0
 39 40  1  0  0  0
 40 41  2  0  0  0
 41 42  1  0  0  0
 42 43  2  0  0  0
 43 44  1  0  0  0
 10 11  1  0  0  0
 11 12  1  0  0  0
  4 20  1  0  0  0
 20 21  2  0  0  0
 21 22  1  0  0  0
 22 23  2  0  0  0
 23 24  1  0  0  0
 24 25  2  0  0  0
 23 26  1  0  0  0
 26 27  2  0  0  0
 27 28  1  0  0  0
 28 29  2  0  0  0
 29 30  1  0  0  0
 30 31  2  0  0  0
 31 32  1  0  0  0
 29 33  1  0  0  0
 33 34  1  0  0  0
 33 35  2  0  0  0
 19 14  1  0  0  0
  7  1  1  0  0  0
 12  7  1  0  0  0
 25 20  1  0  0  0
 31 26  1  0  0  0
 43 38  1  0  0  0
 34 36  1  0  0  0
M  END
> <minimizedAffinity>
12.60948

> <CNNscore>
0.4537771940

> <CNNaffinity>
7.6207704544

> <CNN_VS>
3.4581317902

> <CNNaffinity_variance>
0.2130556554

$$$$
[H]OC(=O)c1c([H])c([H])c(-c2c([H])c([H])c(N3C(=O)N(c4nc([H])nc(C([H])([H])[H])c4[H])C4(C3=O)C([H])([H])C([H])([H])N(C([H])([H])c3nc([H])c([H])c([H])c3C([H])([H])[H])C([H])([H])C4([H])[H])c([H])c2[H])c(C([H])([H])[H])c1[H]


 44 49  0  0  0  0  0  0  0  0999 V2000
   10.5087   22.7103    2.9151 N   0  0  0  0  0  0  0  0  0  0  0  0
   11.4264   22.7682    1.8315 C   0  0  0  0  0  0  0  0  0  0  0  0
   12.1840   21.8247    1.4611 O   0  0  0  0  0  0  0  0  0  0  0  0
   11.3278   24.0652    1.2586 N   0  0  0  0  0  0  0  0  0  0  0  0
   10.3639   24.7827    1.9817 C   0  0  0  0  0  0  0  0  0  0  0  0
   10.1565   26.0174    1.9414 O   0  0  0  0  0  0  0  0  0  0  0  0
    9.5748   23.8424    2.8506 C   0  0  0  0  0  0  0  0  0  0  0  0
    8.2746   23.4691    2.2192 C   0  0  0  0  0  0  0  0  0  0  0  0
    7.1528   23.6608    3.2158 C   0  0  0  0  0  0  0  0  0  0  0  0
    7.1817   25.0172    3.6447 N   0  0  0  0  0  0  0  0  0  0  0  0
    8.2911   25.2482    4.5165 C   0  0  0  0  0  0  0  0  0  0  0  0
    9.4902   24.4194    4.2205 C   0  0  0  0  0  0  0  0  0  0  0  0
   12.1744   18.3273    4.3679 C   0  0  0  0  0  0  0  0  0  0  0  0
   11.3657   19.5592    4.5857 C   0  0  0  0  0  0  0  0  0  0  0  0
   11.3325   20.5512    3.6298 C   0  0  0  0  0  0  0  0  0  0  0  0
   10.5652   21.6662    3.8892 C   0  0  0  0  0  0  0  0  0  0  0  0
    9.8984   21.7352    5.0374 N   0  0  0  0  0  0  0  0  0  0  0  0
    9.9450   20.7717    5.9400 C   0  0  0  0  0  0  0  0  0  0  0  0
   10.6758   19.6620    5.7412 N   0  0  0  0  0  0  0  0  0  0  0  0
   12.1081   24.4865    0.1607 C   0  0  0  0  0  0  0  0  0  0  0  0
   12.6914   23.5490   -0.6996 C   0  0  0  0  0  0  0  0  0  0  0  0
   13.4234   23.9928   -1.7689 C   0  0  0  0  0  0  0  0  0  0  0  0
   13.5901   25.3272   -2.0050 C   0  0  0  0  0  0  0  0  0  0  0  0
   13.0089   26.2321   -1.1457 C   0  0  0  0  0  0  0  0  0  0  0  0
   12.2786   25.8320   -0.0785 C   0  0  0  0  0  0  0  0  0  0  0  0
   14.3463   25.8359   -3.1679 C   0  0  0  0  0  0  0  0  0  0  0  0
   13.7813   25.9551   -4.4202 C   0  0  0  0  0  0  0  0  0  0  0  0
   14.5242   26.4500   -5.4982 C   0  0  0  0  0  0  0  0  0  0  0  0
   15.8367   26.8315   -5.3402 C   0  0  0  0  0  0  0  0  0  0  0  0
   16.4002   26.7127   -4.0920 C   0  0  0  0  0  0  0  0  0  0  0  0
   15.6533   26.2148   -3.0093 C   0  0  0  0  0  0  0  0  0  0  0  0
   16.3220   26.0949   -1.7097 C   0  0  0  0  0  0  0  0  0  0  0  0
   16.6329   27.3484   -6.4677 C   0  0  0  0  0  0  0  0  0  0  0  0
   16.2964   27.1046   -7.7803 O   0  0  0  0  0  0  0  0  0  0  0  0
   17.6641   28.0409   -6.2512 O   0  0  0  0  0  0  0  0  0  0  0  0
   17.0242   26.9710   -8.4866 H   0  0  0  0  0  0  0  0  0  0  0  0
    5.9510   25.4726    4.2076 C   0  0  0  0  0  0  0  0  0  0  0  0
    5.8809   26.8663    4.6235 C   0  0  0  0  0  0  0  0  0  0  0  0
    6.4200   27.2940    5.7743 N   0  0  0  0  0  0  0  0  0  0  0  0
    6.3318   28.5809    6.1631 C   0  0  0  0  0  0  0  0  0  0  0  0
    5.6743   29.4933    5.3685 C   0  0  0  0  0  0  0  0  0  0  0  0
    5.1073   29.0809    4.1735 C   0  0  0  0  0  0  0  0  0  0  0  0
    5.2164   27.7592    3.8079 C   0  0  0  0  0  0  0  0  0  0  0  0
    4.6354   27.2740    2.5511 C   0  0  0  0  0  0  0  0  0  0  0  0
 13 14  1  0  0  0
 14 15  2  0  0  0
 15 16  1  0  0  0
 16 17  2  0  0  0
 17 18  1  0  0  0
 18 19  2  0  0  0
 16  1  1  0  0  0
  1  2  1  0  0  0
  2  3  2  0  0  0
  2  4  1  0  0  0
  4  5  1  0  0  0
  5  6  2  0  0  0
  5  7  1  0  0  0
  7  8  1  0  0  0
  8  9  1  0  0  0
  9 10  1  0  0  0
 10 37  1  0  0  0
 37 38  1  0  0  0
 38 39  2  0  0  0
 39 40  1  0  0  0
 40 41  2  0  0  0
 41 42  1  0  0  0
 42 43  2  0  0  0
 43 44  1  0  0  0
 10 11  1  0  0  0
 11 12  1  0  0  0
  4 20  1  0  0  0
 20 21  2  0  0  0
 21 22  1  0  0  0
 22 23  2  0  0  0
 23 24  1  0  0  0
 24 25  2  0  0  0
 23 26  1  0  0  0
 26 27  2  0  0  0
 27 28  1  0  0  0
 28 29  2  0  0  0
 29 30  1  0  0  0
 30 31  2  0  0  0
 31 32  1  0  0  0
 29 33  1  0  0  0
 33 34  1  0  0  0
 33 35  2  0  0  0
 19 14  1  0  0  0
  7  1  1  0  0  0
 12  7  1  0  0  0
 25 20  1  0  0  0
 31 26  1  0  0  0
 43 38  1  0  0  0
 34 36  1  0  0  0
M  END
> <minimizedAffinity>
-0.10156

> <CNNscore>
0.4512678087

> <CNNaffinity>
7.1243338585

> <CNN_VS>
3.2149825096

> <CNNaffinity_variance>
0.4242009223

$$$$
[H]OC(=O)c1c([H])c([H])c(-c2c([H])c([H])c(N3C(=O)N(c4nc([H])nc(C([H])([H])[H])c4[H])C4(C3=O)C([H])([H])C([H])([H])N(C([H])([H])c3nc([H])c([H])c([H])c3C([H])([H])[H])C([H])([H])C4([H])[H])c([H])c2[H])c(C([H])([H])[H])c1[H]


 44 49  0  0  0  0  0  0  0  0999 V2000
   11.9706   21.8383    0.2621 N   0  0  0  0  0  0  0  0  0  0  0  0
   12.9245   22.4692   -0.5816 C   0  0  0  0  0  0  0  0  0  0  0  0
   14.1007   22.0545   -0.7967 O   0  0  0  0  0  0  0  0  0  0  0  0
   12.3112   23.6308   -1.1242 N   0  0  0  0  0  0  0  0  0  0  0  0
   11.0048   23.7032   -0.6194 C   0  0  0  0  0  0  0  0  0  0  0  0
   10.2307   24.6867   -0.6702 O   0  0  0  0  0  0  0  0  0  0  0  0
   10.6323   22.3934    0.0192 C   0  0  0  0  0  0  0  0  0  0  0  0
    9.8242   21.5414   -0.9026 C   0  0  0  0  0  0  0  0  0  0  0  0
    8.5902   21.0438   -0.1829 C   0  0  0  0  0  0  0  0  0  0  0  0
    7.8712   22.1808    0.2804 N   0  0  0  0  0  0  0  0  0  0  0  0
    8.5418   22.7862    1.3884 C   0  0  0  0  0  0  0  0  0  0  0  0
   10.0242   22.6695    1.3497 C   0  0  0  0  0  0  0  0  0  0  0  0
   15.4134   18.9719    2.2686 C   0  0  0  0  0  0  0  0  0  0  0  0
   14.0054   19.4447    2.1555 C   0  0  0  0  0  0  0  0  0  0  0  0
   13.6692   20.4284    1.2508 C   0  0  0  0  0  0  0  0  0  0  0  0
   12.3499   20.8224    1.1928 C   0  0  0  0  0  0  0  0  0  0  0  0
   11.4693   20.2431    2.0031 N   0  0  0  0  0  0  0  0  0  0  0  0
   11.8142   19.3016    2.8633 C   0  0  0  0  0  0  0  0  0  0  0  0
   13.0851   18.8776    2.9636 N   0  0  0  0  0  0  0  0  0  0  0  0
   12.9728   24.5154   -2.0026 C   0  0  0  0  0  0  0  0  0  0  0  0
   14.3662   24.4812   -2.1315 C   0  0  0  0  0  0  0  0  0  0  0  0
   14.9740   25.3380   -3.0104 C   0  0  0  0  0  0  0  0  0  0  0  0
   14.2444   26.2180   -3.7569 C   0  0  0  0  0  0  0  0  0  0  0  0
   12.8753   26.2359   -3.6137 C   0  0  0  0  0  0  0  0  0  0  0  0
   12.2388   25.4048   -2.7556 C   0  0  0  0  0  0  0  0  0  0  0  0
   14.8685   27.1312   -4.7366 C   0  0  0  0  0  0  0  0  0  0  0  0
   15.0177   28.4807   -4.4958 C   0  0  0  0  0  0  0  0  0  0  0  0
   15.6223   29.3157   -5.4424 C   0  0  0  0  0  0  0  0  0  0  0  0
   16.0847   28.8155   -6.6379 C   0  0  0  0  0  0  0  0  0  0  0  0
   15.9359   27.4702   -6.8782 C   0  0  0  0  0  0  0  0  0  0  0  0
   15.3278   26.6318   -5.9267 C   0  0  0  0  0  0  0  0  0  0  0  0
   15.1823   25.2102   -6.2558 C   0  0  0  0  0  0  0  0  0  0  0  0
   16.7176   29.6839   -7.6466 C   0  0  0  0  0  0  0  0  0  0  0  0
   17.1967   29.1967   -8.8419 O   0  0  0  0  0  0  0  0  0  0  0  0
   16.8381   30.9207   -7.4331 O   0  0  0  0  0  0  0  0  0  0  0  0
   18.0377   29.5963   -9.2657 H   0  0  0  0  0  0  0  0  0  0  0  0
    6.4953   21.9208    0.5608 C   0  0  0  0  0  0  0  0  0  0  0  0
    6.1371   20.5646    0.9514 C   0  0  0  0  0  0  0  0  0  0  0  0
    5.8511   19.6154    0.0486 N   0  0  0  0  0  0  0  0  0  0  0  0
    5.4987   18.3688    0.4182 C   0  0  0  0  0  0  0  0  0  0  0  0
    5.4262   18.0450    1.7548 C   0  0  0  0  0  0  0  0  0  0  0  0
    5.7163   19.0049    2.7109 C   0  0  0  0  0  0  0  0  0  0  0  0
    6.0725   20.2677    2.2975 C   0  0  0  0  0  0  0  0  0  0  0  0
    6.3916   21.3179    3.2710 C   0  0  0  0  0  0  0  0  0  0  0  0
 13 14  1  0  0  0
 14 15  2  0  0  0
 15 16  1  0  0  0
 16 17  2  0  0  0
 17 18  1  0  0  0
 18 19  2  0  0  0
 16  1  1  0  0  0
  1  2  1  0  0  0
  2  3  2  0  0  0
  2  4  1  0  0  0
  4  5  1  0  0  0
  5  6  2  0  0  0
  5  7  1  0  0  0
  7  8  1  0  0  0
  8  9  1  0  0  0
  9 10  1  0  0  0
 10 37  1  0  0  0
 37 38  1  0  0  0
 38 39  2  0  0  0
 39 40  1  0  0  0
 40 41  2  0  0  0
 41 42  1  0  0  0
 42 43  2  0  0  0
 43 44  1  0  0  0
 10 11  1  0  0  0
 11 12  1  0  0  0
  4 20  1  0  0  0
 20 21  2  0  0  0
 21 22  1  0  0  0
 22 23  2  0  0  0
 23 24  1  0  0  0
 24 25  2  0  0  0
 23 26  1  0  0  0
 26 27  2  0  0  0
 27 28  1  0  0  0
 28 29  2  0  0  0
 29 30  1  0  0  0
 30 31  2  0  0  0
 31 32  1  0  0  0
 29 33  1  0  0  0
 33 34  1  0  0  0
 33 35  2  0  0  0
 19 14  1  0  0  0
  7  1  1  0  0  0
 12  7  1  0  0  0
 25 20  1  0  0  0
 31 26  1  0  0  0
 43 38  1  0  0  0
 34 36  1  0  0  0
M  END
> <minimizedAffinity>
13.31511

> <CNNscore>
0.4467793703

> <CNNaffinity>
7.5648374557

> <CNN_VS>
3.3798134327

> <CNNaffinity_variance>
0.6293283701

$$$$
[H]OC(=O)c1c([H])c([H])c(-c2c([H])c([H])c(N3C(=O)N(c4nc([H])nc(C([H])([H])[H])c4[H])C4(C3=O)C([H])([H])C([H])([H])N(C([H])([H])c3nc([H])c([H])c([H])c3C([H])([H])[H])C([H])([H])C4([H])[H])c([H])c2[H])c(C([H])([H])[H])c1[H]


 44 49  0  0  0  0  0  0  0  0999 V2000
   14.6500   24.1359   -3.5399 N   0  0  0  0  0  0  0  0  0  0  0  0
   14.2488   23.2270   -2.5235 C   0  0  0  0  0  0  0  0  0  0  0  0
   14.7733   22.0969   -2.3020 O   0  0  0  0  0  0  0  0  0  0  0  0
   13.1673   23.8241   -1.8208 N   0  0  0  0  0  0  0  0  0  0  0  0
   12.9170   25.0765   -2.4000 C   0  0  0  0  0  0  0  0  0  0  0  0
   11.9098   25.8002   -2.2243 O   0  0  0  0  0  0  0  0  0  0  0  0
   14.0604   25.4596   -3.2988 C   0  0  0  0  0  0  0  0  0  0  0  0
   15.0105   26.3873   -2.6164 C   0  0  0  0  0  0  0  0  0  0  0  0
   15.2849   27.5785   -3.5075 C   0  0  0  0  0  0  0  0  0  0  0  0
   14.0370   28.1952   -3.8024 N   0  0  0  0  0  0  0  0  0  0  0  0
   13.2857   27.4009   -4.7237 C   0  0  0  0  0  0  0  0  0  0  0  0
   13.5062   25.9355   -4.5960 C   0  0  0  0  0  0  0  0  0  0  0  0
   16.6022   24.9533   -7.9689 C   0  0  0  0  0  0  0  0  0  0  0  0
   16.4387   24.1242   -6.7423 C   0  0  0  0  0  0  0  0  0  0  0  0
   15.6123   24.5419   -5.7216 C   0  0  0  0  0  0  0  0  0  0  0  0
   15.5020   23.7305   -4.6131 C   0  0  0  0  0  0  0  0  0  0  0  0
   16.1901   22.5934   -4.5773 N   0  0  0  0  0  0  0  0  0  0  0  0
   16.9769   22.2127   -5.5678 C   0  0  0  0  0  0  0  0  0  0  0  0
   17.1229   22.9629   -6.6728 N   0  0  0  0  0  0  0  0  0  0  0  0
   12.5041   23.1960   -0.7449 C   0  0  0  0  0  0  0  0  0  0  0  0
   12.7756   23.5717    0.5758 C   0  0  0  0  0  0  0  0  0  0  0  0
   12.0969   22.9577    1.5948 C   0  0  0  0  0  0  0  0  0  0  0  0
   11.1659   21.9918    1.3413 C   0  0  0  0  0  0  0  0  0  0  0  0
   10.9151   21.6365    0.0352 C   0  0  0  0  0  0  0  0  0  0  0  0
   11.5655   22.2205   -0.9984 C   0  0  0  0  0  0  0  0  0  0  0  0
   10.3947   21.3352    2.4171 C   0  0  0  0  0  0  0  0  0  0  0  0
    9.0795   21.6543    2.6819 C   0  0  0  0  0  0  0  0  0  0  0  0
    8.3756   21.0055    3.7028 C   0  0  0  0  0  0  0  0  0  0  0  0
    8.9737   20.0326    4.4701 C   0  0  0  0  0  0  0  0  0  0  0  0
   10.2849   19.7144    4.2065 C   0  0  0  0  0  0  0  0  0  0  0  0
   10.9918   20.3670    3.1806 C   0  0  0  0  0  0  0  0  0  0  0  0
   12.3936   19.9938    2.9663 C   0  0  0  0  0  0  0  0  0  0  0  0
    8.2467   19.3455    5.5527 C   0  0  0  0  0  0  0  0  0  0  0  0
    8.5726   18.0738    5.9676 O   0  0  0  0  0  0  0  0  0  0  0  0
    7.2877   19.9194    6.1365 O   0  0  0  0  0  0  0  0  0  0  0  0
    7.8435   17.4246    6.2731 H   0  0  0  0  0  0  0  0  0  0  0  0
   14.1490   29.5532   -4.2293 C   0  0  0  0  0  0  0  0  0  0  0  0
   12.9536   30.3806   -4.1482 C   0  0  0  0  0  0  0  0  0  0  0  0
   13.0058   31.7178   -4.2325 N   0  0  0  0  0  0  0  0  0  0  0  0
   11.8980   32.4780   -4.1342 C   0  0  0  0  0  0  0  0  0  0  0  0
   10.6719   31.8809   -3.9426 C   0  0  0  0  0  0  0  0  0  0  0  0
   10.5865   30.5010   -3.8518 C   0  0  0  0  0  0  0  0  0  0  0  0
   11.7382   29.7559   -3.9563 C   0  0  0  0  0  0  0  0  0  0  0  0
   11.6997   28.2919   -3.8695 C   0  0  0  0  0  0  0  0  0  0  0  0
 13 14  1  0  0  0
 14 15  2  0  0  0
 15 16  1  0  0  0
 16 17  2  0  0  0
 17 18  1  0  0  0
 18 19  2  0  0  0
 16  1  1  0  0  0
  1  2  1  0  0  0
  2  3  2  0  0  0
  2  4  1  0  0  0
  4  5  1  0  0  0
  5  6  2  0  0  0
  5  7  1  0  0  0
  7  8  1  0  0  0
  8  9  1  0  0  0
  9 10  1  0  0  0
 10 37  1  0  0  0
 37 38  1  0  0  0
 38 39  2  0  0  0
 39 40  1  0  0  0
 40 41  2  0  0  0
 41 42  1  0  0  0
 42 43  2  0  0  0
 43 44  1  0  0  0
 10 11  1  0  0  0
 11 12  1  0  0  0
  4 20  1  0  0  0
 20 21  2  0  0  0
 21 22  1  0  0  0
 22 23  2  0  0  0
 23 24  1  0  0  0
 24 25  2  0  0  0
 23 26  1  0  0  0
 26 27  2  0  0  0
 27 28  1  0  0  0
 28 29  2  0  0  0
 29 30  1  0  0  0
 30 31  2  0  0  0
 31 32  1  0  0  0
 29 33  1  0  0  0
 33 34  1  0  0  0
 33 35  2  0  0  0
 19 14  1  0  0  0
  7  1  1  0  0  0
 12  7  1  0  0  0
 25 20  1  0  0  0
 31 26  1  0  0  0
 43 38  1  0  0  0
 34 36  1  0  0  0
M  END
> <minimizedAffinity>
29.15915

> <CNNscore>
0.4282190204

> <CNNaffinity>
7.3621063232

> <CNN_VS>
3.1525938511

> <CNNaffinity_variance>
0.6323192120

$$$$
[H]OC(=O)c1c([H])c([H])c(-c2c([H])c([H])c(N3C(=O)N(c4nc([H])nc(C([H])([H])[H])c4[H])C4(C3=O)C([H])([H])C([H])([H])N(C([H])([H])c3nc([H])c([H])c([H])c3C([H])([H])[H])C([H])([H])C4([H])[H])c([H])c2[H])c(C([H])([H])[H])c1[H]


 44 49  0  0  0  0  0  0  0  0999 V2000
   11.0757   22.1298    1.8845 N   0  0  0  0  0  0  0  0  0  0  0  0
   11.9209   22.2929    0.7537 C   0  0  0  0  0  0  0  0  0  0  0  0
   12.6412   21.3879    0.2401 O   0  0  0  0  0  0  0  0  0  0  0  0
   11.8004   23.6418    0.3228 N   0  0  0  0  0  0  0  0  0  0  0  0
   10.8947   24.2871    1.1772 C   0  0  0  0  0  0  0  0  0  0  0  0
   10.6998   25.5205    1.2760 O   0  0  0  0  0  0  0  0  0  0  0  0
   10.1532   23.2674    1.9972 C   0  0  0  0  0  0  0  0  0  0  0  0
    8.8099   22.9671    1.4191 C   0  0  0  0  0  0  0  0  0  0  0  0
    7.7584   23.0622    2.5024 C   0  0  0  0  0  0  0  0  0  0  0  0
    7.8316   24.3677    3.0635 N   0  0  0  0  0  0  0  0  0  0  0  0
    8.9985   24.5031    3.8784 C   0  0  0  0  0  0  0  0  0  0  0  0
   10.1656   23.7025    3.4209 C   0  0  0  0  0  0  0  0  0  0  0  0
    9.8250   19.7652    6.0004 C   0  0  0  0  0  0  0  0  0  0  0  0
   10.5824   19.8569    4.7210 C   0  0  0  0  0  0  0  0  0  0  0  0
   10.4562   20.9656    3.9123 C   0  0  0  0  0  0  0  0  0  0  0  0
   11.1836   20.9917    2.7421 C   0  0  0  0  0  0  0  0  0  0  0  0
   11.9661   19.9578    2.4478 N   0  0  0  0  0  0  0  0  0  0  0  0
   12.0716   18.9047    3.2383 C   0  0  0  0  0  0  0  0  0  0  0  0
   11.3867   18.8244    4.3914 N   0  0  0  0  0  0  0  0  0  0  0  0
   12.5119   24.1686   -0.7764 C   0  0  0  0  0  0  0  0  0  0  0  0
   13.7340   23.6093   -1.1674 C   0  0  0  0  0  0  0  0  0  0  0  0
   14.3868   24.1304   -2.2530 C   0  0  0  0  0  0  0  0  0  0  0  0
   13.8652   25.1798   -2.9534 C   0  0  0  0  0  0  0  0  0  0  0  0
   12.6627   25.7157   -2.5509 C   0  0  0  0  0  0  0  0  0  0  0  0
   11.9881   25.2280   -1.4835 C   0  0  0  0  0  0  0  0  0  0  0  0
   14.5297   25.7418   -4.1474 C   0  0  0  0  0  0  0  0  0  0  0  0
   14.2384   25.3115   -5.4247 C   0  0  0  0  0  0  0  0  0  0  0  0
   14.8803   25.8726   -6.5346 C   0  0  0  0  0  0  0  0  0  0  0  0
   15.8183   26.8679   -6.3841 C   0  0  0  0  0  0  0  0  0  0  0  0
   16.1090   27.2971   -5.1108 C   0  0  0  0  0  0  0  0  0  0  0  0
   15.4639   26.7324   -3.9959 C   0  0  0  0  0  0  0  0  0  0  0  0
   15.8362   27.2223   -2.6648 C   0  0  0  0  0  0  0  0  0  0  0  0
   16.5068   27.4636   -7.5431 C   0  0  0  0  0  0  0  0  0  0  0  0
   16.5464   28.8230   -7.7578 O   0  0  0  0  0  0  0  0  0  0  0  0
   17.0880   26.7254   -8.3839 O   0  0  0  0  0  0  0  0  0  0  0  0
   16.5181   29.1995   -8.7086 H   0  0  0  0  0  0  0  0  0  0  0  0
    6.6460   24.7700    3.7502 C   0  0  0  0  0  0  0  0  0  0  0  0
    6.3348   26.1923    3.7707 C   0  0  0  0  0  0  0  0  0  0  0  0
    6.5298   26.9794    2.7028 N   0  0  0  0  0  0  0  0  0  0  0  0
    6.2604   28.2990    2.7364 C   0  0  0  0  0  0  0  0  0  0  0  0
    5.7710   28.8693    3.8903 C   0  0  0  0  0  0  0  0  0  0  0  0
    5.5591   28.0812    5.0099 C   0  0  0  0  0  0  0  0  0  0  0  0
    5.8452   26.7374    4.9400 C   0  0  0  0  0  0  0  0  0  0  0  0
    5.6354   25.8605    6.0973 C   0  0  0  0  0  0  0  0  0  0  0  0
 13 14  1  0  0  0
 14 15  2  0  0  0
 15 16  1  0  0  0
 16 17  2  0  0  0
 17 18  1  0  0  0
 18 19  2  0  0  0
 16  1  1  0  0  0
  1  2  1  0  0  0
  2  3  2  0  0  0
  2  4  1  0  0  0
  4  5  1  0  0  0
  5  6  2  0  0  0
  5  7  1  0  0  0
  7  8  1  0  0  0
  8  9  1  0  0  0
  9 10  1  0  0  0
 10 37  1  0  0  0
 37 38  1  0  0  0
 38 39  2  0  0  0
 39 40  1  0  0  0
 40 41  2  0  0  0
 41 42  1  0  0  0
 42 43  2  0  0  0
 43 44  1  0  0  0
 10 11  1  0  0  0
 11 12  1  0  0  0
  4 20  1  0  0  0
 20 21  2  0  0  0
 21 22  1  0  0  0
 22 23  2  0  0  0
 23 24  1  0  0  0
 24 25  2  0  0  0
 23 26  1  0  0  0
 26 27  2  0  0  0
 27 28  1  0  0  0
 28 29  2  0  0  0
 29 30  1  0  0  0
 30 31  2  0  0  0
 31 32  1  0  0  0
 29 33  1  0  0  0
 33 34  1  0  0  0
 33 35  2  0  0  0
 19 14  1  0  0  0
  7  1  1  0  0  0
 12  7  1  0  0  0
 25 20  1  0  0  0
 31 26  1  0  0  0
 43 38  1  0  0  0
 34 36  1  0  0  0
M  END
> <minimizedAffinity>
-4.07585

> <CNNscore>
0.4255492091

> <CNNaffinity>
7.3199348450

> <CNN_VS>
3.1149923801

> <CNNaffinity_variance>
0.2493282855

$$$$
[H]c1nc(C([H])([H])N2C([H])([H])C([H])([H])C3(C(=O)N(c4c([H])c([H])c(-c5c([H])c([H])c(C#N)c([H])c5[H])c([H])c4[H])C(=O)N3c3nc([H])n([H])c(=O)c3[H])C([H])([H])C2([H])[H])c(C([H])([H])[H])c([H])c1[H]


 42 47  0  0  0  0  0  0  0  0999 V2000
   15.4179   24.8106   -3.5882 N   0  0  0  0  0  0  0  0  0  0  0  0
   14.0309   24.3213   -3.6791 C   0  0  0  0  0  0  0  0  0  0  0  0
   13.2660   24.7287   -2.4738 C   0  0  0  0  0  0  0  0  0  0  0  0
   13.7024   23.8492   -1.3000 C   0  0  0  0  0  0  0  0  0  0  0  0
   15.1896   23.6677   -1.4171 C   0  0  0  0  0  0  0  0  0  0  0  0
   15.7998   24.8092   -2.1943 C   0  0  0  0  0  0  0  0  0  0  0  0
   13.2542   24.3743   -0.0511 N   0  0  0  0  0  0  0  0  0  0  0  0
   12.0154   23.6961    0.2398 C   0  0  0  0  0  0  0  0  0  0  0  0
   11.2122   24.0953    1.1540 O   0  0  0  0  0  0  0  0  0  0  0  0
   11.8318   22.5723   -0.6020 N   0  0  0  0  0  0  0  0  0  0  0  0
   12.9810   22.5602   -1.4288 C   0  0  0  0  0  0  0  0  0  0  0  0
   13.3871   21.6330   -2.1855 O   0  0  0  0  0  0  0  0  0  0  0  0
   13.8443   25.3636    0.7906 C   0  0  0  0  0  0  0  0  0  0  0  0
   13.0687   26.3849    1.2766 C   0  0  0  0  0  0  0  0  0  0  0  0
   13.6364   27.3601    2.0859 C   0  0  0  0  0  0  0  0  0  0  0  0
   12.9455   28.3069    2.5430 O   0  0  0  0  0  0  0  0  0  0  0  0
   14.9545   27.2922    2.3887 N   0  0  0  0  0  0  0  0  0  0  0  0
   15.7033   26.2861    1.9066 C   0  0  0  0  0  0  0  0  0  0  0  0
   15.1363   25.3346    1.1132 N   0  0  0  0  0  0  0  0  0  0  0  0
   15.3851   28.0128    2.9927 H   0  0  0  0  0  0  0  0  0  0  0  0
   10.7392   21.6705   -0.5924 C   0  0  0  0  0  0  0  0  0  0  0  0
    9.9834   21.4128   -1.7081 C   0  0  0  0  0  0  0  0  0  0  0  0
    8.8987   20.5275   -1.6809 C   0  0  0  0  0  0  0  0  0  0  0  0
    8.5689   19.8904   -0.5085 C   0  0  0  0  0  0  0  0  0  0  0  0
    9.3083   20.1350    0.6088 C   0  0  0  0  0  0  0  0  0  0  0  0
   10.3912   21.0222    0.5691 C   0  0  0  0  0  0  0  0  0  0  0  0
    7.4380   18.9622   -0.4220 C   0  0  0  0  0  0  0  0  0  0  0  0
    6.2669   19.4619    0.0770 C   0  0  0  0  0  0  0  0  0  0  0  0
    5.1600   18.6377    0.1841 C   0  0  0  0  0  0  0  0  0  0  0  0
    5.2253   17.3209   -0.2062 C   0  0  0  0  0  0  0  0  0  0  0  0
    6.4262   16.8515   -0.7068 C   0  0  0  0  0  0  0  0  0  0  0  0
    7.5467   17.6529   -0.8243 C   0  0  0  0  0  0  0  0  0  0  0  0
    4.1015   16.4424   -0.1063 C   0  0  0  0  0  0  0  0  0  0  0  0
    3.1868   15.7095   -0.0275 N   0  0  0  0  0  0  0  0  0  0  0  0
   15.3765   26.1356   -4.1601 C   0  0  0  0  0  0  0  0  0  0  0  0
   16.2453   28.5787   -5.4374 C   0  0  0  0  0  0  0  0  0  0  0  0
   16.0406   27.3466   -6.2485 C   0  0  0  0  0  0  0  0  0  0  0  0
   16.2698   27.4093   -7.6154 C   0  0  0  0  0  0  0  0  0  0  0  0
   16.0834   26.2628   -8.3949 C   0  0  0  0  0  0  0  0  0  0  0  0
   15.6801   25.1399   -7.7325 C   0  0  0  0  0  0  0  0  0  0  0  0
   15.4661   25.1025   -6.4176 N   0  0  0  0  0  0  0  0  0  0  0  0
   15.6301   26.1786   -5.6192 C   0  0  0  0  0  0  0  0  0  0  0  0
 36 37  1  0  0  0
 37 38  2  0  0  0
 38 39  1  0  0  0
 39 40  2  0  0  0
 40 41  1  0  0  0
 41 42  2  0  0  0
 42 35  1  0  0  0
 35  1  1  0  0  0
  1  2  1  0  0  0
  2  3  1  0  0  0
  3  4  1  0  0  0
  4  5  1  0  0  0
  5  6  1  0  0  0
  4  7  1  0  0  0
  7  8  1  0  0  0
  8  9  2  0  0  0
  8 10  1  0  0  0
 10 11  1  0  0  0
 11 12  2  0  0  0
 10 21  1  0  0  0
 21 22  2  0  0  0
 22 23  1  0  0  0
 23 24  2  0  0  0
 24 25  1  0  0  0
 25 26  2  0  0  0
 24 27  1  0  0  0
 27 28  2  0  0  0
 28 29  1  0  0  0
 29 30  2  0  0  0
 30 31  1  0  0  0
 31 32  2  0  0  0
 30 33  1  0  0  0
 33 34  3  0  0  0
  7 13  1  0  0  0
 13 14  2  0  0  0
 14 15  1  0  0  0
 15 16  2  0  0  0
 15 17  1  0  0  0
 17 18  1  0  0  0
 18 19  2  0  0  0
 42 37  1  0  0  0
  6  1  1  0  0  0
 26 21  1  0  0  0
 32 27  1  0  0  0
 19 13  1  0  0  0
 11  4  1  0  0  0
 17 20  1  0  0  0
M  END
> <minimizedAffinity>
3.85863

> <CNNscore>
0.6060817838

> <CNNaffinity>
7.8086457253

> <CNN_VS>
4.7326779366

> <CNNaffinity_variance>
0.4845615327

$$$$
[H]c1nc(C([H])([H])N2C([H])([H])C([H])([H])C3(C(=O)N(c4c([H])c([H])c(-c5c([H])c([H])c(C#N)c([H])c5[H])c([H])c4[H])C(=O)N3c3nc([H])n([H])c(=O)c3[H])C([H])([H])C2([H])[H])c(C([H])([H])[H])c([H])c1[H]


 42 47  0  0  0  0  0  0  0  0999 V2000
   13.2971   26.0245   -4.2754 N   0  0  0  0  0  0  0  0  0  0  0  0
   12.2868   26.1048   -3.2055 C   0  0  0  0  0  0  0  0  0  0  0  0
   12.9359   25.9568   -1.8786 C   0  0  0  0  0  0  0  0  0  0  0  0
   13.3080   24.4858   -1.6801 C   0  0  0  0  0  0  0  0  0  0  0  0
   13.8111   23.9783   -3.0022 C   0  0  0  0  0  0  0  0  0  0  0  0
   14.3363   25.1199   -3.8391 C   0  0  0  0  0  0  0  0  0  0  0  0
   14.2056   24.3111   -0.5846 N   0  0  0  0  0  0  0  0  0  0  0  0
   13.3810   23.9858    0.5527 C   0  0  0  0  0  0  0  0  0  0  0  0
   13.8269   24.0082    1.7530 O   0  0  0  0  0  0  0  0  0  0  0  0
   12.0628   23.6532    0.1565 N   0  0  0  0  0  0  0  0  0  0  0  0
   12.0769   23.7780   -1.2538 C   0  0  0  0  0  0  0  0  0  0  0  0
   11.2097   23.3760   -2.0805 O   0  0  0  0  0  0  0  0  0  0  0  0
   15.6273   24.4216   -0.5396 C   0  0  0  0  0  0  0  0  0  0  0  0
   16.2903   24.1209    0.6227 C   0  0  0  0  0  0  0  0  0  0  0  0
   17.6728   24.2379    0.6808 C   0  0  0  0  0  0  0  0  0  0  0  0
   18.3029   23.9685    1.7359 O   0  0  0  0  0  0  0  0  0  0  0  0
   18.3548   24.6483   -0.4146 N   0  0  0  0  0  0  0  0  0  0  0  0
   17.6933   24.9393   -1.5475 C   0  0  0  0  0  0  0  0  0  0  0  0
   16.3368   24.8213   -1.5935 N   0  0  0  0  0  0  0  0  0  0  0  0
   19.3847   24.7359   -0.3811 H   0  0  0  0  0  0  0  0  0  0  0  0
   10.9902   23.2732    1.0004 C   0  0  0  0  0  0  0  0  0  0  0  0
   10.6264   21.9638    1.1897 C   0  0  0  0  0  0  0  0  0  0  0  0
    9.5563   21.6036    2.0181 C   0  0  0  0  0  0  0  0  0  0  0  0
    8.8393   22.5800    2.6675 C   0  0  0  0  0  0  0  0  0  0  0  0
    9.1866   23.8850    2.4906 C   0  0  0  0  0  0  0  0  0  0  0  0
   10.2590   24.2329    1.6599 C   0  0  0  0  0  0  0  0  0  0  0  0
    7.7046   22.2594    3.5378 C   0  0  0  0  0  0  0  0  0  0  0  0
    7.0803   21.0621    3.3213 C   0  0  0  0  0  0  0  0  0  0  0  0
    6.0023   20.6983    4.1096 C   0  0  0  0  0  0  0  0  0  0  0  0
    5.5520   21.5284    5.1090 C   0  0  0  0  0  0  0  0  0  0  0  0
    6.2091   22.7306    5.2989 C   0  0  0  0  0  0  0  0  0  0  0  0
    7.2878   23.1184    4.5260 C   0  0  0  0  0  0  0  0  0  0  0  0
    4.4398   21.1838    5.9392 C   0  0  0  0  0  0  0  0  0  0  0  0
    3.5305   20.8870    6.6211 N   0  0  0  0  0  0  0  0  0  0  0  0
   13.7631   27.3809   -4.4408 C   0  0  0  0  0  0  0  0  0  0  0  0
   15.4925   27.0877   -6.7383 C   0  0  0  0  0  0  0  0  0  0  0  0
   16.0747   27.3972   -5.4029 C   0  0  0  0  0  0  0  0  0  0  0  0
   17.4514   27.5314   -5.2969 C   0  0  0  0  0  0  0  0  0  0  0  0
   18.0179   27.8223   -4.0513 C   0  0  0  0  0  0  0  0  0  0  0  0
   17.1486   27.9560   -3.0079 C   0  0  0  0  0  0  0  0  0  0  0  0
   15.8285   27.8230   -3.1329 N   0  0  0  0  0  0  0  0  0  0  0  0
   15.2301   27.5424   -4.3101 C   0  0  0  0  0  0  0  0  0  0  0  0
 36 37  1  0  0  0
 37 38  2  0  0  0
 38 39  1  0  0  0
 39 40  2  0  0  0
 40 41  1  0  0  0
 41 42  2  0  0  0
 42 35  1  0  0  0
 35  1  1  0  0  0
  1  2  1  0  0  0
  2  3  1  0  0  0
  3  4  1  0  0  0
  4  5  1  0  0  0
  5  6  1  0  0  0
  4  7  1  0  0  0
  7  8  1  0  0  0
  8  9  2  0  0  0
  8 10  1  0  0  0
 10 11  1  0  0  0
 11 12  2  0  0  0
 10 21  1  0  0  0
 21 22  2  0  0  0
 22 23  1  0  0  0
 23 24  2  0  0  0
 24 25  1  0  0  0
 25 26  2  0  0  0
 24 27  1  0  0  0
 27 28  2  0  0  0
 28 29  1  0  0  0
 29 30  2  0  0  0
 30 31  1  0  0  0
 31 32  2  0  0  0
 30 33  1  0  0  0
 33 34  3  0  0  0
  7 13  1  0  0  0
 13 14  2  0  0  0
 14 15  1  0  0  0
 15 16  2  0  0  0
 15 17  1  0  0  0
 17 18  1  0  0  0
 18 19  2  0  0  0
 42 37  1  0  0  0
  6  1  1  0  0  0
 26 21  1  0  0  0
 32 27  1  0  0  0
 19 13  1  0  0  0
 11  4  1  0  0  0
 17 20  1  0  0  0
M  END
> <minimizedAffinity>
0.18235

> <CNNscore>
0.5666067600

> <CNNaffinity>
7.9691743851

> <CNN_VS>
4.5153880119

> <CNNaffinity_variance>
0.3521803021

$$$$
[H]c1nc(C([H])([H])N2C([H])([H])C([H])([H])C3(C(=O)N(c4c([H])c([H])c(-c5c([H])c([H])c(C#N)c([H])c5[H])c([H])c4[H])C(=O)N3c3nc([H])n([H])c(=O)c3[H])C([H])([H])C2([H])[H])c(C([H])([H])[H])c([H])c1[H]


 42 47  0  0  0  0  0  0  0  0999 V2000
   15.8317   24.3561    0.3895 N   0  0  0  0  0  0  0  0  0  0  0  0
   14.9661   23.1731    0.2385 C   0  0  0  0  0  0  0  0  0  0  0  0
   14.0105   23.3793   -0.8787 C   0  0  0  0  0  0  0  0  0  0  0  0
   12.9244   24.3533   -0.4167 C   0  0  0  0  0  0  0  0  0  0  0  0
   13.6044   25.4101    0.4073 C   0  0  0  0  0  0  0  0  0  0  0  0
   15.0602   25.5218    0.0229 C   0  0  0  0  0  0  0  0  0  0  0  0
   12.1542   24.8445   -1.5130 N   0  0  0  0  0  0  0  0  0  0  0  0
   10.9924   23.9939   -1.5911 C   0  0  0  0  0  0  0  0  0  0  0  0
   10.2128   23.9878   -2.6072 O   0  0  0  0  0  0  0  0  0  0  0  0
   10.8524   23.2027   -0.4250 N   0  0  0  0  0  0  0  0  0  0  0  0
   11.9519   23.5735    0.3862 C   0  0  0  0  0  0  0  0  0  0  0  0
   12.1417   23.3130    1.6082 O   0  0  0  0  0  0  0  0  0  0  0  0
   12.4109   25.9352   -2.3962 C   0  0  0  0  0  0  0  0  0  0  0  0
   13.0652   25.7050   -3.5793 C   0  0  0  0  0  0  0  0  0  0  0  0
   13.3316   26.7619   -4.4396 C   0  0  0  0  0  0  0  0  0  0  0  0
   13.9309   26.5756   -5.5300 O   0  0  0  0  0  0  0  0  0  0  0  0
   12.9407   28.0133   -4.1011 N   0  0  0  0  0  0  0  0  0  0  0  0
   12.2999   28.2254   -2.9392 C   0  0  0  0  0  0  0  0  0  0  0  0
   12.0438   27.1813   -2.1022 N   0  0  0  0  0  0  0  0  0  0  0  0
   13.1327   28.8060   -4.7369 H   0  0  0  0  0  0  0  0  0  0  0  0
    9.8267   22.2648   -0.1504 C   0  0  0  0  0  0  0  0  0  0  0  0
    8.7745   22.5432    0.6851 C   0  0  0  0  0  0  0  0  0  0  0  0
    7.7738   21.6020    0.9565 C   0  0  0  0  0  0  0  0  0  0  0  0
    7.8339   20.3576    0.3761 C   0  0  0  0  0  0  0  0  0  0  0  0
    8.8717   20.0642   -0.4557 C   0  0  0  0  0  0  0  0  0  0  0  0
    9.8665   21.0139   -0.7198 C   0  0  0  0  0  0  0  0  0  0  0  0
    6.8190   19.3321    0.6334 C   0  0  0  0  0  0  0  0  0  0  0  0
    6.8862   18.1945   -0.1225 C   0  0  0  0  0  0  0  0  0  0  0  0
    5.9579   17.1863    0.0715 C   0  0  0  0  0  0  0  0  0  0  0  0
    4.9680   17.3163    1.0169 C   0  0  0  0  0  0  0  0  0  0  0  0
    4.9324   18.4806    1.7629 C   0  0  0  0  0  0  0  0  0  0  0  0
    5.8468   19.5028    1.5894 C   0  0  0  0  0  0  0  0  0  0  0  0
    3.9923   16.2952    1.2405 C   0  0  0  0  0  0  0  0  0  0  0  0
    3.1860   15.4635    1.4359 N   0  0  0  0  0  0  0  0  0  0  0  0
   16.9424   24.1124   -0.5000 C   0  0  0  0  0  0  0  0  0  0  0  0
   17.2842   26.5083   -2.0805 C   0  0  0  0  0  0  0  0  0  0  0  0
   16.7386   25.2733   -2.7091 C   0  0  0  0  0  0  0  0  0  0  0  0
   16.3986   25.3105   -4.0536 C   0  0  0  0  0  0  0  0  0  0  0  0
   15.8847   24.1609   -4.6628 C   0  0  0  0  0  0  0  0  0  0  0  0
   15.7544   23.0609   -3.8658 C   0  0  0  0  0  0  0  0  0  0  0  0
   16.0878   23.0477   -2.5756 N   0  0  0  0  0  0  0  0  0  0  0  0
   16.5871   24.1280   -1.9383 C   0  0  0  0  0  0  0  0  0  0  0  0
 36 37  1  0  0  0
 37 38  2  0  0  0
 38 39  1  0  0  0
 39 40  2  0  0  0
 40 41  1  0  0  0
 41 42  2  0  0  0
 42 35  1  0  0  0
 35  1  1  0  0  0
  1  2  1  0  0  0
  2  3  1  0  0  0
  3  4  1  0  0  0
  4  5  1  0  0  0
  5  6  1  0  0  0
  4  7  1  0  0  0
  7  8  1  0  0  0
  8  9  2  0  0  0
  8 10  1  0  0  0
 10 11  1  0  0  0
 11 12  2  0  0  0
 10 21  1  0  0  0
 21 22  2  0  0  0
 22 23  1  0  0  0
 23 24  2  0  0  0
 24 25  1  0  0  0
 25 26  2  0  0  0
 24 27  1  0  0  0
 27 28  2  0  0  0
 28 29  1  0  0  0
 29 30  2  0  0  0
 30 31  1  0  0  0
 31 32  2  0  0  0
 30 33  1  0  0  0
 33 34  3  0  0  0
  7 13  1  0  0  0
 13 14  2  0  0  0
 14 15  1  0  0  0
 15 16  2  0  0  0
 15 17  1  0  0  0
 17 18  1  0  0  0
 18 19  2  0  0  0
 42 37  1  0  0  0
  6  1  1  0  0  0
 26 21  1  0  0  0
 32 27  1  0  0  0
 19 13  1  0  0  0
 11  4  1  0  0  0
 17 20  1  0  0  0
M  END
> <minimizedAffinity>
6.13384

> <CNNscore>
0.5362913609

> <CNNaffinity>
7.8194923401

> <CNN_VS>
4.1935262680

> <CNNaffinity_variance>
0.7304686308

$$$$
[H]c1nc(C([H])([H])N2C([H])([H])C([H])([H])C3(C(=O)N(c4c([H])c([H])c(-c5c([H])c([H])c(C#N)c([H])c5[H])c([H])c4[H])C(=O)N3c3nc([H])n([H])c(=O)c3[H])C([H])([H])C2([H])[H])c(C([H])([H])[H])c([H])c1[H]


 42 47  0  0  0  0  0  0  0  0999 V2000
   14.8669   24.5942   -3.9291 N   0  0  0  0  0  0  0  0  0  0  0  0
   13.4565   24.1769   -3.8372 C   0  0  0  0  0  0  0  0  0  0  0  0
   12.8886   24.5828   -2.5271 C   0  0  0  0  0  0  0  0  0  0  0  0
   13.4358   23.6458   -1.4480 C   0  0  0  0  0  0  0  0  0  0  0  0
   14.8807   23.3952   -1.7764 C   0  0  0  0  0  0  0  0  0  0  0  0
   15.4374   24.5294   -2.6028 C   0  0  0  0  0  0  0  0  0  0  0  0
   13.1933   24.1522   -0.1361 N   0  0  0  0  0  0  0  0  0  0  0  0
   11.9724   23.5268    0.3084 C   0  0  0  0  0  0  0  0  0  0  0  0
   11.3258   23.9358    1.3355 O   0  0  0  0  0  0  0  0  0  0  0  0
   11.6146   22.4409   -0.5271 N   0  0  0  0  0  0  0  0  0  0  0  0
   12.6360   22.3987   -1.5066 C   0  0  0  0  0  0  0  0  0  0  0  0
   12.8835   21.4772   -2.3353 O   0  0  0  0  0  0  0  0  0  0  0  0
   13.9461   25.0838    0.6391 C   0  0  0  0  0  0  0  0  0  0  0  0
   13.2971   26.1105    1.2760 C   0  0  0  0  0  0  0  0  0  0  0  0
   14.0222   27.0302    2.0221 C   0  0  0  0  0  0  0  0  0  0  0  0
   13.4493   27.9807    2.6146 O   0  0  0  0  0  0  0  0  0  0  0  0
   15.3671   26.9033    2.1143 N   0  0  0  0  0  0  0  0  0  0  0  0
   15.9908   25.8925    1.4859 C   0  0  0  0  0  0  0  0  0  0  0  0
   15.2699   24.9958    0.7563 N   0  0  0  0  0  0  0  0  0  0  0  0
   15.9148   27.5822    2.6698 H   0  0  0  0  0  0  0  0  0  0  0  0
   10.4873   21.5942   -0.3872 C   0  0  0  0  0  0  0  0  0  0  0  0
    9.2090   22.0784   -0.2685 C   0  0  0  0  0  0  0  0  0  0  0  0
    8.1053   21.2296   -0.1192 C   0  0  0  0  0  0  0  0  0  0  0  0
    8.2924   19.8683   -0.0883 C   0  0  0  0  0  0  0  0  0  0  0  0
    9.5547   19.3705   -0.2043 C   0  0  0  0  0  0  0  0  0  0  0  0
   10.6508   20.2294   -0.3537 C   0  0  0  0  0  0  0  0  0  0  0  0
    7.1740   18.9354    0.0758 C   0  0  0  0  0  0  0  0  0  0  0  0
    7.3034   17.7079   -0.5129 C   0  0  0  0  0  0  0  0  0  0  0  0
    6.2833   16.7797   -0.3947 C   0  0  0  0  0  0  0  0  0  0  0  0
    5.1405   17.0789    0.3087 C   0  0  0  0  0  0  0  0  0  0  0  0
    5.0459   18.3299    0.8910 C   0  0  0  0  0  0  0  0  0  0  0  0
    6.0494   19.2754    0.7884 C   0  0  0  0  0  0  0  0  0  0  0  0
    4.0673   16.1440    0.4475 C   0  0  0  0  0  0  0  0  0  0  0  0
    3.1938   15.3683    0.5709 N   0  0  0  0  0  0  0  0  0  0  0  0
   14.8172   25.9372   -4.4565 C   0  0  0  0  0  0  0  0  0  0  0  0
   15.8452   27.8092   -6.4044 C   0  0  0  0  0  0  0  0  0  0  0  0
   16.5287   27.6513   -5.0906 C   0  0  0  0  0  0  0  0  0  0  0  0
   17.6600   28.4137   -4.8381 C   0  0  0  0  0  0  0  0  0  0  0  0
   18.3164   28.2802   -3.6100 C   0  0  0  0  0  0  0  0  0  0  0  0
   17.7781   27.3863   -2.7305 C   0  0  0  0  0  0  0  0  0  0  0  0
   16.6896   26.6642   -2.9944 N   0  0  0  0  0  0  0  0  0  0  0  0
   16.0184   26.7532   -4.1624 C   0  0  0  0  0  0  0  0  0  0  0  0
 36 37  1  0  0  0
 37 38  2  0  0  0
 38 39  1  0  0  0
 39 40  2  0  0  0
 40 41  1  0  0  0
 41 42  2  0  0  0
 42 35  1  0  0  0
 35  1  1  0  0  0
  1  2  1  0  0  0
  2  3  1  0  0  0
  3  4  1  0  0  0
  4  5  1  0  0  0
  5  6  1  0  0  0
  4  7  1  0  0  0
  7  8  1  0  0  0
  8  9  2  0  0  0
  8 10  1  0  0  0
 10 11  1  0  0  0
 11 12  2  0  0  0
 10 21  1  0  0  0
 21 22  2  0  0  0
 22 23  1  0  0  0
 23 24  2  0  0  0
 24 25  1  0  0  0
 25 26  2  0  0  0
 24 27  1  0  0  0
 27 28  2  0  0  0
 28 29  1  0  0  0
 29 30  2  0  0  0
 30 31  1  0  0  0
 31 32  2  0  0  0
 30 33  1  0  0  0
 33 34  3  0  0  0
  7 13  1  0  0  0
 13 14  2  0  0  0
 14 15  1  0  0  0
 15 16  2  0  0  0
 15 17  1  0  0  0
 17 18  1  0  0  0
 18 19  2  0  0  0
 42 37  1  0  0  0
  6  1  1  0  0  0
 26 21  1  0  0  0
 32 27  1  0  0  0
 19 13  1  0  0  0
 11  4  1  0  0  0
 17 20  1  0  0  0
M  END
> <minimizedAffinity>
4.53618

> <CNNscore>
0.5146359205

> <CNNaffinity>
7.6761794090

> <CNN_VS>
3.9504375458

> <CNNaffinity_variance>
0.6277373433

$$$$
[H]c1nc(C([H])([H])N2C([H])([H])C([H])([H])C3(C(=O)N(c4c([H])c([H])c(-c5c([H])c([H])c(C#N)c([H])c5[H])c([H])c4[H])C(=O)N3c3nc([H])n([H])c(=O)c3[H])C([H])([H])C2([H])[H])c(C([H])([H])[H])c([H])c1[H]


 42 47  0  0  0  0  0  0  0  0999 V2000
   15.8802   24.4490    0.4464 N   0  0  0  0  0  0  0  0  0  0  0  0
   14.9776   23.3008    0.6432 C   0  0  0  0  0  0  0  0  0  0  0  0
   13.9044   23.3138   -0.3825 C   0  0  0  0  0  0  0  0  0  0  0  0
   12.9000   24.4106   -0.0223 C   0  0  0  0  0  0  0  0  0  0  0  0
   13.6931   25.5835    0.4816 C   0  0  0  0  0  0  0  0  0  0  0  0
   15.0970   25.5470   -0.0727 C   0  0  0  0  0  0  0  0  0  0  0  0
   12.0196   24.6981   -1.1079 N   0  0  0  0  0  0  0  0  0  0  0  0
   10.8384   23.9033   -0.8785 C   0  0  0  0  0  0  0  0  0  0  0  0
    9.9472   23.7218   -1.7801 O   0  0  0  0  0  0  0  0  0  0  0  0
   10.8165   23.3784    0.4365 N   0  0  0  0  0  0  0  0  0  0  0  0
   12.0098   23.8592    1.0275 C   0  0  0  0  0  0  0  0  0  0  0  0
   12.3334   23.8496    2.2492 O   0  0  0  0  0  0  0  0  0  0  0  0
   12.1965   25.5690   -2.2239 C   0  0  0  0  0  0  0  0  0  0  0  0
   13.4411   26.0800   -2.4896 C   0  0  0  0  0  0  0  0  0  0  0  0
   13.6211   26.9391   -3.5656 C   0  0  0  0  0  0  0  0  0  0  0  0
   14.7531   27.4209   -3.8288 O   0  0  0  0  0  0  0  0  0  0  0  0
   12.5626   27.2642   -4.3449 N   0  0  0  0  0  0  0  0  0  0  0  0
   11.3484   26.7562   -4.0742 C   0  0  0  0  0  0  0  0  0  0  0  0
   11.1828   25.9145   -3.0158 N   0  0  0  0  0  0  0  0  0  0  0  0
   12.6880   27.9013   -5.1498 H   0  0  0  0  0  0  0  0  0  0  0  0
    9.8092   22.5654    1.0122 C   0  0  0  0  0  0  0  0  0  0  0  0
    8.7472   22.0817    0.2906 C   0  0  0  0  0  0  0  0  0  0  0  0
    7.7525   21.2885    0.8758 C   0  0  0  0  0  0  0  0  0  0  0  0
    7.8286   20.9770    2.2123 C   0  0  0  0  0  0  0  0  0  0  0  0
    8.8759   21.4491    2.9438 C   0  0  0  0  0  0  0  0  0  0  0  0
    9.8649   22.2412    2.3473 C   0  0  0  0  0  0  0  0  0  0  0  0
    6.8101   20.1593    2.8771 C   0  0  0  0  0  0  0  0  0  0  0  0
    7.0251   19.8562    4.1931 C   0  0  0  0  0  0  0  0  0  0  0  0
    6.1007   19.0882    4.8799 C   0  0  0  0  0  0  0  0  0  0  0  0
    4.9676   18.6265    4.2526 C   0  0  0  0  0  0  0  0  0  0  0  0
    4.7839   18.9541    2.9214 C   0  0  0  0  0  0  0  0  0  0  0  0
    5.6911   19.7191    2.2121 C   0  0  0  0  0  0  0  0  0  0  0  0
    3.9945   17.8289    4.9323 C   0  0  0  0  0  0  0  0  0  0  0  0
    3.1854   17.1844    5.4889 N   0  0  0  0  0  0  0  0  0  0  0  0
   16.8756   23.9759   -0.4862 C   0  0  0  0  0  0  0  0  0  0  0  0
   17.4444   26.1602   -2.2918 C   0  0  0  0  0  0  0  0  0  0  0  0
   16.6787   24.9769   -2.7728 C   0  0  0  0  0  0  0  0  0  0  0  0
   16.2482   24.9594   -4.0915 C   0  0  0  0  0  0  0  0  0  0  0  0
   15.5276   23.8569   -4.5628 C   0  0  0  0  0  0  0  0  0  0  0  0
   15.2981   22.8555   -3.6645 C   0  0  0  0  0  0  0  0  0  0  0  0
   15.7217   22.8934   -2.4015 N   0  0  0  0  0  0  0  0  0  0  0  0
   16.4198   23.9321   -1.8952 C   0  0  0  0  0  0  0  0  0  0  0  0
 36 37  1  0  0  0
 37 38  2  0  0  0
 38 39  1  0  0  0
 39 40  2  0  0  0
 40 41  1  0  0  0
 41 42  2  0  0  0
 42 35  1  0  0  0
 35  1  1  0  0  0
  1  2  1  0  0  0
  2  3  1  0  0  0
  3  4  1  0  0  0
  4  5  1  0  0  0
  5  6  1  0  0  0
  4  7  1  0  0  0
  7  8  1  0  0  0
  8  9  2  0  0  0
  8 10  1  0  0  0
 10 11  1  0  0  0
 11 12  2  0  0  0
 10 21  1  0  0  0
 21 22  2  0  0  0
 22 23  1  0  0  0
 23 24  2  0  0  0
 24 25  1  0  0  0
 25 26  2  0  0  0
 24 27  1  0  0  0
 27 28  2  0  0  0
 28 29  1  0  0  0
 29 30  2  0  0  0
 30 31  1  0  0  0
 31 32  2  0  0  0
 30 33  1  0  0  0
 33 34  3  0  0  0
  7 13  1  0  0  0
 13 14  2  0  0  0
 14 15  1  0  0  0
 15 16  2  0  0  0
 15 17  1  0  0  0
 17 18  1  0  0  0
 18 19  2  0  0  0
 42 37  1  0  0  0
  6  1  1  0  0  0
 26 21  1  0  0  0
 32 27  1  0  0  0
 19 13  1  0  0  0
 11  4  1  0  0  0
 17 20  1  0  0  0
M  END
> <minimizedAffinity>
5.28006

> <CNNscore>
0.5050035715

> <CNNaffinity>
7.7333297729

> <CNN_VS>
3.9053592682

> <CNNaffinity_variance>
0.8217537999

$$$$
[H]c1nc(C([H])([H])N2C([H])([H])C([H])([H])C3(C(=O)N(c4c([H])c([H])c(-c5c([H])c([H])c(C#N)c([H])c5[H])c([H])c4[H])C(=O)N3c3nc([H])n([H])c(=O)c3[H])C([H])([H])C2([H])[H])c(C([H])([H])[H])c([H])c1[H]


 42 47  0  0  0  0  0  0  0  0999 V2000
   16.0629   24.7601   -2.8747 N   0  0  0  0  0  0  0  0  0  0  0  0
   14.7219   24.2883   -3.2630 C   0  0  0  0  0  0  0  0  0  0  0  0
   13.7007   24.8303   -2.3317 C   0  0  0  0  0  0  0  0  0  0  0  0
   13.7957   24.0682   -1.0081 C   0  0  0  0  0  0  0  0  0  0  0  0
   15.2566   23.8498   -0.7315 C   0  0  0  0  0  0  0  0  0  0  0  0
   16.0879   24.8948   -1.4360 C   0  0  0  0  0  0  0  0  0  0  0  0
   13.0753   24.7262    0.0332 N   0  0  0  0  0  0  0  0  0  0  0  0
   11.7754   24.1030    0.0679 C   0  0  0  0  0  0  0  0  0  0  0  0
   10.7888   24.6078    0.7099 O   0  0  0  0  0  0  0  0  0  0  0  0
   11.7582   22.9023   -0.6825 N   0  0  0  0  0  0  0  0  0  0  0  0
   13.0745   22.7856   -1.1905 C   0  0  0  0  0  0  0  0  0  0  0  0
   13.6154   21.7788   -1.7300 O   0  0  0  0  0  0  0  0  0  0  0  0
   13.4804   25.7861    0.8981 C   0  0  0  0  0  0  0  0  0  0  0  0
   14.8094   25.9387    1.2005 C   0  0  0  0  0  0  0  0  0  0  0  0
   15.2125   26.9591    2.0518 C   0  0  0  0  0  0  0  0  0  0  0  0
   16.4257   27.1186    2.3444 O   0  0  0  0  0  0  0  0  0  0  0  0
   14.2864   27.7964    2.5760 N   0  0  0  0  0  0  0  0  0  0  0  0
   12.9875   27.6364    2.2712 C   0  0  0  0  0  0  0  0  0  0  0  0
   12.6028   26.6319    1.4352 N   0  0  0  0  0  0  0  0  0  0  0  0
   14.5779   28.5605    3.2089 H   0  0  0  0  0  0  0  0  0  0  0  0
   10.6598   22.0255   -0.8612 C   0  0  0  0  0  0  0  0  0  0  0  0
   10.1903   21.6715   -2.1008 C   0  0  0  0  0  0  0  0  0  0  0  0
    9.0960   20.8126   -2.2621 C   0  0  0  0  0  0  0  0  0  0  0  0
    8.4628   20.3012   -1.1545 C   0  0  0  0  0  0  0  0  0  0  0  0
    8.9155   20.6425    0.0838 C   0  0  0  0  0  0  0  0  0  0  0  0
   10.0111   21.5021    0.2324 C   0  0  0  0  0  0  0  0  0  0  0  0
    7.3074   19.4064   -1.2660 C   0  0  0  0  0  0  0  0  0  0  0  0
    7.4391   18.1587   -0.7221 C   0  0  0  0  0  0  0  0  0  0  0  0
    6.3843   17.2651   -0.7923 C   0  0  0  0  0  0  0  0  0  0  0  0
    5.2046   17.6189   -1.4036 C   0  0  0  0  0  0  0  0  0  0  0  0
    5.1082   18.8896   -1.9413 C   0  0  0  0  0  0  0  0  0  0  0  0
    6.1460   19.8012   -1.8851 C   0  0  0  0  0  0  0  0  0  0  0  0
    4.0970   16.7190   -1.4955 C   0  0  0  0  0  0  0  0  0  0  0  0
    3.1856   15.9803   -1.5566 N   0  0  0  0  0  0  0  0  0  0  0  0
   16.2203   26.0200   -3.5618 C   0  0  0  0  0  0  0  0  0  0  0  0
   16.0669   28.4326   -5.1465 C   0  0  0  0  0  0  0  0  0  0  0  0
   15.8958   27.1033   -5.7958 C   0  0  0  0  0  0  0  0  0  0  0  0
   15.6575   27.0605   -7.1618 C   0  0  0  0  0  0  0  0  0  0  0  0
   15.4941   25.8217   -7.7907 C   0  0  0  0  0  0  0  0  0  0  0  0
   15.5850   24.7203   -6.9901 C   0  0  0  0  0  0  0  0  0  0  0  0
   15.8150   24.7850   -5.6790 N   0  0  0  0  0  0  0  0  0  0  0  0
   15.9795   25.9530   -5.0222 C   0  0  0  0  0  0  0  0  0  0  0  0
 36 37  1  0  0  0
 37 38  2  0  0  0
 38 39  1  0  0  0
 39 40  2  0  0  0
 40 41  1  0  0  0
 41 42  2  0  0  0
 42 35  1  0  0  0
 35  1  1  0  0  0
  1  2  1  0  0  0
  2  3  1  0  0  0
  3  4  1  0  0  0
  4  5  1  0  0  0
  5  6  1  0  0  0
  4  7  1  0  0  0
  7  8  1  0  0  0
  8  9  2  0  0  0
  8 10  1  0  0  0
 10 11  1  0  0  0
 11 12  2  0  0  0
 10 21  1  0  0  0
 21 22  2  0  0  0
 22 23  1  0  0  0
 23 24  2  0  0  0
 24 25  1  0  0  0
 25 26  2  0  0  0
 24 27  1  0  0  0
 27 28  2  0  0  0
 28 29  1  0  0  0
 29 30  2  0  0  0
 30 31  1  0  0  0
 31 32  2  0  0  0
 30 33  1  0  0  0
 33 34  3  0  0  0
  7 13  1  0  0  0
 13 14  2  0  0  0
 14 15  1  0  0  0
 15 16  2  0  0  0
 15 17  1  0  0  0
 17 18  1  0  0  0
 18 19  2  0  0  0
 42 37  1  0  0  0
  6  1  1  0  0  0
 26 21  1  0  0  0
 32 27  1  0  0  0
 19 13  1  0  0  0
 11  4  1  0  0  0
 17 20  1  0  0  0
M  END
> <minimizedAffinity>
3.74382

> <CNNscore>
0.4799086452

> <CNNaffinity>
7.6958627701

> <CNN_VS>
3.6933109760

> <CNNaffinity_variance>
0.5192373395

$$$$
[H]c1nc(C([H])([H])N2C([H])([H])C([H])([H])C3(C(=O)N(c4c([H])c([H])c(-c5c([H])c([H])c(C#N)c([H])c5[H])c([H])c4[H])C(=O)N3c3nc([H])n([H])c(=O)c3[H])C([H])([H])C2([H])[H])c(C([H])([H])[H])c([H])c1[H]


 42 47  0  0  0  0  0  0  0  0999 V2000
   15.1583   23.4184   -6.0886 N   0  0  0  0  0  0  0  0  0  0  0  0
   14.0647   23.1944   -5.1266 C   0  0  0  0  0  0  0  0  0  0  0  0
   14.1527   24.1760   -4.0164 C   0  0  0  0  0  0  0  0  0  0  0  0
   15.3043   23.7673   -3.0954 C   0  0  0  0  0  0  0  0  0  0  0  0
   16.4221   23.2868   -3.9774 C   0  0  0  0  0  0  0  0  0  0  0  0
   16.3067   23.8972   -5.3534 C   0  0  0  0  0  0  0  0  0  0  0  0
   15.6552   24.8145   -2.1916 N   0  0  0  0  0  0  0  0  0  0  0  0
   14.9308   24.5440   -0.9745 C   0  0  0  0  0  0  0  0  0  0  0  0
   14.8125   25.4105   -0.0389 O   0  0  0  0  0  0  0  0  0  0  0  0
   14.3950   23.2333   -0.9729 N   0  0  0  0  0  0  0  0  0  0  0  0
   14.7971   22.6869   -2.2156 C   0  0  0  0  0  0  0  0  0  0  0  0
   14.7556   21.4794   -2.5862 O   0  0  0  0  0  0  0  0  0  0  0  0
   16.5252   25.9301   -2.3767 C   0  0  0  0  0  0  0  0  0  0  0  0
   16.0171   27.1078   -2.8619 C   0  0  0  0  0  0  0  0  0  0  0  0
   16.8580   28.1954   -3.0581 C   0  0  0  0  0  0  0  0  0  0  0  0
   16.4153   29.2859   -3.5028 O   0  0  0  0  0  0  0  0  0  0  0  0
   18.1754   28.0820   -2.7666 N   0  0  0  0  0  0  0  0  0  0  0  0
   18.6605   26.9226   -2.2911 C   0  0  0  0  0  0  0  0  0  0  0  0
   17.8268   25.8617   -2.1027 N   0  0  0  0  0  0  0  0  0  0  0  0
   18.8084   28.8876   -2.9072 H   0  0  0  0  0  0  0  0  0  0  0  0
   13.6384   22.6239    0.0582 C   0  0  0  0  0  0  0  0  0  0  0  0
   12.5888   23.2549    0.6770 C   0  0  0  0  0  0  0  0  0  0  0  0
   11.8570   22.6444    1.7030 C   0  0  0  0  0  0  0  0  0  0  0  0
   12.1885   21.3753    2.1138 C   0  0  0  0  0  0  0  0  0  0  0  0
   13.2279   20.7344    1.5106 C   0  0  0  0  0  0  0  0  0  0  0  0
   13.9522   21.3551    0.4852 C   0  0  0  0  0  0  0  0  0  0  0  0
   11.4626   20.6940    3.1893 C   0  0  0  0  0  0  0  0  0  0  0  0
   10.3149   21.2906    3.6329 C   0  0  0  0  0  0  0  0  0  0  0  0
    9.5813   20.6979    4.6461 C   0  0  0  0  0  0  0  0  0  0  0  0
    9.9945   19.5148    5.2117 C   0  0  0  0  0  0  0  0  0  0  0  0
   11.1597   18.9406    4.7364 C   0  0  0  0  0  0  0  0  0  0  0  0
   11.9112   19.5113    3.7261 C   0  0  0  0  0  0  0  0  0  0  0  0
    9.2615   18.8779    6.2615 C   0  0  0  0  0  0  0  0  0  0  0  0
    8.6718   18.3495    7.1293 N   0  0  0  0  0  0  0  0  0  0  0  0
   14.6356   24.3937   -7.0158 C   0  0  0  0  0  0  0  0  0  0  0  0
   13.7724   26.5029   -5.2377 C   0  0  0  0  0  0  0  0  0  0  0  0
   14.9310   26.7234   -6.1472 C   0  0  0  0  0  0  0  0  0  0  0  0
   15.5681   27.9555   -6.1193 C   0  0  0  0  0  0  0  0  0  0  0  0
   16.6586   28.1826   -6.9657 C   0  0  0  0  0  0  0  0  0  0  0  0
   17.0220   27.1459   -7.7753 C   0  0  0  0  0  0  0  0  0  0  0  0
   16.3951   25.9699   -7.7852 N   0  0  0  0  0  0  0  0  0  0  0  0
   15.3383   25.6979   -6.9904 C   0  0  0  0  0  0  0  0  0  0  0  0
 36 37  1  0  0  0
 37 38  2  0  0  0
 38 39  1  0  0  0
 39 40  2  0  0  0
 40 41  1  0  0  0
 41 42  2  0  0  0
 42 35  1  0  0  0
 35  1  1  0  0  0
  1  2  1  0  0  0
  2  3  1  0  0  0
  3  4  1  0  0  0
  4  5  1  0  0  0
  5  6  1  0  0  0
  4  7  1  0  0  0
  7  8  1  0  0  0
  8  9  2  0  0  0
  8 10  1  0  0  0
 10 11  1  0  0  0
 11 12  2  0  0  0
 10 21  1  0  0  0
 21 22  2  0  0  0
 22 23  1  0  0  0
 23 24  2  0  0  0
 24 25  1  0  0  0
 25 26  2  0  0  0
 24 27  1  0  0  0
 27 28  2  0  0  0
 28 29  1  0  0  0
 29 30  2  0  0  0
 30 31  1  0  0  0
 31 32  2  0  0  0
 30 33  1  0  0  0
 33 34  3  0  0  0
  7 13  1  0  0  0
 13 14  2  0  0  0
 14 15  1  0  0  0
 15 16  2  0  0  0
 15 17  1  0  0  0
 17 18  1  0  0  0
 18 19  2  0  0  0
 42 37  1  0  0  0
  6  1  1  0  0  0
 26 21  1  0  0  0
 32 27  1  0  0  0
 19 13  1  0  0  0
 11  4  1  0  0  0
 17 20  1  0  0  0
M  END
> <minimizedAffinity>
14.26592

> <CNNscore>
0.4700584412

> <CNNaffinity>
7.7490930557

> <CNN_VS>
3.6425266266

> <CNNaffinity_variance>
0.6523154378

$$$$
[H]c1nc(C([H])([H])N2C([H])([H])C([H])([H])C3(C(=O)N(c4c([H])c([H])c(-c5c([H])c([H])c(C#N)c([H])c5[H])c([H])c4[H])C(=O)N3c3nc([H])n([H])c(=O)c3[H])C([H])([H])C2([H])[H])c(C([H])([H])[H])c([H])c1[H]


 42 47  0  0  0  0  0  0  0  0999 V2000
   15.4490   23.9102   -4.5431 N   0  0  0  0  0  0  0  0  0  0  0  0
   14.0187   23.5938   -4.3824 C   0  0  0  0  0  0  0  0  0  0  0  0
   13.5516   24.0121   -3.0368 C   0  0  0  0  0  0  0  0  0  0  0  0
   14.0850   23.0160   -2.0049 C   0  0  0  0  0  0  0  0  0  0  0  0
   15.4884   22.6688   -2.4149 C   0  0  0  0  0  0  0  0  0  0  0  0
   16.0822   23.7770   -3.2508 C   0  0  0  0  0  0  0  0  0  0  0  0
   13.9494   23.5111   -0.6734 N   0  0  0  0  0  0  0  0  0  0  0  0
   12.7111   22.9662   -0.1743 C   0  0  0  0  0  0  0  0  0  0  0  0
   12.1511   23.3992    0.8930 O   0  0  0  0  0  0  0  0  0  0  0  0
   12.2315   21.9265   -1.0075 N   0  0  0  0  0  0  0  0  0  0  0  0
   13.1942   21.8312   -2.0412 C   0  0  0  0  0  0  0  0  0  0  0  0
   13.3299   20.9117   -2.8976 O   0  0  0  0  0  0  0  0  0  0  0  0
   14.8079   24.3698    0.0757 C   0  0  0  0  0  0  0  0  0  0  0  0
   16.1011   23.9840    0.3198 C   0  0  0  0  0  0  0  0  0  0  0  0
   16.9408   24.8066    1.0591 C   0  0  0  0  0  0  0  0  0  0  0  0
   18.1306   24.4739    1.2966 O   0  0  0  0  0  0  0  0  0  0  0  0
   16.4730   25.9857    1.5326 N   0  0  0  0  0  0  0  0  0  0  0  0
   15.2040   26.3524    1.2859 C   0  0  0  0  0  0  0  0  0  0  0  0
   14.3885   25.5377    0.5597 N   0  0  0  0  0  0  0  0  0  0  0  0
   17.0920   26.6057    2.0820 H   0  0  0  0  0  0  0  0  0  0  0  0
   11.0544   21.1605   -0.8213 C   0  0  0  0  0  0  0  0  0  0  0  0
    9.7969   21.6959   -0.9418 C   0  0  0  0  0  0  0  0  0  0  0  0
    8.6421   20.9291   -0.7435 C   0  0  0  0  0  0  0  0  0  0  0  0
    8.7557   19.5988   -0.4173 C   0  0  0  0  0  0  0  0  0  0  0  0
    9.9964   19.0510   -0.2932 C   0  0  0  0  0  0  0  0  0  0  0  0
   11.1441   19.8279   -0.4944 C   0  0  0  0  0  0  0  0  0  0  0  0
    7.5806   18.7532   -0.1891 C   0  0  0  0  0  0  0  0  0  0  0  0
    6.5144   19.3356    0.4385 C   0  0  0  0  0  0  0  0  0  0  0  0
    5.3727   18.5921    0.6831 C   0  0  0  0  0  0  0  0  0  0  0  0
    5.2992   17.2732    0.3016 C   0  0  0  0  0  0  0  0  0  0  0  0
    6.3970   16.7189   -0.3315 C   0  0  0  0  0  0  0  0  0  0  0  0
    7.5492   17.4386   -0.5878 C   0  0  0  0  0  0  0  0  0  0  0  0
    4.1361   16.4766    0.5417 C   0  0  0  0  0  0  0  0  0  0  0  0
    3.1884   15.8138    0.7478 N   0  0  0  0  0  0  0  0  0  0  0  0
   15.4699   25.2640   -5.0443 C   0  0  0  0  0  0  0  0  0  0  0  0
   16.0368   27.9473   -5.9571 C   0  0  0  0  0  0  0  0  0  0  0  0
   16.4645   27.5178   -4.5968 C   0  0  0  0  0  0  0  0  0  0  0  0
   17.1387   28.4293   -3.7972 C   0  0  0  0  0  0  0  0  0  0  0  0
   17.5487   28.0453   -2.5160 C   0  0  0  0  0  0  0  0  0  0  0  0
   17.2449   26.7689   -2.1409 C   0  0  0  0  0  0  0  0  0  0  0  0
   16.5956   25.9098   -2.9260 N   0  0  0  0  0  0  0  0  0  0  0  0
   16.1783   26.2277   -4.1699 C   0  0  0  0  0  0  0  0  0  0  0  0
 36 37  1  0  0  0
 37 38  2  0  0  0
 38 39  1  0  0  0
 39 40  2  0  0  0
 40 41  1  0  0  0
 41 42  2  0  0  0
 42 35  1  0  0  0
 35  1  1  0  0  0
  1  2  1  0  0  0
  2  3  1  0  0  0
  3  4  1  0  0  0
  4  5  1  0  0  0
  5  6  1  0  0  0
  4  7  1  0  0  0
  7  8  1  0  0  0
  8  9  2  0  0  0
  8 10  1  0  0  0
 10 11  1  0  0  0
 11 12  2  0  0  0
 10 21  1  0  0  0
 21 22  2  0  0  0
 22 23  1  0  0  0
 23 24  2  0  0  0
 24 25  1  0  0  0
 25 26  2  0  0  0
 24 27  1  0  0  0
 27 28  2  0  0  0
 28 29  1  0  0  0
 29 30  2  0  0  0
 30 31  1  0  0  0
 31 32  2  0  0  0
 30 33  1  0  0  0
 33 34  3  0  0  0
  7 13  1  0  0  0
 13 14  2  0  0  0
 14 15  1  0  0  0
 15 16  2  0  0  0
 15 17  1  0  0  0
 17 18  1  0  0  0
 18 19  2  0  0  0
 42 37  1  0  0  0
  6  1  1  0  0  0
 26 21  1  0  0  0
 32 27  1  0  0  0
 19 13  1  0  0  0
 11  4  1  0  0  0
 17 20  1  0  0  0
M  END
> <minimizedAffinity>
4.30048

> <CNNscore>
0.4425781369

> <CNNaffinity>
7.7040772438

> <CNN_VS>
3.4096560478

> <CNNaffinity_variance>
0.4966333508

$$$$
[H]c1nc(C([H])([H])N2C([H])([H])C([H])([H])C3(C(=O)N(c4c([H])c([H])c(-c5c([H])c([H])c(C#N)c([H])c5[H])c([H])c4[H])C(=O)N3c3nc([H])n([H])c(=O)c3[H])C([H])([H])C2([H])[H])c(C([H])([H])[H])c([H])c1[H]


 42 47  0  0  0  0  0  0  0  0999 V2000
   15.5206   22.5771   -4.6056 N   0  0  0  0  0  0  0  0  0  0  0  0
   14.2168   22.3943   -3.9435 C   0  0  0  0  0  0  0  0  0  0  0  0
   13.9378   23.5395   -3.0410 C   0  0  0  0  0  0  0  0  0  0  0  0
   14.8087   23.3974   -1.7908 C   0  0  0  0  0  0  0  0  0  0  0  0
   16.1526   22.9026   -2.2463 C   0  0  0  0  0  0  0  0  0  0  0  0
   16.3907   23.2782   -3.6891 C   0  0  0  0  0  0  0  0  0  0  0  0
   14.8356   24.6018   -1.0259 N   0  0  0  0  0  0  0  0  0  0  0  0
   13.8175   24.4503   -0.0161 C   0  0  0  0  0  0  0  0  0  0  0  0
   13.3956   25.4343    0.6867 O   0  0  0  0  0  0  0  0  0  0  0  0
   13.3761   23.1079    0.0748 N   0  0  0  0  0  0  0  0  0  0  0  0
   14.1376   22.4199   -0.9004 C   0  0  0  0  0  0  0  0  0  0  0  0
   14.2681   21.1717   -1.0496 O   0  0  0  0  0  0  0  0  0  0  0  0
   15.6593   25.7580   -1.1679 C   0  0  0  0  0  0  0  0  0  0  0  0
   16.3081   25.9818   -2.3553 C   0  0  0  0  0  0  0  0  0  0  0  0
   17.1226   27.0972   -2.4991 C   0  0  0  0  0  0  0  0  0  0  0  0
   17.7285   27.3233   -3.5783 O   0  0  0  0  0  0  0  0  0  0  0  0
   17.2678   27.9562   -1.4625 N   0  0  0  0  0  0  0  0  0  0  0  0
   16.6261   27.7258   -0.3046 C   0  0  0  0  0  0  0  0  0  0  0  0
   15.8297   26.6282   -0.1740 N   0  0  0  0  0  0  0  0  0  0  0  0
   17.8704   28.7907   -1.5616 H   0  0  0  0  0  0  0  0  0  0  0  0
   12.3976   22.5913    0.9597 C   0  0  0  0  0  0  0  0  0  0  0  0
   11.1019   23.0422    0.9740 C   0  0  0  0  0  0  0  0  0  0  0  0
   10.1481   22.5302    1.8624 C   0  0  0  0  0  0  0  0  0  0  0  0
   10.5059   21.5463    2.7529 C   0  0  0  0  0  0  0  0  0  0  0  0
   11.7882   21.0872    2.7526 C   0  0  0  0  0  0  0  0  0  0  0  0
   12.7331   21.6068    1.8591 C   0  0  0  0  0  0  0  0  0  0  0  0
    9.5506   20.9825    3.7107 C   0  0  0  0  0  0  0  0  0  0  0  0
   10.0207   20.0127    4.5524 C   0  0  0  0  0  0  0  0  0  0  0  0
    9.1699   19.4398    5.4817 C   0  0  0  0  0  0  0  0  0  0  0  0
    7.8559   19.8355    5.5678 C   0  0  0  0  0  0  0  0  0  0  0  0
    7.4167   20.8196    4.7006 C   0  0  0  0  0  0  0  0  0  0  0  0
    8.2451   21.4081    3.7632 C   0  0  0  0  0  0  0  0  0  0  0  0
    6.9503   19.2622    6.5144 C   0  0  0  0  0  0  0  0  0  0  0  0
    6.2172   18.7834    7.2975 N   0  0  0  0  0  0  0  0  0  0  0  0
   15.2229   23.3392   -5.7952 C   0  0  0  0  0  0  0  0  0  0  0  0
   16.2058   25.3346   -7.6411 C   0  0  0  0  0  0  0  0  0  0  0  0
   15.4533   25.7514   -6.4254 C   0  0  0  0  0  0  0  0  0  0  0  0
   15.2483   27.1060   -6.2069 C   0  0  0  0  0  0  0  0  0  0  0  0
   14.5437   27.5182   -5.0709 C   0  0  0  0  0  0  0  0  0  0  0  0
   14.0994   26.5288   -4.2428 C   0  0  0  0  0  0  0  0  0  0  0  0
   14.3078   25.2327   -4.4727 N   0  0  0  0  0  0  0  0  0  0  0  0
   14.9811   24.7806   -5.5519 C   0  0  0  0  0  0  0  0  0  0  0  0
 36 37  1  0  0  0
 37 38  2  0  0  0
 38 39  1  0  0  0
 39 40  2  0  0  0
 40 41  1  0  0  0
 41 42  2  0  0  0
 42 35  1  0  0  0
 35  1  1  0  0  0
  1  2  1  0  0  0
  2  3  1  0  0  0
  3  4  1  0  0  0
  4  5  1  0  0  0
  5  6  1  0  0  0
  4  7  1  0  0  0
  7  8  1  0  0  0
  8  9  2  0  0  0
  8 10  1  0  0  0
 10 11  1  0  0  0
 11 12  2  0  0  0
 10 21  1  0  0  0
 21 22  2  0  0  0
 22 23  1  0  0  0
 23 24  2  0  0  0
 24 25  1  0  0  0
 25 26  2  0  0  0
 24 27  1  0  0  0
 27 28  2  0  0  0
 28 29  1  0  0  0
 29 30  2  0  0  0
 30 31  1  0  0  0
 31 32  2  0  0  0
 30 33  1  0  0  0
 33 34  3  0  0  0
  7 13  1  0  0  0
 13 14  2  0  0  0
 14 15  1  0  0  0
 15 16  2  0  0  0
 15 17  1  0  0  0
 17 18  1  0  0  0
 18 19  2  0  0  0
 42 37  1  0  0  0
  6  1  1  0  0  0
 26 21  1  0  0  0
 32 27  1  0  0  0
 19 13  1  0  0  0
 11  4  1  0  0  0
 17 20  1  0  0  0
M  END
> <minimizedAffinity>
10.01566

> <CNNscore>
0.4166142344

> <CNNaffinity>
7.6800589561

> <CNN_VS>
3.1996219158

> <CNNaffinity_variance>
0.6776327491

$$$$
[H]OC(=O)c1c([H])c([H])c(N2C(=O)N(c3c([H])c([H])c(-c4c([H])c([H])c([H])c([H])c4[H])c([H])c3[H])C(=O)C23C([H])([H])C([H])([H])N(C([H])([H])c2nc([H])c([H])c([H])c2C([H])([H])[H])C([H])([H])C3([H])[H])c([H])c1[H]


 42 47  0  0  0  0  0  0  0  0999 V2000
   12.9933   25.4180   -3.3230 N   0  0  0  0  0  0  0  0  0  0  0  0
   14.2927   24.7077   -3.1844 C   0  0  0  0  0  0  0  0  0  0  0  0
   13.9925   23.4599   -2.4203 C   0  0  0  0  0  0  0  0  0  0  0  0
   13.2742   23.6761   -1.1519 C   0  0  0  0  0  0  0  0  0  0  0  0
   12.4019   24.9014   -1.0873 C   0  0  0  0  0  0  0  0  0  0  0  0
   12.8439   26.0071   -1.9776 C   0  0  0  0  0  0  0  0  0  0  0  0
   14.1670   23.6717    0.0200 N   0  0  0  0  0  0  0  0  0  0  0  0
   13.2578   23.4537    1.1098 C   0  0  0  0  0  0  0  0  0  0  0  0
   13.4532   23.8487    2.3056 O   0  0  0  0  0  0  0  0  0  0  0  0
   12.1275   22.7315    0.6126 N   0  0  0  0  0  0  0  0  0  0  0  0
   12.3862   22.5312   -0.7723 C   0  0  0  0  0  0  0  0  0  0  0  0
   11.9444   21.5884   -1.4745 O   0  0  0  0  0  0  0  0  0  0  0  0
   10.9823   22.3038    1.3506 C   0  0  0  0  0  0  0  0  0  0  0  0
    9.7359   22.3482    0.7670 C   0  0  0  0  0  0  0  0  0  0  0  0
    8.6242   21.9291    1.4873 C   0  0  0  0  0  0  0  0  0  0  0  0
    8.8283   21.4808    2.7760 C   0  0  0  0  0  0  0  0  0  0  0  0
   10.0904   21.4441    3.3453 C   0  0  0  0  0  0  0  0  0  0  0  0
   11.1952   21.8585    2.6349 C   0  0  0  0  0  0  0  0  0  0  0  0
    7.6346   21.0380    3.5227 C   0  0  0  0  0  0  0  0  0  0  0  0
    7.5560   19.7225    3.9169 C   0  0  0  0  0  0  0  0  0  0  0  0
    6.4647   19.2552    4.6180 C   0  0  0  0  0  0  0  0  0  0  0  0
    5.4358   20.1127    4.9311 C   0  0  0  0  0  0  0  0  0  0  0  0
    5.5289   21.4285    4.5292 C   0  0  0  0  0  0  0  0  0  0  0  0
    6.6085   21.9020    3.8326 C   0  0  0  0  0  0  0  0  0  0  0  0
   15.5682   23.8365    0.0870 C   0  0  0  0  0  0  0  0  0  0  0  0
   16.3684   23.1231    0.9735 C   0  0  0  0  0  0  0  0  0  0  0  0
   17.7309   23.2951    1.0225 C   0  0  0  0  0  0  0  0  0  0  0  0
   18.3644   24.1807    0.1972 C   0  0  0  0  0  0  0  0  0  0  0  0
   17.6113   24.8948   -0.6817 C   0  0  0  0  0  0  0  0  0  0  0  0
   16.2280   24.7254   -0.7374 C   0  0  0  0  0  0  0  0  0  0  0  0
   19.8074   24.3316    0.2810 C   0  0  0  0  0  0  0  0  0  0  0  0
   20.5288   24.4038   -0.8958 O   0  0  0  0  0  0  0  0  0  0  0  0
   20.4321   24.3995    1.3678 O   0  0  0  0  0  0  0  0  0  0  0  0
   20.7456   25.3085   -1.2936 H   0  0  0  0  0  0  0  0  0  0  0  0
   13.0886   26.4215   -4.3455 C   0  0  0  0  0  0  0  0  0  0  0  0
   14.3178   26.6316   -6.9342 C   0  0  0  0  0  0  0  0  0  0  0  0
   15.0696   27.0202   -5.7274 C   0  0  0  0  0  0  0  0  0  0  0  0
   16.3560   27.4907   -5.8783 C   0  0  0  0  0  0  0  0  0  0  0  0
   17.0964   27.8665   -4.7714 C   0  0  0  0  0  0  0  0  0  0  0  0
   16.5001   27.7504   -3.5437 C   0  0  0  0  0  0  0  0  0  0  0  0
   15.2615   27.2932   -3.4454 N   0  0  0  0  0  0  0  0  0  0  0  0
   14.4758   26.9085   -4.4603 C   0  0  0  0  0  0  0  0  0  0  0  0
 36 37  1  0  0  0
 37 38  2  0  0  0
 38 39  1  0  0  0
 39 40  2  0  0  0
 40 41  1  0  0  0
 41 42  2  0  0  0
 42 35  1  0  0  0
 35  1  1  0  0  0
  1  2  1  0  0  0
  2  3  1  0  0  0
  3  4  1  0  0  0
  4  5  1  0  0  0
  5  6  1  0  0  0
  4  7  1  0  0  0
  7  8  1  0  0  0
  8  9  2  0  0  0
  8 10  1  0  0  0
 10 11  1  0  0  0
 11 12  2  0  0  0
 10 13  1  0  0  0
 13 14  2  0  0  0
 14 15  1  0  0  0
 15 16  2  0  0  0
 16 17  1  0  0  0
 17 18  2  0  0  0
 16 19  1  0  0  0
 19 20  2  0  0  0
 20 21  1  0  0  0
 21 22  2  0  0  0
 22 23  1  0  0  0
 23 24  2  0  0  0
  7 25  1  0  0  0
 25 26  2  0  0  0
 26 27  1  0  0  0
 27 28  2  0  0  0
 28 29  1  0  0  0
 29 30  2  0  0  0
 28 31  1  0  0  0
 31 32  1  0  0  0
 31 33  2  0  0  0
 42 37  1  0  0  0
  6  1  1  0  0  0
 18 13  1  0  0  0
 24 19  1  0  0  0
 30 25  1  0  0  0
 11  4  1  0  0  0
 32 34  1  0  0  0
M  END
> <minimizedAffinity>
8.47863

> <CNNscore>
0.4927598834

> <CNNaffinity>
7.7802858353

> <CNN_VS>
3.8338127136

> <CNNaffinity_variance>
0.3579501510

$$$$
[H]OC(=O)c1c([H])c([H])c(N2C(=O)N(c3c([H])c([H])c(-c4c([H])c([H])c([H])c([H])c4[H])c([H])c3[H])C(=O)C23C([H])([H])C([H])([H])N(C([H])([H])c2nc([H])c([H])c([H])c2C([H])([H])[H])C([H])([H])C3([H])[H])c([H])c1[H]


 42 47  0  0  0  0  0  0  0  0999 V2000
    8.2627   25.3122    2.0507 N   0  0  0  0  0  0  0  0  0  0  0  0
    9.0054   24.5319    3.0762 C   0  0  0  0  0  0  0  0  0  0  0  0
   10.4465   24.6327    2.6964 C   0  0  0  0  0  0  0  0  0  0  0  0
   10.7411   24.2509    1.3041 C   0  0  0  0  0  0  0  0  0  0  0  0
    9.6221   24.4429    0.3155 C   0  0  0  0  0  0  0  0  0  0  0  0
    8.2640   24.3679    0.9159 C   0  0  0  0  0  0  0  0  0  0  0  0
   11.2448   22.8717    1.1826 N   0  0  0  0  0  0  0  0  0  0  0  0
   11.8587   22.8720   -0.1155 C   0  0  0  0  0  0  0  0  0  0  0  0
   11.9868   21.8427   -0.8559 O   0  0  0  0  0  0  0  0  0  0  0  0
   12.2852   24.2055   -0.4090 N   0  0  0  0  0  0  0  0  0  0  0  0
   11.9156   24.9793    0.7267 C   0  0  0  0  0  0  0  0  0  0  0  0
   12.4808   26.0310    1.1161 O   0  0  0  0  0  0  0  0  0  0  0  0
   12.9417   24.6623   -1.5919 C   0  0  0  0  0  0  0  0  0  0  0  0
   12.5157   25.8174   -2.2088 C   0  0  0  0  0  0  0  0  0  0  0  0
   13.1583   26.2601   -3.3583 C   0  0  0  0  0  0  0  0  0  0  0  0
   14.2113   25.5060   -3.8337 C   0  0  0  0  0  0  0  0  0  0  0  0
   14.6246   24.3465   -3.1987 C   0  0  0  0  0  0  0  0  0  0  0  0
   13.9905   23.9041   -2.0589 C   0  0  0  0  0  0  0  0  0  0  0  0
   14.8815   25.9950   -5.0544 C   0  0  0  0  0  0  0  0  0  0  0  0
   15.3012   27.3044   -5.0945 C   0  0  0  0  0  0  0  0  0  0  0  0
   15.9338   27.8135   -6.2087 C   0  0  0  0  0  0  0  0  0  0  0  0
   16.1516   27.0047   -7.2998 C   0  0  0  0  0  0  0  0  0  0  0  0
   15.7252   25.6946   -7.2446 C   0  0  0  0  0  0  0  0  0  0  0  0
   15.0960   25.1797   -6.1428 C   0  0  0  0  0  0  0  0  0  0  0  0
   11.1616   21.7974    2.0958 C   0  0  0  0  0  0  0  0  0  0  0  0
   12.2184   20.9230    2.3276 C   0  0  0  0  0  0  0  0  0  0  0  0
   12.1197   19.8845    3.2221 C   0  0  0  0  0  0  0  0  0  0  0  0
   10.9712   19.6631    3.9284 C   0  0  0  0  0  0  0  0  0  0  0  0
    9.9184   20.4997    3.7254 C   0  0  0  0  0  0  0  0  0  0  0  0
   10.0112   21.5560    2.8193 C   0  0  0  0  0  0  0  0  0  0  0  0
   10.9090   18.5538    4.8652 C   0  0  0  0  0  0  0  0  0  0  0  0
   12.0768   17.8736    5.1548 O   0  0  0  0  0  0  0  0  0  0  0  0
    9.8485   18.1820    5.4248 O   0  0  0  0  0  0  0  0  0  0  0  0
   12.6273   18.1465    5.9586 H   0  0  0  0  0  0  0  0  0  0  0  0
    6.9346   25.5965    2.5166 C   0  0  0  0  0  0  0  0  0  0  0  0
    6.8032   26.7433    5.1478 C   0  0  0  0  0  0  0  0  0  0  0  0
    6.6920   27.6089    3.9600 C   0  0  0  0  0  0  0  0  0  0  0  0
    6.5370   28.9653    4.1482 C   0  0  0  0  0  0  0  0  0  0  0  0
    6.4291   29.8133    3.0600 C   0  0  0  0  0  0  0  0  0  0  0  0
    6.4829   29.2500    1.8126 C   0  0  0  0  0  0  0  0  0  0  0  0
    6.6329   27.9414    1.6786 N   0  0  0  0  0  0  0  0  0  0  0  0
    6.7449   27.0505    2.6732 C   0  0  0  0  0  0  0  0  0  0  0  0
 36 37  1  0  0  0
 37 38  2  0  0  0
 38 39  1  0  0  0
 39 40  2  0  0  0
 40 41  1  0  0  0
 41 42  2  0  0  0
 42 35  1  0  0  0
 35  1  1  0  0  0
  1  2  1  0  0  0
  2  3  1  0  0  0
  3  4  1  0  0  0
  4  5  1  0  0  0
  5  6  1  0  0  0
  4  7  1  0  0  0
  7  8  1  0  0  0
  8  9  2  0  0  0
  8 10  1  0  0  0
 10 11  1  0  0  0
 11 12  2  0  0  0
 10 13  1  0  0  0
 13 14  2  0  0  0
 14 15  1  0  0  0
 15 16  2  0  0  0
 16 17  1  0  0  0
 17 18  2  0  0  0
 16 19  1  0  0  0
 19 20  2  0  0  0
 20 21  1  0  0  0
 21 22  2  0  0  0
 22 23  1  0  0  0
 23 24  2  0  0  0
  7 25  1  0  0  0
 25 26  2  0  0  0
 26 27  1  0  0  0
 27 28  2  0  0  0
 28 29  1  0  0  0
 29 30  2  0  0  0
 28 31  1  0  0  0
 31 32  1  0  0  0
 31 33  2  0  0  0
 42 37  1  0  0  0
  6  1  1  0  0  0
 18 13  1  0  0  0
 24 19  1  0  0  0
 30 25  1  0  0  0
 11  4  1  0  0  0
 32 34  1  0  0  0
M  END
> <minimizedAffinity>
-6.38474

> <CNNscore>
0.4879258871

> <CNNaffinity>
7.2183279991

> <CNN_VS>
3.5220091343

> <CNNaffinity_variance>
0.1599784344

$$$$
[H]OC(=O)c1c([H])c([H])c(N2C(=O)N(c3c([H])c([H])c(-c4c([H])c([H])c([H])c([H])c4[H])c([H])c3[H])C(=O)C23C([H])([H])C([H])([H])N(C([H])([H])c2nc([H])c([H])c([H])c2C([H])([H])[H])C([H])([H])C3([H])[H])c([H])c1[H]


 42 47  0  0  0  0  0  0  0  0999 V2000
    8.6572   25.1610    1.7555 N   0  0  0  0  0  0  0  0  0  0  0  0
    9.4448   24.4013    2.7629 C   0  0  0  0  0  0  0  0  0  0  0  0
   10.8746   24.5552    2.3590 C   0  0  0  0  0  0  0  0  0  0  0  0
   11.1582   24.1924    0.9593 C   0  0  0  0  0  0  0  0  0  0  0  0
   10.0160   24.3508   -0.0086 C   0  0  0  0  0  0  0  0  0  0  0  0
    8.6721   24.2243    0.6146 C   0  0  0  0  0  0  0  0  0  0  0  0
   11.7078   22.8327    0.8201 N   0  0  0  0  0  0  0  0  0  0  0  0
   12.2986   22.8625   -0.4884 C   0  0  0  0  0  0  0  0  0  0  0  0
   12.4500   21.8428   -1.2376 O   0  0  0  0  0  0  0  0  0  0  0  0
   12.6728   24.2119   -0.7803 N   0  0  0  0  0  0  0  0  0  0  0  0
   12.2960   24.9653    0.3667 C   0  0  0  0  0  0  0  0  0  0  0  0
   12.8305   26.0341    0.7532 O   0  0  0  0  0  0  0  0  0  0  0  0
   13.2921   24.6988   -1.9714 C   0  0  0  0  0  0  0  0  0  0  0  0
   12.7937   25.8224   -2.5921 C   0  0  0  0  0  0  0  0  0  0  0  0
   13.4002   26.2945   -3.7495 C   0  0  0  0  0  0  0  0  0  0  0  0
   14.4923   25.6008   -4.2284 C   0  0  0  0  0  0  0  0  0  0  0  0
   14.9785   24.4722   -3.5894 C   0  0  0  0  0  0  0  0  0  0  0  0
   14.3803   24.0008   -2.4418 C   0  0  0  0  0  0  0  0  0  0  0  0
   15.1231   26.1204   -5.4575 C   0  0  0  0  0  0  0  0  0  0  0  0
   15.2322   25.2846   -6.5446 C   0  0  0  0  0  0  0  0  0  0  0  0
   15.8112   25.7180   -7.7183 C   0  0  0  0  0  0  0  0  0  0  0  0
   16.2889   27.0046   -7.8099 C   0  0  0  0  0  0  0  0  0  0  0  0
   16.1726   27.8305   -6.7119 C   0  0  0  0  0  0  0  0  0  0  0  0
   15.5991   27.4094   -5.5419 C   0  0  0  0  0  0  0  0  0  0  0  0
   11.6785   21.7507    1.7274 C   0  0  0  0  0  0  0  0  0  0  0  0
   12.6135   20.7210    1.7015 C   0  0  0  0  0  0  0  0  0  0  0  0
   12.5703   19.6773    2.5944 C   0  0  0  0  0  0  0  0  0  0  0  0
   11.6003   19.6041    3.5539 C   0  0  0  0  0  0  0  0  0  0  0  0
   10.6701   20.5948    3.6069 C   0  0  0  0  0  0  0  0  0  0  0  0
   10.7077   21.6573    2.7041 C   0  0  0  0  0  0  0  0  0  0  0  0
   11.5913   18.4835    4.4792 C   0  0  0  0  0  0  0  0  0  0  0  0
   12.7754   17.8057    4.6999 O   0  0  0  0  0  0  0  0  0  0  0  0
   10.5627   18.0999    5.0882 O   0  0  0  0  0  0  0  0  0  0  0  0
   13.3655   18.0717    5.4776 H   0  0  0  0  0  0  0  0  0  0  0  0
    7.3283   25.3955    2.2460 C   0  0  0  0  0  0  0  0  0  0  0  0
    6.4339   26.1507    4.8701 C   0  0  0  0  0  0  0  0  0  0  0  0
    6.5010   24.7267    4.4955 C   0  0  0  0  0  0  0  0  0  0  0  0
    6.1164   23.7845    5.4249 C   0  0  0  0  0  0  0  0  0  0  0  0
    6.1638   22.4370    5.1137 C   0  0  0  0  0  0  0  0  0  0  0  0
    6.6025   22.0928    3.8625 C   0  0  0  0  0  0  0  0  0  0  0  0
    6.9621   23.0317    3.0012 N   0  0  0  0  0  0  0  0  0  0  0  0
    6.9478   24.3538    3.2181 C   0  0  0  0  0  0  0  0  0  0  0  0
 36 37  1  0  0  0
 37 38  2  0  0  0
 38 39  1  0  0  0
 39 40  2  0  0  0
 40 41  1  0  0  0
 41 42  2  0  0  0
 42 35  1  0  0  0
 35  1  1  0  0  0
  1  2  1  0  0  0
  2  3  1  0  0  0
  3  4  1  0  0  0
  4  5  1  0  0  0
  5  6  1  0  0  0
  4  7  1  0  0  0
  7  8  1  0  0  0
  8  9  2  0  0  0
  8 10  1  0  0  0
 10 11  1  0  0  0
 11 12  2  0  0  0
 10 13  1  0  0  0
 13 14  2  0  0  0
 14 15  1  0  0  0
 15 16  2  0  0  0
 16 17  1  0  0  0
 17 18  2  0  0  0
 16 19  1  0  0  0
 19 20  2  0  0  0
 20 21  1  0  0  0
 21 22  2  0  0  0
 22 23  1  0  0  0
 23 24  2  0  0  0
  7 25  1  0  0  0
 25 26  2  0  0  0
 26 27  1  0  0  0
 27 28  2  0  0  0
 28 29  1  0  0  0
 29 30  2  0  0  0
 28 31  1  0  0  0
 31 32  1  0  0  0
 31 33  2  0  0  0
 42 37  1  0  0  0
  6  1  1  0  0  0
 18 13  1  0  0  0
 24 19  1  0  0  0
 30 25  1  0  0  0
 11  4  1  0  0  0
 32 34  1  0  0  0
M  END
> <minimizedAffinity>
-6.01292

> <CNNscore>
0.4656255841

> <CNNaffinity>
7.2241568565

> <CNN_VS>
3.3637523651

> <CNNaffinity_variance>
0.1192346439

$$$$
[H]OC(=O)c1c([H])c([H])c(N2C(=O)N(c3c([H])c([H])c(-c4c([H])c([H])c([H])c([H])c4[H])c([H])c3[H])C(=O)C23C([H])([H])C([H])([H])N(C([H])([H])c2nc([H])c([H])c([H])c2C([H])([H])[H])C([H])([H])C3([H])[H])c([H])c1[H]


 42 47  0  0  0  0  0  0  0  0999 V2000
   15.1604   24.4354   -4.3835 N   0  0  0  0  0  0  0  0  0  0  0  0
   16.3116   23.9893   -3.5540 C   0  0  0  0  0  0  0  0  0  0  0  0
   15.8748   22.7160   -2.9066 C   0  0  0  0  0  0  0  0  0  0  0  0
   14.5952   22.8052   -2.1813 C   0  0  0  0  0  0  0  0  0  0  0  0
   13.6236   23.8411   -2.6807 C   0  0  0  0  0  0  0  0  0  0  0  0
   14.2669   25.0006   -3.3531 C   0  0  0  0  0  0  0  0  0  0  0  0
   14.7709   22.9859   -0.7298 N   0  0  0  0  0  0  0  0  0  0  0  0
   13.4876   22.6102   -0.2063 C   0  0  0  0  0  0  0  0  0  0  0  0
   12.9935   23.0494    0.8832 O   0  0  0  0  0  0  0  0  0  0  0  0
   12.8894   21.6789   -1.1124 N   0  0  0  0  0  0  0  0  0  0  0  0
   13.8333   21.5158   -2.1648 C   0  0  0  0  0  0  0  0  0  0  0  0
   13.9592   20.4975   -2.8892 O   0  0  0  0  0  0  0  0  0  0  0  0
   11.6145   21.0481   -0.9868 C   0  0  0  0  0  0  0  0  0  0  0  0
   11.4954   19.8833   -0.2621 C   0  0  0  0  0  0  0  0  0  0  0  0
   10.2529   19.2735   -0.1401 C   0  0  0  0  0  0  0  0  0  0  0  0
    9.1800   19.8768   -0.7631 C   0  0  0  0  0  0  0  0  0  0  0  0
    9.3206   21.0487   -1.4880 C   0  0  0  0  0  0  0  0  0  0  0  0
   10.5503   21.6565   -1.6114 C   0  0  0  0  0  0  0  0  0  0  0  0
    7.8690   19.2142   -0.6192 C   0  0  0  0  0  0  0  0  0  0  0  0
    7.8293   17.9403   -0.1017 C   0  0  0  0  0  0  0  0  0  0  0  0
    6.6321   17.2749    0.0560 C   0  0  0  0  0  0  0  0  0  0  0  0
    5.4563   17.8890   -0.3077 C   0  0  0  0  0  0  0  0  0  0  0  0
    5.5121   19.1660   -0.8249 C   0  0  0  0  0  0  0  0  0  0  0  0
    6.6960   19.8350   -0.9854 C   0  0  0  0  0  0  0  0  0  0  0  0
   15.9040   23.4171   -0.0052 C   0  0  0  0  0  0  0  0  0  0  0  0
   16.2333   24.7600    0.1479 C   0  0  0  0  0  0  0  0  0  0  0  0
   17.3389   25.1608    0.8588 C   0  0  0  0  0  0  0  0  0  0  0  0
   18.1696   24.2518    1.4509 C   0  0  0  0  0  0  0  0  0  0  0  0
   17.8765   22.9302    1.3205 C   0  0  0  0  0  0  0  0  0  0  0  0
   16.7561   22.5159    0.6006 C   0  0  0  0  0  0  0  0  0  0  0  0
   19.3279   24.7181    2.1944 C   0  0  0  0  0  0  0  0  0  0  0  0
   20.4966   24.9671    1.4997 O   0  0  0  0  0  0  0  0  0  0  0  0
   19.3211   24.9062    3.4356 O   0  0  0  0  0  0  0  0  0  0  0  0
   20.6911   25.9034    1.1693 H   0  0  0  0  0  0  0  0  0  0  0  0
   15.5912   25.4265   -5.3289 C   0  0  0  0  0  0  0  0  0  0  0  0
   17.6974   25.9736   -3.4527 C   0  0  0  0  0  0  0  0  0  0  0  0
   16.7092   27.0181   -3.7768 C   0  0  0  0  0  0  0  0  0  0  0  0
   16.8321   28.2493   -3.1699 C   0  0  0  0  0  0  0  0  0  0  0  0
   15.9256   29.2576   -3.4465 C   0  0  0  0  0  0  0  0  0  0  0  0
   14.9212   28.9776   -4.3349 C   0  0  0  0  0  0  0  0  0  0  0  0
   14.8415   27.7805   -4.8945 N   0  0  0  0  0  0  0  0  0  0  0  0
   15.6726   26.7506   -4.6847 C   0  0  0  0  0  0  0  0  0  0  0  0
 36 37  1  0  0  0
 37 38  2  0  0  0
 38 39  1  0  0  0
 39 40  2  0  0  0
 40 41  1  0  0  0
 41 42  2  0  0  0
 42 35  1  0  0  0
 35  1  1  0  0  0
  1  2  1  0  0  0
  2  3  1  0  0  0
  3  4  1  0  0  0
  4  5  1  0  0  0
  5  6  1  0  0  0
  4  7  1  0  0  0
  7  8  1  0  0  0
  8  9  2  0  0  0
  8 10  1  0  0  0
 10 11  1  0  0  0
 11 12  2  0  0  0
 10 13  1  0  0  0
 13 14  2  0  0  0
 14 15  1  0  0  0
 15 16  2  0  0  0
 16 17  1  0  0  0
 17 18  2  0  0  0
 16 19  1  0  0  0
 19 20  2  0  0  0
 20 21  1  0  0  0
 21 22  2  0  0  0
 22 23  1  0  0  0
 23 24  2  0  0  0
  7 25  1  0  0  0
 25 26  2  0  0  0
 26 27  1  0  0  0
 27 28  2  0  0  0
 28 29  1  0  0  0
 29 30  2  0  0  0
 28 31  1  0  0  0
 31 32  1  0  0  0
 31 33  2  0  0  0
 42 37  1  0  0  0
  6  1  1  0  0  0
 18 13  1  0  0  0
 24 19  1  0  0  0
 30 25  1  0  0  0
 11  4  1  0  0  0
 32 34  1  0  0  0
M  END
> <minimizedAffinity>
13.24510

> <CNNscore>
0.4574307203

> <CNNaffinity>
7.7029609680

> <CNN_VS>
3.5235710144

> <CNNaffinity_variance>
0.4409843981

$$$$
[H]OC(=O)c1c([H])c([H])c(N2C(=O)N(c3c([H])c([H])c(-c4c([H])c([H])c([H])c([H])c4[H])c([H])c3[H])C(=O)C23C([H])([H])C([H])([H])N(C([H])([H])c2nc([H])c([H])c([H])c2C([H])([H])[H])C([H])([H])C3([H])[H])c([H])c1[H]


 42 47  0  0  0  0  0  0  0  0999 V2000
   13.8247   21.3916    0.8862 N   0  0  0  0  0  0  0  0  0  0  0  0
   12.3409   21.4187    0.9842 C   0  0  0  0  0  0  0  0  0  0  0  0
   11.8646   22.0817   -0.2668 C   0  0  0  0  0  0  0  0  0  0  0  0
   12.4845   23.3901   -0.5408 C   0  0  0  0  0  0  0  0  0  0  0  0
   13.8692   23.5942    0.0137 C   0  0  0  0  0  0  0  0  0  0  0  0
   14.1600   22.7879    1.2286 C   0  0  0  0  0  0  0  0  0  0  0  0
   11.6394   24.5228   -0.1246 N   0  0  0  0  0  0  0  0  0  0  0  0
   12.2012   25.6228   -0.8569 C   0  0  0  0  0  0  0  0  0  0  0  0
   12.1544   26.8403   -0.4833 O   0  0  0  0  0  0  0  0  0  0  0  0
   12.8037   25.1073   -2.0475 N   0  0  0  0  0  0  0  0  0  0  0  0
   12.5879   23.7014   -2.0022 C   0  0  0  0  0  0  0  0  0  0  0  0
   12.5094   22.9366   -2.9952 O   0  0  0  0  0  0  0  0  0  0  0  0
   13.4793   25.8476   -3.0647 C   0  0  0  0  0  0  0  0  0  0  0  0
   12.9520   25.9033   -4.3355 C   0  0  0  0  0  0  0  0  0  0  0  0
   13.6109   26.6264   -5.3221 C   0  0  0  0  0  0  0  0  0  0  0  0
   14.7829   27.2648   -4.9727 C   0  0  0  0  0  0  0  0  0  0  0  0
   15.2972   27.1964   -3.6885 C   0  0  0  0  0  0  0  0  0  0  0  0
   14.6473   26.4808   -2.7074 C   0  0  0  0  0  0  0  0  0  0  0  0
   15.4656   28.0293   -6.0348 C   0  0  0  0  0  0  0  0  0  0  0  0
   15.4801   29.4023   -5.9510 C   0  0  0  0  0  0  0  0  0  0  0  0
   16.1044   30.1659   -6.9144 C   0  0  0  0  0  0  0  0  0  0  0  0
   16.7239   29.5513   -7.9776 C   0  0  0  0  0  0  0  0  0  0  0  0
   16.7009   28.1744   -8.0478 C   0  0  0  0  0  0  0  0  0  0  0  0
   16.0836   27.4074   -7.0962 C   0  0  0  0  0  0  0  0  0  0  0  0
   10.5443   24.5513    0.7670 C   0  0  0  0  0  0  0  0  0  0  0  0
   10.6102   25.1498    2.0211 C   0  0  0  0  0  0  0  0  0  0  0  0
    9.5332   25.1698    2.8743 C   0  0  0  0  0  0  0  0  0  0  0  0
    8.3417   24.5987    2.5265 C   0  0  0  0  0  0  0  0  0  0  0  0
    8.2433   24.0046    1.3071 C   0  0  0  0  0  0  0  0  0  0  0  0
    9.3321   23.9805    0.4357 C   0  0  0  0  0  0  0  0  0  0  0  0
    7.2272   24.6427    3.4582 C   0  0  0  0  0  0  0  0  0  0  0  0
    6.8142   25.8748    3.9290 O   0  0  0  0  0  0  0  0  0  0  0  0
    6.6206   23.6186    3.8572 O   0  0  0  0  0  0  0  0  0  0  0  0
    6.0652   26.3643    3.4566 H   0  0  0  0  0  0  0  0  0  0  0  0
   14.3626   20.4576    1.8350 C   0  0  0  0  0  0  0  0  0  0  0  0
   16.7266   22.0880    1.7395 C   0  0  0  0  0  0  0  0  0  0  0  0
   16.7822   20.6824    1.2991 C   0  0  0  0  0  0  0  0  0  0  0  0
   17.9871   20.1797    0.8579 C   0  0  0  0  0  0  0  0  0  0  0  0
   18.0827   18.8653    0.4359 C   0  0  0  0  0  0  0  0  0  0  0  0
   16.9445   18.1043    0.4775 C   0  0  0  0  0  0  0  0  0  0  0  0
   15.8080   18.6288    0.9089 N   0  0  0  0  0  0  0  0  0  0  0  0
   15.6265   19.8863    1.3343 C   0  0  0  0  0  0  0  0  0  0  0  0
 36 37  1  0  0  0
 37 38  2  0  0  0
 38 39  1  0  0  0
 39 40  2  0  0  0
 40 41  1  0  0  0
 41 42  2  0  0  0
 42 35  1  0  0  0
 35  1  1  0  0  0
  1  2  1  0  0  0
  2  3  1  0  0  0
  3  4  1  0  0  0
  4  5  1  0  0  0
  5  6  1  0  0  0
  4  7  1  0  0  0
  7  8  1  0  0  0
  8  9  2  0  0  0
  8 10  1  0  0  0
 10 11  1  0  0  0
 11 12  2  0  0  0
 10 13  1  0  0  0
 13 14  2  0  0  0
 14 15  1  0  0  0
 15 16  2  0  0  0
 16 17  1  0  0  0
 17 18  2  0  0  0
 16 19  1  0  0  0
 19 20  2  0  0  0
 20 21  1  0  0  0
 21 22  2  0  0  0
 22 23  1  0  0  0
 23 24  2  0  0  0
  7 25  1  0  0  0
 25 26  2  0  0  0
 26 27  1  0  0  0
 27 28  2  0  0  0
 28 29  1  0  0  0
 29 30  2  0  0  0
 28 31  1  0  0  0
 31 32  1  0  0  0
 31 33  2  0  0  0
 42 37  1  0  0  0
  6  1  1  0  0  0
 18 13  1  0  0  0
 24 19  1  0  0  0
 30 25  1  0  0  0
 11  4  1  0  0  0
 32 34  1  0  0  0
M  END
> <minimizedAffinity>
37.02998

> <CNNscore>
0.4320971966

> <CNNaffinity>
7.1316137314

> <CNN_VS>
3.0815503597

> <CNNaffinity_variance>
0.5868045688

$$$$
[H]OC(=O)c1c([H])c([H])c(N2C(=O)N(c3c([H])c([H])c(-c4c([H])c([H])c([H])c([H])c4[H])c([H])c3[H])C(=O)C23C([H])([H])C([H])([H])N(C([H])([H])c2nc([H])c([H])c([H])c2C([H])([H])[H])C([H])([H])C3([H])[H])c([H])c1[H]


 42 47  0  0  0  0  0  0  0  0999 V2000
   15.2248   25.4398   -3.6294 N   0  0  0  0  0  0  0  0  0  0  0  0
   16.3859   24.8785   -2.8885 C   0  0  0  0  0  0  0  0  0  0  0  0
   15.9535   23.5270   -2.4219 C   0  0  0  0  0  0  0  0  0  0  0  0
   14.6847   23.5146   -1.6727 C   0  0  0  0  0  0  0  0  0  0  0  0
   13.7101   24.6125   -2.0059 C   0  0  0  0  0  0  0  0  0  0  0  0
   14.3482   25.8546   -2.5164 C   0  0  0  0  0  0  0  0  0  0  0  0
   14.8817   23.4873   -0.2129 N   0  0  0  0  0  0  0  0  0  0  0  0
   13.6045   23.0434    0.2706 C   0  0  0  0  0  0  0  0  0  0  0  0
   13.1277   23.3244    1.4185 O   0  0  0  0  0  0  0  0  0  0  0  0
   12.9901   22.2510   -0.7496 N   0  0  0  0  0  0  0  0  0  0  0  0
   13.9183   22.2372   -1.8282 C   0  0  0  0  0  0  0  0  0  0  0  0
   14.0300   21.3318   -2.6913 O   0  0  0  0  0  0  0  0  0  0  0  0
   11.7147   21.6110   -0.6962 C   0  0  0  0  0  0  0  0  0  0  0  0
   10.5670   22.3717   -0.6803 C   0  0  0  0  0  0  0  0  0  0  0  0
    9.3277   21.7454   -0.6305 C   0  0  0  0  0  0  0  0  0  0  0  0
    9.3084   20.3663   -0.5989 C   0  0  0  0  0  0  0  0  0  0  0  0
   10.4744   19.6188   -0.6154 C   0  0  0  0  0  0  0  0  0  0  0  0
   11.7049   20.2356   -0.6648 C   0  0  0  0  0  0  0  0  0  0  0  0
    7.9819   19.7210   -0.5487 C   0  0  0  0  0  0  0  0  0  0  0  0
    6.8863   20.4931   -0.2392 C   0  0  0  0  0  0  0  0  0  0  0  0
    5.6236   19.9427   -0.1798 C   0  0  0  0  0  0  0  0  0  0  0  0
    5.4504   18.6018   -0.4328 C   0  0  0  0  0  0  0  0  0  0  0  0
    6.5581   17.8409   -0.7415 C   0  0  0  0  0  0  0  0  0  0  0  0
    7.8161   18.3782   -0.8030 C   0  0  0  0  0  0  0  0  0  0  0  0
   16.0266   23.8094    0.5489 C   0  0  0  0  0  0  0  0  0  0  0  0
   16.8327   22.8430    1.1417 C   0  0  0  0  0  0  0  0  0  0  0  0
   17.9445   23.1756    1.8776 C   0  0  0  0  0  0  0  0  0  0  0  0
   18.3101   24.4792    2.0610 C   0  0  0  0  0  0  0  0  0  0  0  0
   17.5434   25.4494    1.4949 C   0  0  0  0  0  0  0  0  0  0  0  0
   16.4136   25.1195    0.7466 C   0  0  0  0  0  0  0  0  0  0  0  0
   19.4939   24.7875    2.8458 C   0  0  0  0  0  0  0  0  0  0  0  0
   20.1883   25.9472    2.5572 O   0  0  0  0  0  0  0  0  0  0  0  0
   19.9177   24.0541    3.7723 O   0  0  0  0  0  0  0  0  0  0  0  0
   19.9797   26.7945    3.0693 H   0  0  0  0  0  0  0  0  0  0  0  0
   15.6458   26.5542   -4.4310 C   0  0  0  0  0  0  0  0  0  0  0  0
   13.0924   26.9457   -5.6889 C   0  0  0  0  0  0  0  0  0  0  0  0
   14.2348   26.4510   -6.4780 C   0  0  0  0  0  0  0  0  0  0  0  0
   14.0456   26.1971   -7.8193 C   0  0  0  0  0  0  0  0  0  0  0  0
   15.0919   25.7318   -8.5962 C   0  0  0  0  0  0  0  0  0  0  0  0
   16.2999   25.5402   -7.9794 C   0  0  0  0  0  0  0  0  0  0  0  0
   16.4365   25.7973   -6.6879 N   0  0  0  0  0  0  0  0  0  0  0  0
   15.4808   26.2483   -5.8641 C   0  0  0  0  0  0  0  0  0  0  0  0
 36 37  1  0  0  0
 37 38  2  0  0  0
 38 39  1  0  0  0
 39 40  2  0  0  0
 40 41  1  0  0  0
 41 42  2  0  0  0
 42 35  1  0  0  0
 35  1  1  0  0  0
  1  2  1  0  0  0
  2  3  1  0  0  0
  3  4  1  0  0  0
  4  5  1  0  0  0
  5  6  1  0  0  0
  4  7  1  0  0  0
  7  8  1  0  0  0
  8  9  2  0  0  0
  8 10  1  0  0  0
 10 11  1  0  0  0
 11 12  2  0  0  0
 10 13  1  0  0  0
 13 14  2  0  0  0
 14 15  1  0  0  0
 15 16  2  0  0  0
 16 17  1  0  0  0
 17 18  2  0  0  0
 16 19  1  0  0  0
 19 20  2  0  0  0
 20 21  1  0  0  0
 21 22  2  0  0  0
 22 23  1  0  0  0
 23 24  2  0  0  0
  7 25  1  0  0  0
 25 26  2  0  0  0
 26 27  1  0  0  0
 27 28  2  0  0  0
 28 29  1  0  0  0
 29 30  2  0  0  0
 28 31  1  0  0  0
 31 32  1  0  0  0
 31 33  2  0  0  0
 42 37  1  0  0  0
  6  1  1  0  0  0
 18 13  1  0  0  0
 24 19  1  0  0  0
 30 25  1  0  0  0
 11  4  1  0  0  0
 32 34  1  0  0  0
M  END
> <minimizedAffinity>
13.49120

> <CNNscore>
0.4291981459

> <CNNaffinity>
7.7012648582

> <CNN_VS>
3.3053686619

> <CNNaffinity_variance>
0.4473642409

$$$$
[H]OC(=O)c1c([H])c([H])c(N2C(=O)N(c3c([H])c([H])c(-c4c([H])c([H])c([H])c([H])c4[H])c([H])c3[H])C(=O)C23C([H])([H])C([H])([H])N(C([H])([H])c2nc([H])c([H])c([H])c2C([H])([H])[H])C([H])([H])C3([H])[H])c([H])c1[H]


 42 47  0  0  0  0  0  0  0  0999 V2000
    7.8049   21.1529   -1.4291 N   0  0  0  0  0  0  0  0  0  0  0  0
    8.0747   21.1592    0.0336 C   0  0  0  0  0  0  0  0  0  0  0  0
    9.0094   22.3006    0.2679 C   0  0  0  0  0  0  0  0  0  0  0  0
   10.2161   22.2876   -0.5776 C   0  0  0  0  0  0  0  0  0  0  0  0
   10.0796   21.6066   -1.9133 C   0  0  0  0  0  0  0  0  0  0  0  0
    9.0443   20.5401   -1.9464 C   0  0  0  0  0  0  0  0  0  0  0  0
   11.3941   21.7354    0.1138 N   0  0  0  0  0  0  0  0  0  0  0  0
   12.4850   22.2139   -0.6881 C   0  0  0  0  0  0  0  0  0  0  0  0
   13.6125   21.6304   -0.7984 O   0  0  0  0  0  0  0  0  0  0  0  0
   12.0771   23.4314   -1.3186 N   0  0  0  0  0  0  0  0  0  0  0  0
   10.7431   23.6571   -0.8776 C   0  0  0  0  0  0  0  0  0  0  0  0
   10.1797   24.7753   -0.7797 O   0  0  0  0  0  0  0  0  0  0  0  0
   12.8464   24.2461   -2.2038 C   0  0  0  0  0  0  0  0  0  0  0  0
   14.0237   23.7630   -2.7298 C   0  0  0  0  0  0  0  0  0  0  0  0
   14.7684   24.5577   -3.5925 C   0  0  0  0  0  0  0  0  0  0  0  0
   14.2820   25.8152   -3.8847 C   0  0  0  0  0  0  0  0  0  0  0  0
   13.0954   26.2830   -3.3450 C   0  0  0  0  0  0  0  0  0  0  0  0
   12.3540   25.4986   -2.4894 C   0  0  0  0  0  0  0  0  0  0  0  0
   15.0871   26.6421   -4.8049 C   0  0  0  0  0  0  0  0  0  0  0  0
   15.2317   26.2252   -6.1078 C   0  0  0  0  0  0  0  0  0  0  0  0
   15.9714   26.9594   -7.0104 C   0  0  0  0  0  0  0  0  0  0  0  0
   16.5762   28.1274   -6.6079 C   0  0  0  0  0  0  0  0  0  0  0  0
   16.4223   28.5322   -5.2988 C   0  0  0  0  0  0  0  0  0  0  0  0
   15.6897   27.8100   -4.3950 C   0  0  0  0  0  0  0  0  0  0  0  0
   11.4652   20.9349    1.2753 C   0  0  0  0  0  0  0  0  0  0  0  0
   11.4716   19.5445    1.2319 C   0  0  0  0  0  0  0  0  0  0  0  0
   11.5437   18.7821    2.3729 C   0  0  0  0  0  0  0  0  0  0  0  0
   11.6128   19.3598    3.6092 C   0  0  0  0  0  0  0  0  0  0  0  0
   11.6084   20.7175    3.6873 C   0  0  0  0  0  0  0  0  0  0  0  0
   11.5356   21.4979    2.5336 C   0  0  0  0  0  0  0  0  0  0  0  0
   11.6887   18.5168    4.7906 C   0  0  0  0  0  0  0  0  0  0  0  0
   10.5109   18.1679    5.4241 O   0  0  0  0  0  0  0  0  0  0  0  0
   12.7696   18.0894    5.2649 O   0  0  0  0  0  0  0  0  0  0  0  0
   10.0541   17.2974    5.1845 H   0  0  0  0  0  0  0  0  0  0  0  0
    6.6467   20.3526   -1.7114 C   0  0  0  0  0  0  0  0  0  0  0  0
    6.8431   17.4860   -1.7052 C   0  0  0  0  0  0  0  0  0  0  0  0
    6.3494   18.1937   -0.5102 C   0  0  0  0  0  0  0  0  0  0  0  0
    6.0013   17.4498    0.5964 C   0  0  0  0  0  0  0  0  0  0  0  0
    5.5335   18.0748    1.7389 C   0  0  0  0  0  0  0  0  0  0  0  0
    5.4357   19.4410    1.7163 C   0  0  0  0  0  0  0  0  0  0  0  0
    5.7814   20.1156    0.6310 N   0  0  0  0  0  0  0  0  0  0  0  0
    6.2419   19.5933   -0.5138 C   0  0  0  0  0  0  0  0  0  0  0  0
 36 37  1  0  0  0
 37 38  2  0  0  0
 38 39  1  0  0  0
 39 40  2  0  0  0
 40 41  1  0  0  0
 41 42  2  0  0  0
 42 35  1  0  0  0
 35  1  1  0  0  0
  1  2  1  0  0  0
  2  3  1  0  0  0
  3  4  1  0  0  0
  4  5  1  0  0  0
  5  6  1  0  0  0
  4  7  1  0  0  0
  7  8  1  0  0  0
  8  9  2  0  0  0
  8 10  1  0  0  0
 10 11  1  0  0  0
 11 12  2  0  0  0
 10 13  1  0  0  0
 13 14  2  0  0  0
 14 15  1  0  0  0
 15 16  2  0  0  0
 16 17  1  0  0  0
 17 18  2  0  0  0
 16 19  1  0  0  0
 19 20  2  0  0  0
 20 21  1  0  0  0
 21 22  2  0  0  0
 22 23  1  0  0  0
 23 24  2  0  0  0
  7 25  1  0  0  0
 25 26  2  0  0  0
 26 27  1  0  0  0
 27 28  2  0  0  0
 28 29  1  0  0  0
 29 30  2  0  0  0
 28 31  1  0  0  0
 31 32  1  0  0  0
 31 33  2  0  0  0
 42 37  1  0  0  0
  6  1  1  0  0  0
 18 13  1  0  0  0
 24 19  1  0  0  0
 30 25  1  0  0  0
 11  4  1  0  0  0
 32 34  1  0  0  0
M  END
> <minimizedAffinity>
-2.75736

> <CNNscore>
0.4251692891

> <CNNaffinity>
7.3885369301

> <CNN_VS>
3.1413788795

> <CNNaffinity_variance>
0.3169056475

$$$$
[H]OC(=O)c1c([H])c([H])c(N2C(=O)N(c3c([H])c([H])c(-c4c([H])c([H])c([H])c([H])c4[H])c([H])c3[H])C(=O)C23C([H])([H])C([H])([H])N(C([H])([H])c2nc([H])c([H])c([H])c2C([H])([H])[H])C([H])([H])C3([H])[H])c([H])c1[H]


 42 47  0  0  0  0  0  0  0  0999 V2000
   13.9293   25.6494   -3.5240 N   0  0  0  0  0  0  0  0  0  0  0  0
   15.2375   25.0963   -3.0829 C   0  0  0  0  0  0  0  0  0  0  0  0
   14.9854   23.6566   -2.7750 C   0  0  0  0  0  0  0  0  0  0  0  0
   13.8720   23.4160   -1.8402 C   0  0  0  0  0  0  0  0  0  0  0  0
   12.7827   24.4551   -1.8287 C   0  0  0  0  0  0  0  0  0  0  0  0
   13.2366   25.8127   -2.2305 C   0  0  0  0  0  0  0  0  0  0  0  0
   14.3243   23.1932   -0.4559 N   0  0  0  0  0  0  0  0  0  0  0  0
   13.1848   22.5659    0.1524 C   0  0  0  0  0  0  0  0  0  0  0  0
   12.8998   22.6296    1.3929 O   0  0  0  0  0  0  0  0  0  0  0  0
   12.4547   21.8780   -0.8673 N   0  0  0  0  0  0  0  0  0  0  0  0
   13.1773   22.1094   -2.0712 C   0  0  0  0  0  0  0  0  0  0  0  0
   13.1955   21.3549   -3.0751 O   0  0  0  0  0  0  0  0  0  0  0  0
   11.2543   21.1208   -0.7095 C   0  0  0  0  0  0  0  0  0  0  0  0
   10.1306   21.4609   -1.4291 C   0  0  0  0  0  0  0  0  0  0  0  0
    8.9651   20.7206   -1.2747 C   0  0  0  0  0  0  0  0  0  0  0  0
    8.9921   19.6614   -0.3911 C   0  0  0  0  0  0  0  0  0  0  0  0
   10.1327   19.3354    0.3238 C   0  0  0  0  0  0  0  0  0  0  0  0
   11.2903   20.0666    0.1737 C   0  0  0  0  0  0  0  0  0  0  0  0
    7.7445   18.8866   -0.2437 C   0  0  0  0  0  0  0  0  0  0  0  0
    7.5358   17.8114   -1.0760 C   0  0  0  0  0  0  0  0  0  0  0  0
    6.3890   17.0521   -0.9811 C   0  0  0  0  0  0  0  0  0  0  0  0
    5.4354   17.3694   -0.0420 C   0  0  0  0  0  0  0  0  0  0  0  0
    5.6587   18.4500    0.7850 C   0  0  0  0  0  0  0  0  0  0  0  0
    6.7943   19.2102    0.6985 C   0  0  0  0  0  0  0  0  0  0  0  0
   15.5613   23.5054    0.1501 C   0  0  0  0  0  0  0  0  0  0  0  0
   16.1727   24.7478    0.0163 C   0  0  0  0  0  0  0  0  0  0  0  0
   17.3757   25.0341    0.6155 C   0  0  0  0  0  0  0  0  0  0  0  0
   18.0293   24.1049    1.3746 C   0  0  0  0  0  0  0  0  0  0  0  0
   17.4591   22.8795    1.5257 C   0  0  0  0  0  0  0  0  0  0  0  0
   16.2382   22.5817    0.9206 C   0  0  0  0  0  0  0  0  0  0  0  0
   19.2994   24.4490    1.9915 C   0  0  0  0  0  0  0  0  0  0  0  0
   19.3339   24.6373    3.3603 O   0  0  0  0  0  0  0  0  0  0  0  0
   20.3667   24.5839    1.3445 O   0  0  0  0  0  0  0  0  0  0  0  0
   19.5776   23.8634    3.9647 H   0  0  0  0  0  0  0  0  0  0  0  0
   14.1271   26.9038   -4.1941 C   0  0  0  0  0  0  0  0  0  0  0  0
   16.3516   28.5821   -4.8946 C   0  0  0  0  0  0  0  0  0  0  0  0
   15.9183   27.5119   -5.8108 C   0  0  0  0  0  0  0  0  0  0  0  0
   16.6100   27.3369   -6.9899 C   0  0  0  0  0  0  0  0  0  0  0  0
   16.2361   26.3436   -7.8779 C   0  0  0  0  0  0  0  0  0  0  0  0
   15.1672   25.5590   -7.5343 C   0  0  0  0  0  0  0  0  0  0  0  0
   14.5318   25.7626   -6.3908 N   0  0  0  0  0  0  0  0  0  0  0  0
   14.8251   26.6972   -5.4765 C   0  0  0  0  0  0  0  0  0  0  0  0
 36 37  1  0  0  0
 37 38  2  0  0  0
 38 39  1  0  0  0
 39 40  2  0  0  0
 40 41  1  0  0  0
 41 42  2  0  0  0
 42 35  1  0  0  0
 35  1  1  0  0  0
  1  2  1  0  0  0
  2  3  1  0  0  0
  3  4  1  0  0  0
  4  5  1  0  0  0
  5  6  1  0  0  0
  4  7  1  0  0  0
  7  8  1  0  0  0
  8  9  2  0  0  0
  8 10  1  0  0  0
 10 11  1  0  0  0
 11 12  2  0  0  0
 10 13  1  0  0  0
 13 14  2  0  0  0
 14 15  1  0  0  0
 15 16  2  0  0  0
 16 17  1  0  0  0
 17 18  2  0  0  0
 16 19  1  0  0  0
 19 20  2  0  0  0
 20 21  1  0  0  0
 21 22  2  0  0  0
 22 23  1  0  0  0
 23 24  2  0  0  0
  7 25  1  0  0  0
 25 26  2  0  0  0
 26 27  1  0  0  0
 27 28  2  0  0  0
 28 29  1  0  0  0
 29 30  2  0  0  0
 28 31  1  0  0  0
 31 32  1  0  0  0
 31 33  2  0  0  0
 42 37  1  0  0  0
  6  1  1  0  0  0
 18 13  1  0  0  0
 24 19  1  0  0  0
 30 25  1  0  0  0
 11  4  1  0  0  0
 32 34  1  0  0  0
M  END
> <minimizedAffinity>
2.82927

> <CNNscore>
0.4244343042

> <CNNaffinity>
7.7007775307

> <CNN_VS>
3.2684741020

> <CNNaffinity_variance>
0.3433400691

$$$$
[H]OC(=O)c1c([H])c([H])c(N2C(=O)N(c3c([H])c([H])c(-c4c([H])c([H])c([H])c([H])c4[H])c([H])c3[H])C(=O)C23C([H])([H])C([H])([H])N(C([H])([H])c2nc([H])c([H])c([H])c2C([H])([H])[H])C([H])([H])C3([H])[H])c([H])c1[H]


 42 47  0  0  0  0  0  0  0  0999 V2000
   15.9214   22.3810    0.6351 N   0  0  0  0  0  0  0  0  0  0  0  0
   14.6871   21.5942    0.3709 C   0  0  0  0  0  0  0  0  0  0  0  0
   14.3637   21.8199   -1.0698 C   0  0  0  0  0  0  0  0  0  0  0  0
   14.2829   23.2372   -1.4647 C   0  0  0  0  0  0  0  0  0  0  0  0
   15.1143   24.1968   -0.6557 C   0  0  0  0  0  0  0  0  0  0  0  0
   15.3732   23.7479    0.7378 C   0  0  0  0  0  0  0  0  0  0  0  0
   12.8990   23.7400   -1.5145 N   0  0  0  0  0  0  0  0  0  0  0  0
   13.0222   24.9275   -2.3125 C   0  0  0  0  0  0  0  0  0  0  0  0
   12.2487   25.9371   -2.2320 O   0  0  0  0  0  0  0  0  0  0  0  0
   14.1427   24.7655   -3.1868 N   0  0  0  0  0  0  0  0  0  0  0  0
   14.6692   23.4767   -2.8919 C   0  0  0  0  0  0  0  0  0  0  0  0
   15.3080   22.7433   -3.6864 O   0  0  0  0  0  0  0  0  0  0  0  0
   14.6296   25.7004   -4.1501 C   0  0  0  0  0  0  0  0  0  0  0  0
   15.2493   26.8561   -3.7302 C   0  0  0  0  0  0  0  0  0  0  0  0
   15.7238   27.7624   -4.6704 C   0  0  0  0  0  0  0  0  0  0  0  0
   15.5471   27.4533   -6.0033 C   0  0  0  0  0  0  0  0  0  0  0  0
   14.9208   26.2852   -6.4055 C   0  0  0  0  0  0  0  0  0  0  0  0
   14.4489   25.3841   -5.4768 C   0  0  0  0  0  0  0  0  0  0  0  0
   16.0605   28.4281   -6.9855 C   0  0  0  0  0  0  0  0  0  0  0  0
   15.9581   29.7691   -6.6964 C   0  0  0  0  0  0  0  0  0  0  0  0
   16.4224   30.7228   -7.5771 C   0  0  0  0  0  0  0  0  0  0  0  0
   16.9978   30.3338   -8.7644 C   0  0  0  0  0  0  0  0  0  0  0  0
   17.0933   28.9861   -9.0401 C   0  0  0  0  0  0  0  0  0  0  0  0
   16.6352   28.0314   -8.1720 C   0  0  0  0  0  0  0  0  0  0  0  0
   11.7253   23.2096   -0.9350 C   0  0  0  0  0  0  0  0  0  0  0  0
   11.1794   23.7031    0.2456 C   0  0  0  0  0  0  0  0  0  0  0  0
   10.0348   23.1755    0.7932 C   0  0  0  0  0  0  0  0  0  0  0  0
    9.3777   22.1356    0.1985 C   0  0  0  0  0  0  0  0  0  0  0  0
    9.8849   21.6292   -0.9572 C   0  0  0  0  0  0  0  0  0  0  0  0
   11.0461   22.1595   -1.5191 C   0  0  0  0  0  0  0  0  0  0  0  0
    8.1698   21.6078    0.8106 C   0  0  0  0  0  0  0  0  0  0  0  0
    7.8791   20.2676    0.6384 O   0  0  0  0  0  0  0  0  0  0  0  0
    7.3770   22.3072    1.4876 O   0  0  0  0  0  0  0  0  0  0  0  0
    8.1800   19.5981    1.3347 H   0  0  0  0  0  0  0  0  0  0  0  0
   16.5271   21.9473    1.8625 C   0  0  0  0  0  0  0  0  0  0  0  0
   17.7020   21.7479    4.4770 C   0  0  0  0  0  0  0  0  0  0  0  0
   18.2034   22.7485    3.5178 C   0  0  0  0  0  0  0  0  0  0  0  0
   19.2445   23.5646    3.9044 C   0  0  0  0  0  0  0  0  0  0  0  0
   19.7452   24.5170    3.0342 C   0  0  0  0  0  0  0  0  0  0  0  0
   19.1673   24.6066    1.7955 C   0  0  0  0  0  0  0  0  0  0  0  0
   18.1690   23.8018    1.4665 N   0  0  0  0  0  0  0  0  0  0  0  0
   17.6244   22.8558    2.2436 C   0  0  0  0  0  0  0  0  0  0  0  0
 36 37  1  0  0  0
 37 38  2  0  0  0
 38 39  1  0  0  0
 39 40  2  0  0  0
 40 41  1  0  0  0
 41 42  2  0  0  0
 42 35  1  0  0  0
 35  1  1  0  0  0
  1  2  1  0  0  0
  2  3  1  0  0  0
  3  4  1  0  0  0
  4  5  1  0  0  0
  5  6  1  0  0  0
  4  7  1  0  0  0
  7  8  1  0  0  0
  8  9  2  0  0  0
  8 10  1  0  0  0
 10 11  1  0  0  0
 11 12  2  0  0  0
 10 13  1  0  0  0
 13 14  2  0  0  0
 14 15  1  0  0  0
 15 16  2  0  0  0
 16 17  1  0  0  0
 17 18  2  0  0  0
 16 19  1  0  0  0
 19 20  2  0  0  0
 20 21  1  0  0  0
 21 22  2  0  0  0
 22 23  1  0  0  0
 23 24  2  0  0  0
  7 25  1  0  0  0
 25 26  2  0  0  0
 26 27  1  0  0  0
 27 28  2  0  0  0
 28 29  1  0  0  0
 29 30  2  0  0  0
 28 31  1  0  0  0
 31 32  1  0  0  0
 31 33  2  0  0  0
 42 37  1  0  0  0
  6  1  1  0  0  0
 18 13  1  0  0  0
 24 19  1  0  0  0
 30 25  1  0  0  0
 11  4  1  0  0  0
 32 34  1  0  0  0
M  END
> <minimizedAffinity>
37.91117

> <CNNscore>
0.3991930783

> <CNNaffinity>
7.5220961571

> <CNN_VS>
3.0027687550

> <CNNaffinity_variance>
0.4128863811

$$$$
[H]OC(=O)c1c([H])c([H])c(N2C([H])([H])C([H])([H])C3(C(=O)N(c4c([H])c([H])c(C(F)(F)F)c([H])c4[H])C(=O)N3c3nc([H])nc(OC([H])([H])[H])c3[H])C([H])([H])C2([H])[H])c([H])c1[H]


 40 44  0  0  0  0  0  0  0  0999 V2000
   14.3921   24.9763   -2.1548 N   0  0  0  0  0  0  0  0  0  0  0  0
   15.7229   25.1587   -1.6253 C   0  0  0  0  0  0  0  0  0  0  0  0
   16.6918   25.7382   -2.2093 O   0  0  0  0  0  0  0  0  0  0  0  0
   15.8153   24.5884   -0.3369 N   0  0  0  0  0  0  0  0  0  0  0  0
   14.5361   24.0352   -0.0514 C   0  0  0  0  0  0  0  0  0  0  0  0
   14.1397   23.5885    1.0348 O   0  0  0  0  0  0  0  0  0  0  0  0
   13.6793   24.0625   -1.2966 C   0  0  0  0  0  0  0  0  0  0  0  0
   13.5563   22.6672   -1.7634 C   0  0  0  0  0  0  0  0  0  0  0  0
   12.2388   22.0241   -1.8045 C   0  0  0  0  0  0  0  0  0  0  0  0
   11.0839   22.8251   -1.4321 N   0  0  0  0  0  0  0  0  0  0  0  0
   11.2456   24.2369   -1.7714 C   0  0  0  0  0  0  0  0  0  0  0  0
   12.3694   24.6899   -0.8739 C   0  0  0  0  0  0  0  0  0  0  0  0
   14.1720   26.1822   -5.6433 C   0  0  0  0  0  0  0  0  0  0  0  0
   14.6159   25.4992   -4.5301 C   0  0  0  0  0  0  0  0  0  0  0  0
   13.9732   25.6574   -3.3244 C   0  0  0  0  0  0  0  0  0  0  0  0
   12.9217   26.4697   -3.2363 N   0  0  0  0  0  0  0  0  0  0  0  0
   12.4679   27.1443   -4.2926 C   0  0  0  0  0  0  0  0  0  0  0  0
   13.1026   26.9859   -5.4703 N   0  0  0  0  0  0  0  0  0  0  0  0
   15.9316   26.8470   -7.1776 C   0  0  0  0  0  0  0  0  0  0  0  0
   14.7708   26.0736   -6.9015 O   0  0  0  0  0  0  0  0  0  0  0  0
    9.9125   22.3207   -0.8358 C   0  0  0  0  0  0  0  0  0  0  0  0
    9.5213   21.0261   -1.0819 C   0  0  0  0  0  0  0  0  0  0  0  0
    8.3789   20.4954   -0.4900 C   0  0  0  0  0  0  0  0  0  0  0  0
    7.6053   21.2603    0.3637 C   0  0  0  0  0  0  0  0  0  0  0  0
    7.9997   22.5450    0.6021 C   0  0  0  0  0  0  0  0  0  0  0  0
    9.1316   23.0748    0.0161 C   0  0  0  0  0  0  0  0  0  0  0  0
    6.4321   20.6736    0.9660 C   0  0  0  0  0  0  0  0  0  0  0  0
    5.4881   21.3610    1.6857 O   0  0  0  0  0  0  0  0  0  0  0  0
    6.2078   19.4082    0.8478 O   0  0  0  0  0  0  0  0  0  0  0  0
    4.5052   21.2613    1.5662 H   0  0  0  0  0  0  0  0  0  0  0  0
   16.9373   24.5670    0.5512 C   0  0  0  0  0  0  0  0  0  0  0  0
   17.0865   25.5917    1.4557 C   0  0  0  0  0  0  0  0  0  0  0  0
   18.1278   25.6187    2.3284 C   0  0  0  0  0  0  0  0  0  0  0  0
   19.0817   24.6053    2.3401 C   0  0  0  0  0  0  0  0  0  0  0  0
   18.9347   23.5657    1.4279 C   0  0  0  0  0  0  0  0  0  0  0  0
   17.8560   23.5545    0.5317 C   0  0  0  0  0  0  0  0  0  0  0  0
   20.1876   24.6462    3.2922 C   0  0  0  0  0  0  0  0  0  0  0  0
   21.3472   24.1904    2.6781 F   0  0  0  0  0  0  0  0  0  0  0  0
   20.4718   25.9412    3.7173 F   0  0  0  0  0  0  0  0  0  0  0  0
   20.0190   23.8384    4.4024 F   0  0  0  0  0  0  0  0  0  0  0  0
 19 20  1  0  0  0
 20 13  1  0  0  0
 13 14  2  0  0  0
 14 15  1  0  0  0
 15 16  2  0  0  0
 16 17  1  0  0  0
 17 18  2  0  0  0
 15  1  1  0  0  0
  1  2  1  0  0  0
  2  3  2  0  0  0
  2  4  1  0  0  0
  4  5  1  0  0  0
  5  6  2  0  0  0
  5  7  1  0  0  0
  7  8  1  0  0  0
  8  9  1  0  0  0
  9 10  1  0  0  0
 10 11  1  0  0  0
 11 12  1  0  0  0
 10 21  1  0  0  0
 21 22  2  0  0  0
 22 23  1  0  0  0
 23 24  2  0  0  0
 24 25  1  0  0  0
 25 26  2  0  0  0
 24 27  1  0  0  0
 27 28  1  0  0  0
 27 29  2  0  0  0
  4 31  1  0  0  0
 31 32  2  0  0  0
 32 33  1  0  0  0
 33 34  2  0  0  0
 34 35  1  0  0  0
 35 36  2  0  0  0
 34 37  1  0  0  0
 37 38  1  0  0  0
 37 39  1  0  0  0
 37 40  1  0  0  0
 18 13  1  0  0  0
  7  1  1  0  0  0
 12  7  1  0  0  0
 26 21  1  0  0  0
 36 31  1  0  0  0
 28 30  1  0  0  0
M  END
> <minimizedAffinity>
13.92163

> <CNNscore>
0.7158925533

> <CNNaffinity>
7.8987374306

> <CNN_VS>
5.6546473503

> <CNNaffinity_variance>
0.6100017428

$$$$
[H]OC(=O)c1c([H])c([H])c(N2C([H])([H])C([H])([H])C3(C(=O)N(c4c([H])c([H])c(C(F)(F)F)c([H])c4[H])C(=O)N3c3nc([H])nc(OC([H])([H])[H])c3[H])C([H])([H])C2([H])[H])c([H])c1[H]


 40 44  0  0  0  0  0  0  0  0999 V2000
   14.3165   25.0497   -2.1232 N   0  0  0  0  0  0  0  0  0  0  0  0
   15.6376   25.2599   -1.5800 C   0  0  0  0  0  0  0  0  0  0  0  0
   16.6051   25.8453   -2.1605 O   0  0  0  0  0  0  0  0  0  0  0  0
   15.7222   24.7102   -0.2821 N   0  0  0  0  0  0  0  0  0  0  0  0
   14.4478   24.1421   -0.0043 C   0  0  0  0  0  0  0  0  0  0  0  0
   14.0444   23.7056    1.0834 O   0  0  0  0  0  0  0  0  0  0  0  0
   13.6065   24.1380   -1.2604 C   0  0  0  0  0  0  0  0  0  0  0  0
   13.5102   22.7343   -1.7077 C   0  0  0  0  0  0  0  0  0  0  0  0
   12.2030   22.0709   -1.7555 C   0  0  0  0  0  0  0  0  0  0  0  0
   11.0317   22.8599   -1.4095 N   0  0  0  0  0  0  0  0  0  0  0  0
   11.1768   24.2688   -1.7679 C   0  0  0  0  0  0  0  0  0  0  0  0
   12.2822   24.7519   -0.8634 C   0  0  0  0  0  0  0  0  0  0  0  0
   12.4834   27.2112   -4.4980 C   0  0  0  0  0  0  0  0  0  0  0  0
   12.8508   26.5936   -3.3206 C   0  0  0  0  0  0  0  0  0  0  0  0
   13.9023   25.7071   -3.3080 C   0  0  0  0  0  0  0  0  0  0  0  0
   14.5641   25.4488   -4.4344 N   0  0  0  0  0  0  0  0  0  0  0  0
   14.2342   26.0283   -5.5885 C   0  0  0  0  0  0  0  0  0  0  0  0
   13.2026   26.8947   -5.5944 N   0  0  0  0  0  0  0  0  0  0  0  0
   11.5802   29.4099   -4.0056 C   0  0  0  0  0  0  0  0  0  0  0  0
   11.4282   28.1231   -4.5913 O   0  0  0  0  0  0  0  0  0  0  0  0
    9.8606   22.3467   -0.8204 C   0  0  0  0  0  0  0  0  0  0  0  0
    9.1219   23.1321    0.0323 C   0  0  0  0  0  0  0  0  0  0  0  0
    7.9494   22.6572    0.6129 C   0  0  0  0  0  0  0  0  0  0  0  0
    7.4966   21.3783    0.3459 C   0  0  0  0  0  0  0  0  0  0  0  0
    8.2362   20.6043   -0.5008 C   0  0  0  0  0  0  0  0  0  0  0  0
    9.3999   21.0717   -1.0777 C   0  0  0  0  0  0  0  0  0  0  0  0
    6.2720   20.9230    0.9594 C   0  0  0  0  0  0  0  0  0  0  0  0
    5.7181   21.4491    2.0987 O   0  0  0  0  0  0  0  0  0  0  0  0
    5.6086   19.9481    0.4348 O   0  0  0  0  0  0  0  0  0  0  0  0
    4.7553   21.6776    2.2039 H   0  0  0  0  0  0  0  0  0  0  0  0
   16.8330   24.7189    0.6200 C   0  0  0  0  0  0  0  0  0  0  0  0
   17.6446   23.6109    0.6830 C   0  0  0  0  0  0  0  0  0  0  0  0
   18.7182   23.5669    1.5150 C   0  0  0  0  0  0  0  0  0  0  0  0
   19.0374   24.6465    2.3334 C   0  0  0  0  0  0  0  0  0  0  0  0
   18.2203   25.7703    2.2727 C   0  0  0  0  0  0  0  0  0  0  0  0
   17.1142   25.7983    1.4108 C   0  0  0  0  0  0  0  0  0  0  0  0
   20.2008   24.5848    3.2131 C   0  0  0  0  0  0  0  0  0  0  0  0
   20.5003   25.8588    3.6784 F   0  0  0  0  0  0  0  0  0  0  0  0
   19.9643   23.8159    4.3495 F   0  0  0  0  0  0  0  0  0  0  0  0
   21.3583   24.1359    2.6029 F   0  0  0  0  0  0  0  0  0  0  0  0
 19 20  1  0  0  0
 20 13  1  0  0  0
 13 14  2  0  0  0
 14 15  1  0  0  0
 15 16  2  0  0  0
 16 17  1  0  0  0
 17 18  2  0  0  0
 15  1  1  0  0  0
  1  2  1  0  0  0
  2  3  2  0  0  0
  2  4  1  0  0  0
  4  5  1  0  0  0
  5  6  2  0  0  0
  5  7  1  0  0  0
  7  8  1  0  0  0
  8  9  1  0  0  0
  9 10  1  0  0  0
 10 11  1  0  0  0
 11 12  1  0  0  0
 10 21  1  0  0  0
 21 22  2  0  0  0
 22 23  1  0  0  0
 23 24  2  0  0  0
 24 25  1  0  0  0
 25 26  2  0  0  0
 24 27  1  0  0  0
 27 28  1  0  0  0
 27 29  2  0  0  0
  4 31  1  0  0  0
 31 32  2  0  0  0
 32 33  1  0  0  0
 33 34  2  0  0  0
 34 35  1  0  0  0
 35 36  2  0  0  0
 34 37  1  0  0  0
 37 38  1  0  0  0
 37 39  1  0  0  0
 37 40  1  0  0  0
 18 13  1  0  0  0
  7  1  1  0  0  0
 12  7  1  0  0  0
 26 21  1  0  0  0
 36 31  1  0  0  0
 28 30  1  0  0  0
M  END
> <minimizedAffinity>
17.80162

> <CNNscore>
0.6891005039

> <CNNaffinity>
7.7108240128

> <CNN_VS>
5.3135328293

> <CNNaffinity_variance>
0.7997719049

$$$$
[H]OC(=O)c1c([H])c([H])c(N2C([H])([H])C([H])([H])C3(C(=O)N(c4c([H])c([H])c(C(F)(F)F)c([H])c4[H])C(=O)N3c3nc([H])nc(OC([H])([H])[H])c3[H])C([H])([H])C2([H])[H])c([H])c1[H]


 40 44  0  0  0  0  0  0  0  0999 V2000
   13.0502   27.3461   -3.5602 N   0  0  0  0  0  0  0  0  0  0  0  0
   14.3756   27.7285   -3.9862 C   0  0  0  0  0  0  0  0  0  0  0  0
   14.6600   28.5862   -4.8803 O   0  0  0  0  0  0  0  0  0  0  0  0
   15.3468   27.0016   -3.2636 N   0  0  0  0  0  0  0  0  0  0  0  0
   14.6311   26.1480   -2.3787 C   0  0  0  0  0  0  0  0  0  0  0  0
   15.0992   25.4655   -1.4559 O   0  0  0  0  0  0  0  0  0  0  0  0
   13.1585   26.1795   -2.7192 C   0  0  0  0  0  0  0  0  0  0  0  0
   12.8332   24.8789   -3.3375 C   0  0  0  0  0  0  0  0  0  0  0  0
   11.8740   23.9802   -2.6867 C   0  0  0  0  0  0  0  0  0  0  0  0
   11.2305   24.4461   -1.4689 N   0  0  0  0  0  0  0  0  0  0  0  0
   11.0388   25.8944   -1.4528 C   0  0  0  0  0  0  0  0  0  0  0  0
   12.4451   26.4369   -1.4104 C   0  0  0  0  0  0  0  0  0  0  0  0
    9.8569   28.3260   -5.1460 C   0  0  0  0  0  0  0  0  0  0  0  0
   10.9482   27.5635   -4.7850 C   0  0  0  0  0  0  0  0  0  0  0  0
   11.9129   28.0912   -3.9587 C   0  0  0  0  0  0  0  0  0  0  0  0
   11.7889   29.3381   -3.5081 N   0  0  0  0  0  0  0  0  0  0  0  0
   10.7471   30.1012   -3.8383 C   0  0  0  0  0  0  0  0  0  0  0  0
    9.8063   29.5789   -4.6489 N   0  0  0  0  0  0  0  0  0  0  0  0
    7.5889   28.5442   -5.9832 C   0  0  0  0  0  0  0  0  0  0  0  0
    8.8361   27.8612   -5.9798 O   0  0  0  0  0  0  0  0  0  0  0  0
   10.8013   23.6154   -0.4165 C   0  0  0  0  0  0  0  0  0  0  0  0
   10.8638   24.0656    0.8808 C   0  0  0  0  0  0  0  0  0  0  0  0
   10.4276   23.2730    1.9386 C   0  0  0  0  0  0  0  0  0  0  0  0
    9.9189   22.0077    1.7103 C   0  0  0  0  0  0  0  0  0  0  0  0
    9.8612   21.5674    0.4197 C   0  0  0  0  0  0  0  0  0  0  0  0
   10.2936   22.3504   -0.6317 C   0  0  0  0  0  0  0  0  0  0  0  0
    9.4682   21.2177    2.8311 C   0  0  0  0  0  0  0  0  0  0  0  0
    8.1563   21.0226    3.1811 O   0  0  0  0  0  0  0  0  0  0  0  0
   10.3259   20.6288    3.5946 O   0  0  0  0  0  0  0  0  0  0  0  0
    7.7609   20.1404    3.4171 H   0  0  0  0  0  0  0  0  0  0  0  0
   16.7726   27.0876   -3.3495 C   0  0  0  0  0  0  0  0  0  0  0  0
   17.3309   27.9772   -4.2368 C   0  0  0  0  0  0  0  0  0  0  0  0
   18.6784   28.1073   -4.3546 C   0  0  0  0  0  0  0  0  0  0  0  0
   19.5444   27.3445   -3.5765 C   0  0  0  0  0  0  0  0  0  0  0  0
   18.9848   26.4440   -2.6764 C   0  0  0  0  0  0  0  0  0  0  0  0
   17.5920   26.3196   -2.5695 C   0  0  0  0  0  0  0  0  0  0  0  0
   20.9892   27.5057   -3.7097 C   0  0  0  0  0  0  0  0  0  0  0  0
   21.6293   26.8365   -2.6743 F   0  0  0  0  0  0  0  0  0  0  0  0
   21.4787   26.9382   -4.8830 F   0  0  0  0  0  0  0  0  0  0  0  0
   21.4304   28.8143   -3.6283 F   0  0  0  0  0  0  0  0  0  0  0  0
 19 20  1  0  0  0
 20 13  1  0  0  0
 13 14  2  0  0  0
 14 15  1  0  0  0
 15 16  2  0  0  0
 16 17  1  0  0  0
 17 18  2  0  0  0
 15  1  1  0  0  0
  1  2  1  0  0  0
  2  3  2  0  0  0
  2  4  1  0  0  0
  4  5  1  0  0  0
  5  6  2  0  0  0
  5  7  1  0  0  0
  7  8  1  0  0  0
  8  9  1  0  0  0
  9 10  1  0  0  0
 10 11  1  0  0  0
 11 12  1  0  0  0
 10 21  1  0  0  0
 21 22  2  0  0  0
 22 23  1  0  0  0
 23 24  2  0  0  0
 24 25  1  0  0  0
 25 26  2  0  0  0
 24 27  1  0  0  0
 27 28  1  0  0  0
 27 29  2  0  0  0
  4 31  1  0  0  0
 31 32  2  0  0  0
 32 33  1  0  0  0
 33 34  2  0  0  0
 34 35  1  0  0  0
 35 36  2  0  0  0
 34 37  1  0  0  0
 37 38  1  0  0  0
 37 39  1  0  0  0
 37 40  1  0  0  0
 18 13  1  0  0  0
  7  1  1  0  0  0
 12  7  1  0  0  0
 26 21  1  0  0  0
 36 31  1  0  0  0
 28 30  1  0  0  0
M  END
> <minimizedAffinity>
32.14848

> <CNNscore>
0.5775304437

> <CNNaffinity>
6.9886655807

> <CNN_VS>
4.0361671448

> <CNNaffinity_variance>
1.1764638424

$$$$
[H]OC(=O)c1c([H])c([H])c(N2C([H])([H])C([H])([H])C3(C(=O)N(c4c([H])c([H])c(C(F)(F)F)c([H])c4[H])C(=O)N3c3nc([H])nc(OC([H])([H])[H])c3[H])C([H])([H])C2([H])[H])c([H])c1[H]


 40 44  0  0  0  0  0  0  0  0999 V2000
   15.1887   23.9205   -0.6345 N   0  0  0  0  0  0  0  0  0  0  0  0
   15.8070   24.4263   -1.8371 C   0  0  0  0  0  0  0  0  0  0  0  0
   17.0398   24.6931   -1.9940 O   0  0  0  0  0  0  0  0  0  0  0  0
   14.8357   24.5972   -2.8477 N   0  0  0  0  0  0  0  0  0  0  0  0
   13.5927   24.2032   -2.2788 C   0  0  0  0  0  0  0  0  0  0  0  0
   12.5159   24.0433   -2.8715 O   0  0  0  0  0  0  0  0  0  0  0  0
   13.7568   23.9926   -0.7908 C   0  0  0  0  0  0  0  0  0  0  0  0
   13.0682   25.1133   -0.1203 C   0  0  0  0  0  0  0  0  0  0  0  0
   11.9180   24.8481    0.7502 C   0  0  0  0  0  0  0  0  0  0  0  0
   11.5379   23.4610    0.9639 N   0  0  0  0  0  0  0  0  0  0  0  0
   12.6812   22.5523    0.9259 C   0  0  0  0  0  0  0  0  0  0  0  0
   13.1522   22.6360   -0.5041 C   0  0  0  0  0  0  0  0  0  0  0  0
   17.7842   23.6463    1.9847 C   0  0  0  0  0  0  0  0  0  0  0  0
   17.0485   24.1497    0.9320 C   0  0  0  0  0  0  0  0  0  0  0  0
   15.9741   23.4433    0.4438 C   0  0  0  0  0  0  0  0  0  0  0  0
   15.6465   22.2743    0.9911 N   0  0  0  0  0  0  0  0  0  0  0  0
   16.3367   21.7600    2.0087 C   0  0  0  0  0  0  0  0  0  0  0  0
   17.3887   22.4563    2.4815 N   0  0  0  0  0  0  0  0  0  0  0  0
   20.0001   24.5955    1.7004 C   0  0  0  0  0  0  0  0  0  0  0  0
   18.8871   24.3043    2.5361 O   0  0  0  0  0  0  0  0  0  0  0  0
   10.2258   23.0147    1.2117 C   0  0  0  0  0  0  0  0  0  0  0  0
   10.0086   21.9801    2.0904 C   0  0  0  0  0  0  0  0  0  0  0  0
    8.7206   21.5321    2.3692 C   0  0  0  0  0  0  0  0  0  0  0  0
    7.6229   22.1184    1.7665 C   0  0  0  0  0  0  0  0  0  0  0  0
    7.8469   23.1442    0.8945 C   0  0  0  0  0  0  0  0  0  0  0  0
    9.1228   23.5906    0.6150 C   0  0  0  0  0  0  0  0  0  0  0  0
    6.3017   21.6331    2.0864 C   0  0  0  0  0  0  0  0  0  0  0  0
    5.8204   21.4357    3.3557 O   0  0  0  0  0  0  0  0  0  0  0  0
    5.4705   21.3477    1.1414 O   0  0  0  0  0  0  0  0  0  0  0  0
    4.9250   21.7334    3.6717 H   0  0  0  0  0  0  0  0  0  0  0  0
   15.0180   25.0480   -4.1936 C   0  0  0  0  0  0  0  0  0  0  0  0
   15.6275   24.2095   -5.0968 C   0  0  0  0  0  0  0  0  0  0  0  0
   15.8190   24.5817   -6.3897 C   0  0  0  0  0  0  0  0  0  0  0  0
   15.4009   25.8276   -6.8481 C   0  0  0  0  0  0  0  0  0  0  0  0
   14.7826   26.6791   -5.9387 C   0  0  0  0  0  0  0  0  0  0  0  0
   14.5954   26.2810   -4.6070 C   0  0  0  0  0  0  0  0  0  0  0  0
   15.6059   26.2056   -8.2431 C   0  0  0  0  0  0  0  0  0  0  0  0
   14.4040   26.1094   -8.9326 F   0  0  0  0  0  0  0  0  0  0  0  0
   16.0112   27.5308   -8.3778 F   0  0  0  0  0  0  0  0  0  0  0  0
   16.4901   25.3956   -8.9330 F   0  0  0  0  0  0  0  0  0  0  0  0
 19 20  1  0  0  0
 20 13  1  0  0  0
 13 14  2  0  0  0
 14 15  1  0  0  0
 15 16  2  0  0  0
 16 17  1  0  0  0
 17 18  2  0  0  0
 15  1  1  0  0  0
  1  2  1  0  0  0
  2  3  2  0  0  0
  2  4  1  0  0  0
  4  5  1  0  0  0
  5  6  2  0  0  0
  5  7  1  0  0  0
  7  8  1  0  0  0
  8  9  1  0  0  0
  9 10  1  0  0  0
 10 11  1  0  0  0
 11 12  1  0  0  0
 10 21  1  0  0  0
 21 22  2  0  0  0
 22 23  1  0  0  0
 23 24  2  0  0  0
 24 25  1  0  0  0
 25 26  2  0  0  0
 24 27  1  0  0  0
 27 28  1  0  0  0
 27 29  2  0  0  0
  4 31  1  0  0  0
 31 32  2  0  0  0
 32 33  1  0  0  0
 33 34  2  0  0  0
 34 35  1  0  0  0
 35 36  2  0  0  0
 34 37  1  0  0  0
 37 38  1  0  0  0
 37 39  1  0  0  0
 37 40  1  0  0  0
 18 13  1  0  0  0
  7  1  1  0  0  0
 12  7  1  0  0  0
 26 21  1  0  0  0
 36 31  1  0  0  0
 28 30  1  0  0  0
M  END
> <minimizedAffinity>
6.59725

> <CNNscore>
0.5656194687

> <CNNaffinity>
7.5565171242

> <CNN_VS>
4.2741131783

> <CNNaffinity_variance>
0.3249773383

$$$$
[H]OC(=O)c1c([H])c([H])c(N2C([H])([H])C([H])([H])C3(C(=O)N(c4c([H])c([H])c(C(F)(F)F)c([H])c4[H])C(=O)N3c3nc([H])nc(OC([H])([H])[H])c3[H])C([H])([H])C2([H])[H])c([H])c1[H]


 40 44  0  0  0  0  0  0  0  0999 V2000
   14.4194   25.2954   -1.0958 N   0  0  0  0  0  0  0  0  0  0  0  0
   15.1517   25.7434   -2.2566 C   0  0  0  0  0  0  0  0  0  0  0  0
   16.1057   26.5835   -2.2661 O   0  0  0  0  0  0  0  0  0  0  0  0
   14.6540   25.1131   -3.4180 N   0  0  0  0  0  0  0  0  0  0  0  0
   13.5947   24.2652   -2.9903 C   0  0  0  0  0  0  0  0  0  0  0  0
   12.9997   23.4128   -3.6655 O   0  0  0  0  0  0  0  0  0  0  0  0
   13.2706   24.5457   -1.5406 C   0  0  0  0  0  0  0  0  0  0  0  0
   11.9696   25.2433   -1.5191 C   0  0  0  0  0  0  0  0  0  0  0  0
   10.8188   24.6227   -0.8544 C   0  0  0  0  0  0  0  0  0  0  0  0
   11.0314   23.3506   -0.1829 N   0  0  0  0  0  0  0  0  0  0  0  0
   12.3794   23.2226    0.3656 C   0  0  0  0  0  0  0  0  0  0  0  0
   13.2586   23.1953   -0.8591 C   0  0  0  0  0  0  0  0  0  0  0  0
   14.7232   26.7869    2.2740 C   0  0  0  0  0  0  0  0  0  0  0  0
   14.2469   26.5285    1.0055 C   0  0  0  0  0  0  0  0  0  0  0  0
   14.8729   25.5950    0.2126 C   0  0  0  0  0  0  0  0  0  0  0  0
   15.9376   24.9417    0.6740 N   0  0  0  0  0  0  0  0  0  0  0  0
   16.4230   25.1680    1.8945 C   0  0  0  0  0  0  0  0  0  0  0  0
   15.8061   26.0844    2.6656 N   0  0  0  0  0  0  0  0  0  0  0  0
   12.8649   28.2524    2.8134 C   0  0  0  0  0  0  0  0  0  0  0  0
   14.1422   27.7187    3.1385 O   0  0  0  0  0  0  0  0  0  0  0  0
   10.0570   22.3452   -0.0356 C   0  0  0  0  0  0  0  0  0  0  0  0
   10.1226   21.2093   -0.8070 C   0  0  0  0  0  0  0  0  0  0  0  0
    9.1842   20.1907   -0.6681 C   0  0  0  0  0  0  0  0  0  0  0  0
    8.1581   20.2964    0.2528 C   0  0  0  0  0  0  0  0  0  0  0  0
    8.0991   21.4277    1.0141 C   0  0  0  0  0  0  0  0  0  0  0  0
    9.0275   22.4401    0.8784 C   0  0  0  0  0  0  0  0  0  0  0  0
    7.2084   19.2164    0.3750 C   0  0  0  0  0  0  0  0  0  0  0  0
    7.1905   18.0902   -0.4079 O   0  0  0  0  0  0  0  0  0  0  0  0
    6.2842   19.2657    1.2745 O   0  0  0  0  0  0  0  0  0  0  0  0
    7.0893   17.1633   -0.0600 H   0  0  0  0  0  0  0  0  0  0  0  0
   15.1054   25.2473   -4.7693 C   0  0  0  0  0  0  0  0  0  0  0  0
   15.0393   26.4819   -5.3709 C   0  0  0  0  0  0  0  0  0  0  0  0
   15.4616   26.6695   -6.6488 C   0  0  0  0  0  0  0  0  0  0  0  0
   15.9807   25.6160   -7.3958 C   0  0  0  0  0  0  0  0  0  0  0  0
   16.0510   24.3653   -6.7915 C   0  0  0  0  0  0  0  0  0  0  0  0
   15.6079   24.1879   -5.4727 C   0  0  0  0  0  0  0  0  0  0  0  0
   16.4391   25.8392   -8.7637 C   0  0  0  0  0  0  0  0  0  0  0  0
   16.9434   27.1281   -8.8809 F   0  0  0  0  0  0  0  0  0  0  0  0
   17.4870   24.9924   -9.1150 F   0  0  0  0  0  0  0  0  0  0  0  0
   15.4475   25.7449   -9.7237 F   0  0  0  0  0  0  0  0  0  0  0  0
 19 20  1  0  0  0
 20 13  1  0  0  0
 13 14  2  0  0  0
 14 15  1  0  0  0
 15 16  2  0  0  0
 16 17  1  0  0  0
 17 18  2  0  0  0
 15  1  1  0  0  0
  1  2  1  0  0  0
  2  3  2  0  0  0
  2  4  1  0  0  0
  4  5  1  0  0  0
  5  6  2  0  0  0
  5  7  1  0  0  0
  7  8  1  0  0  0
  8  9  1  0  0  0
  9 10  1  0  0  0
 10 11  1  0  0  0
 11 12  1  0  0  0
 10 21  1  0  0  0
 21 22  2  0  0  0
 22 23  1  0  0  0
 23 24  2  0  0  0
 24 25  1  0  0  0
 25 26  2  0  0  0
 24 27  1  0  0  0
 27 28  1  0  0  0
 27 29  2  0  0  0
  4 31  1  0  0  0
 31 32  2  0  0  0
 32 33  1  0  0  0
 33 34  2  0  0  0
 34 35  1  0  0  0
 35 36  2  0  0  0
 34 37  1  0  0  0
 37 38  1  0  0  0
 37 39  1  0  0  0
 37 40  1  0  0  0
 18 13  1  0  0  0
  7  1  1  0  0  0
 12  7  1  0  0  0
 26 21  1  0  0  0
 36 31  1  0  0  0
 28 30  1  0  0  0
M  END
> <minimizedAffinity>
20.45686

> <CNNscore>
0.5458939075

> <CNNaffinity>
7.1961975098

> <CNN_VS>
3.9283604622

> <CNNaffinity_variance>
0.6260655522

$$$$
[H]OC(=O)c1c([H])c([H])c(N2C([H])([H])C([H])([H])C3(C(=O)N(c4c([H])c([H])c(C(F)(F)F)c([H])c4[H])C(=O)N3c3nc([H])nc(OC([H])([H])[H])c3[H])C([H])([H])C2([H])[H])c([H])c1[H]


 40 44  0  0  0  0  0  0  0  0999 V2000
   15.2936   24.1500   -0.9934 N   0  0  0  0  0  0  0  0  0  0  0  0
   16.0049   24.7583   -2.0928 C   0  0  0  0  0  0  0  0  0  0  0  0
   17.2425   25.0470   -2.1200 O   0  0  0  0  0  0  0  0  0  0  0  0
   15.1213   25.0043   -3.1664 N   0  0  0  0  0  0  0  0  0  0  0  0
   13.8402   24.5548   -2.7413 C   0  0  0  0  0  0  0  0  0  0  0  0
   12.8207   24.4357   -3.4361 O   0  0  0  0  0  0  0  0  0  0  0  0
   13.8795   24.2234   -1.2668 C   0  0  0  0  0  0  0  0  0  0  0  0
   13.1191   25.2794   -0.5693 C   0  0  0  0  0  0  0  0  0  0  0  0
   11.9027   24.9340    0.1738 C   0  0  0  0  0  0  0  0  0  0  0  0
   11.5266   23.5310    0.2399 N   0  0  0  0  0  0  0  0  0  0  0  0
   12.6826   22.6377    0.2271 C   0  0  0  0  0  0  0  0  0  0  0  0
   13.2730   22.8429   -1.1451 C   0  0  0  0  0  0  0  0  0  0  0  0
   16.5605   21.7674    1.5345 C   0  0  0  0  0  0  0  0  0  0  0  0
   15.8609   22.2679    0.4561 C   0  0  0  0  0  0  0  0  0  0  0  0
   15.9909   23.5917    0.1063 C   0  0  0  0  0  0  0  0  0  0  0  0
   16.7943   24.3867    0.8104 N   0  0  0  0  0  0  0  0  0  0  0  0
   17.4838   23.9347    1.8577 C   0  0  0  0  0  0  0  0  0  0  0  0
   17.3512   22.6374    2.1959 N   0  0  0  0  0  0  0  0  0  0  0  0
   15.7731   19.5050    1.1426 C   0  0  0  0  0  0  0  0  0  0  0  0
   16.4819   20.4356    1.9510 O   0  0  0  0  0  0  0  0  0  0  0  0
   10.2051   23.0553    0.3360 C   0  0  0  0  0  0  0  0  0  0  0  0
    9.1804   23.9298    0.6096 C   0  0  0  0  0  0  0  0  0  0  0  0
    7.8623   23.4900    0.6903 C   0  0  0  0  0  0  0  0  0  0  0  0
    7.5492   22.1571    0.4970 C   0  0  0  0  0  0  0  0  0  0  0  0
    8.5722   21.2949    0.2269 C   0  0  0  0  0  0  0  0  0  0  0  0
    9.8806   21.7274    0.1469 C   0  0  0  0  0  0  0  0  0  0  0  0
    6.1701   21.7391    0.5798 C   0  0  0  0  0  0  0  0  0  0  0  0
    5.2525   21.8436   -0.4344 O   0  0  0  0  0  0  0  0  0  0  0  0
    5.7152   21.2209    1.6707 O   0  0  0  0  0  0  0  0  0  0  0  0
    4.6298   21.1174   -0.7084 H   0  0  0  0  0  0  0  0  0  0  0  0
   15.4114   25.5661   -4.4502 C   0  0  0  0  0  0  0  0  0  0  0  0
   15.5984   24.7196   -5.5173 C   0  0  0  0  0  0  0  0  0  0  0  0
   15.8679   25.1977   -6.7605 C   0  0  0  0  0  0  0  0  0  0  0  0
   15.9614   26.5656   -6.9994 C   0  0  0  0  0  0  0  0  0  0  0  0
   15.7718   27.4263   -5.9235 C   0  0  0  0  0  0  0  0  0  0  0  0
   15.4976   26.9166   -4.6460 C   0  0  0  0  0  0  0  0  0  0  0  0
   16.2413   27.0607   -8.3439 C   0  0  0  0  0  0  0  0  0  0  0  0
   15.2650   26.6046   -9.2203 F   0  0  0  0  0  0  0  0  0  0  0  0
   16.1918   28.4503   -8.4167 F   0  0  0  0  0  0  0  0  0  0  0  0
   17.4427   26.6280   -8.8761 F   0  0  0  0  0  0  0  0  0  0  0  0
 19 20  1  0  0  0
 20 13  1  0  0  0
 13 14  2  0  0  0
 14 15  1  0  0  0
 15 16  2  0  0  0
 16 17  1  0  0  0
 17 18  2  0  0  0
 15  1  1  0  0  0
  1  2  1  0  0  0
  2  3  2  0  0  0
  2  4  1  0  0  0
  4  5  1  0  0  0
  5  6  2  0  0  0
  5  7  1  0  0  0
  7  8  1  0  0  0
  8  9  1  0  0  0
  9 10  1  0  0  0
 10 11  1  0  0  0
 11 12  1  0  0  0
 10 21  1  0  0  0
 21 22  2  0  0  0
 22 23  1  0  0  0
 23 24  2  0  0  0
 24 25  1  0  0  0
 25 26  2  0  0  0
 24 27  1  0  0  0
 27 28  1  0  0  0
 27 29  2  0  0  0
  4 31  1  0  0  0
 31 32  2  0  0  0
 32 33  1  0  0  0
 33 34  2  0  0  0
 34 35  1  0  0  0
 35 36  2  0  0  0
 34 37  1  0  0  0
 37 38  1  0  0  0
 37 39  1  0  0  0
 37 40  1  0  0  0
 18 13  1  0  0  0
  7  1  1  0  0  0
 12  7  1  0  0  0
 26 21  1  0  0  0
 36 31  1  0  0  0
 28 30  1  0  0  0
M  END
> <minimizedAffinity>
10.75967

> <CNNscore>
0.5242522955

> <CNNaffinity>
7.5670804977

> <CNN_VS>
3.9670593739

> <CNNaffinity_variance>
0.4468700290

$$$$
[H]OC(=O)c1c([H])c([H])c(N2C([H])([H])C([H])([H])C3(C(=O)N(c4c([H])c([H])c(C(F)(F)F)c([H])c4[H])C(=O)N3c3nc([H])nc(OC([H])([H])[H])c3[H])C([H])([H])C2([H])[H])c([H])c1[H]


 40 44  0  0  0  0  0  0  0  0999 V2000
   12.4593   22.7965    0.9396 N   0  0  0  0  0  0  0  0  0  0  0  0
   11.3680   22.8814    1.8811 C   0  0  0  0  0  0  0  0  0  0  0  0
   11.0730   22.0220    2.7701 O   0  0  0  0  0  0  0  0  0  0  0  0
   10.6438   24.0765    1.6788 N   0  0  0  0  0  0  0  0  0  0  0  0
   11.2769   24.7498    0.5972 C   0  0  0  0  0  0  0  0  0  0  0  0
   11.0608   25.9061    0.2066 O   0  0  0  0  0  0  0  0  0  0  0  0
   12.2953   23.8363   -0.0461 C   0  0  0  0  0  0  0  0  0  0  0  0
   11.7442   23.4337   -1.3552 C   0  0  0  0  0  0  0  0  0  0  0  0
   12.4431   23.8091   -2.5888 C   0  0  0  0  0  0  0  0  0  0  0  0
   13.7028   24.5239   -2.4609 N   0  0  0  0  0  0  0  0  0  0  0  0
   14.4427   24.1489   -1.2583 C   0  0  0  0  0  0  0  0  0  0  0  0
   13.5688   24.6479   -0.1353 C   0  0  0  0  0  0  0  0  0  0  0  0
   15.7573   21.1605    1.2844 C   0  0  0  0  0  0  0  0  0  0  0  0
   14.8056   22.1488    1.1421 C   0  0  0  0  0  0  0  0  0  0  0  0
   13.4722   21.8164    1.0841 C   0  0  0  0  0  0  0  0  0  0  0  0
   13.1040   20.5394    1.1672 N   0  0  0  0  0  0  0  0  0  0  0  0
   13.9984   19.5607    1.3047 C   0  0  0  0  0  0  0  0  0  0  0  0
   15.3028   19.8928    1.3596 N   0  0  0  0  0  0  0  0  0  0  0  0
   17.5958   22.7296    1.0605 C   0  0  0  0  0  0  0  0  0  0  0  0
   17.1293   21.4183    1.3519 O   0  0  0  0  0  0  0  0  0  0  0  0
   14.1963   25.4584   -3.3911 C   0  0  0  0  0  0  0  0  0  0  0  0
   15.5494   25.5544   -3.6136 C   0  0  0  0  0  0  0  0  0  0  0  0
   16.0632   26.4553   -4.5420 C   0  0  0  0  0  0  0  0  0  0  0  0
   15.2221   27.2799   -5.2663 C   0  0  0  0  0  0  0  0  0  0  0  0
   13.8800   27.1794   -5.0388 C   0  0  0  0  0  0  0  0  0  0  0  0
   13.3672   26.2877   -4.1184 C   0  0  0  0  0  0  0  0  0  0  0  0
   15.7901   28.1957   -6.2265 C   0  0  0  0  0  0  0  0  0  0  0  0
   15.8841   29.5541   -6.0603 O   0  0  0  0  0  0  0  0  0  0  0  0
   16.2596   27.7529   -7.3441 O   0  0  0  0  0  0  0  0  0  0  0  0
   16.6998   30.0906   -6.2530 H   0  0  0  0  0  0  0  0  0  0  0  0
    9.5118   24.5677    2.4036 C   0  0  0  0  0  0  0  0  0  0  0  0
    9.6523   25.7073    3.1598 C   0  0  0  0  0  0  0  0  0  0  0  0
    8.6094   26.2234    3.8617 C   0  0  0  0  0  0  0  0  0  0  0  0
    7.3570   25.6169    3.8375 C   0  0  0  0  0  0  0  0  0  0  0  0
    7.2091   24.4645    3.0730 C   0  0  0  0  0  0  0  0  0  0  0  0
    8.2965   23.9429    2.3570 C   0  0  0  0  0  0  0  0  0  0  0  0
    6.2458   26.1920    4.5897 C   0  0  0  0  0  0  0  0  0  0  0  0
    6.7192   27.1970    5.4235 F   0  0  0  0  0  0  0  0  0  0  0  0
    5.3066   26.8017    3.7623 F   0  0  0  0  0  0  0  0  0  0  0  0
    5.5949   25.3004    5.4234 F   0  0  0  0  0  0  0  0  0  0  0  0
 19 20  1  0  0  0
 20 13  1  0  0  0
 13 14  2  0  0  0
 14 15  1  0  0  0
 15 16  2  0  0  0
 16 17  1  0  0  0
 17 18  2  0  0  0
 15  1  1  0  0  0
  1  2  1  0  0  0
  2  3  2  0  0  0
  2  4  1  0  0  0
  4  5  1  0  0  0
  5  6  2  0  0  0
  5  7  1  0  0  0
  7  8  1  0  0  0
  8  9  1  0  0  0
  9 10  1  0  0  0
 10 11  1  0  0  0
 11 12  1  0  0  0
 10 21  1  0  0  0
 21 22  2  0  0  0
 22 23  1  0  0  0
 23 24  2  0  0  0
 24 25  1  0  0  0
 25 26  2  0  0  0
 24 27  1  0  0  0
 27 28  1  0  0  0
 27 29  2  0  0  0
  4 31  1  0  0  0
 31 32  2  0  0  0
 32 33  1  0  0  0
 33 34  2  0  0  0
 34 35  1  0  0  0
 35 36  2  0  0  0
 34 37  1  0  0  0
 37 38  1  0  0  0
 37 39  1  0  0  0
 37 40  1  0  0  0
 18 13  1  0  0  0
  7  1  1  0  0  0
 12  7  1  0  0  0
 26 21  1  0  0  0
 36 31  1  0  0  0
 28 30  1  0  0  0
M  END
> <minimizedAffinity>
1.91723

> <CNNscore>
0.5190228224

> <CNNaffinity>
7.2394700050

> <CNN_VS>
3.7574501038

> <CNNaffinity_variance>
0.4036414027

$$$$
[H]OC(=O)c1c([H])c([H])c(N2C([H])([H])C([H])([H])C3(C(=O)N(c4c([H])c([H])c(C(F)(F)F)c([H])c4[H])C(=O)N3c3nc([H])nc(OC([H])([H])[H])c3[H])C([H])([H])C2([H])[H])c([H])c1[H]


 40 44  0  0  0  0  0  0  0  0999 V2000
   15.0332   24.2866   -0.8111 N   0  0  0  0  0  0  0  0  0  0  0  0
   15.7602   25.1521   -1.7093 C   0  0  0  0  0  0  0  0  0  0  0  0
   17.0078   25.3936   -1.6758 O   0  0  0  0  0  0  0  0  0  0  0  0
   14.8798   25.7184   -2.6570 N   0  0  0  0  0  0  0  0  0  0  0  0
   13.5853   25.2131   -2.3524 C   0  0  0  0  0  0  0  0  0  0  0  0
   12.5575   25.3281   -3.0357 O   0  0  0  0  0  0  0  0  0  0  0  0
   13.6212   24.4825   -1.0294 C   0  0  0  0  0  0  0  0  0  0  0  0
   12.9062   25.3279   -0.0529 C   0  0  0  0  0  0  0  0  0  0  0  0
   11.6822   24.8316    0.5850 C   0  0  0  0  0  0  0  0  0  0  0  0
   11.2533   23.4799    0.2641 N   0  0  0  0  0  0  0  0  0  0  0  0
   12.3743   22.5858   -0.0163 C   0  0  0  0  0  0  0  0  0  0  0  0
   12.9633   23.1449   -1.2868 C   0  0  0  0  0  0  0  0  0  0  0  0
   16.0033   21.3153    1.1644 C   0  0  0  0  0  0  0  0  0  0  0  0
   15.3070   22.1237    0.2901 C   0  0  0  0  0  0  0  0  0  0  0  0
   15.7157   23.4197    0.0779 C   0  0  0  0  0  0  0  0  0  0  0  0
   16.7850   23.8899    0.7173 N   0  0  0  0  0  0  0  0  0  0  0  0
   17.4793   23.1351    1.5686 C   0  0  0  0  0  0  0  0  0  0  0  0
   17.0732   21.8670    1.7730 N   0  0  0  0  0  0  0  0  0  0  0  0
   14.2903   19.6005    1.2962 C   0  0  0  0  0  0  0  0  0  0  0  0
   15.6513   19.9894    1.4319 O   0  0  0  0  0  0  0  0  0  0  0  0
    9.9152   23.0426    0.2460 C   0  0  0  0  0  0  0  0  0  0  0  0
    9.6051   21.8074   -0.2712 C   0  0  0  0  0  0  0  0  0  0  0  0
    8.2934   21.3418   -0.2834 C   0  0  0  0  0  0  0  0  0  0  0  0
    7.2653   22.1133    0.2262 C   0  0  0  0  0  0  0  0  0  0  0  0
    7.5811   23.3390    0.7369 C   0  0  0  0  0  0  0  0  0  0  0  0
    8.8806   23.8043    0.7498 C   0  0  0  0  0  0  0  0  0  0  0  0
    5.9187   21.5941    0.2045 C   0  0  0  0  0  0  0  0  0  0  0  0
    5.2484   21.0960    1.2927 O   0  0  0  0  0  0  0  0  0  0  0  0
    5.2501   21.5743   -0.8992 O   0  0  0  0  0  0  0  0  0  0  0  0
    4.3097   21.3257    1.5303 H   0  0  0  0  0  0  0  0  0  0  0  0
   15.1829   26.6054   -3.7383 C   0  0  0  0  0  0  0  0  0  0  0  0
   15.9005   27.7486   -3.4767 C   0  0  0  0  0  0  0  0  0  0  0  0
   16.2241   28.6224   -4.4659 C   0  0  0  0  0  0  0  0  0  0  0  0
   15.8423   28.3891   -5.7838 C   0  0  0  0  0  0  0  0  0  0  0  0
   15.1172   27.2334   -6.0540 C   0  0  0  0  0  0  0  0  0  0  0  0
   14.7887   26.3434   -5.0210 C   0  0  0  0  0  0  0  0  0  0  0  0
   16.2082   29.3341   -6.8346 C   0  0  0  0  0  0  0  0  0  0  0  0
   17.4480   29.8910   -6.5483 F   0  0  0  0  0  0  0  0  0  0  0  0
   16.3510   28.7170   -8.0745 F   0  0  0  0  0  0  0  0  0  0  0  0
   15.3458   30.4076   -6.9665 F   0  0  0  0  0  0  0  0  0  0  0  0
 19 20  1  0  0  0
 20 13  1  0  0  0
 13 14  2  0  0  0
 14 15  1  0  0  0
 15 16  2  0  0  0
 16 17  1  0  0  0
 17 18  2  0  0  0
 15  1  1  0  0  0
  1  2  1  0  0  0
  2  3  2  0  0  0
  2  4  1  0  0  0
  4  5  1  0  0  0
  5  6  2  0  0  0
  5  7  1  0  0  0
  7  8  1  0  0  0
  8  9  1  0  0  0
  9 10  1  0  0  0
 10 11  1  0  0  0
 11 12  1  0  0  0
 10 21  1  0  0  0
 21 22  2  0  0  0
 22 23  1  0  0  0
 23 24  2  0  0  0
 24 25  1  0  0  0
 25 26  2  0  0  0
 24 27  1  0  0  0
 27 28  1  0  0  0
 27 29  2  0  0  0
  4 31  1  0  0  0
 31 32  2  0  0  0
 32 33  1  0  0  0
 33 34  2  0  0  0
 34 35  1  0  0  0
 35 36  2  0  0  0
 34 37  1  0  0  0
 37 38  1  0  0  0
 37 39  1  0  0  0
 37 40  1  0  0  0
 18 13  1  0  0  0
  7  1  1  0  0  0
 12  7  1  0  0  0
 26 21  1  0  0  0
 36 31  1  0  0  0
 28 30  1  0  0  0
M  END
> <minimizedAffinity>
6.69533

> <CNNscore>
0.5186553597

> <CNNaffinity>
7.4021539688

> <CNN_VS>
3.8391668797

> <CNNaffinity_variance>
0.4650926590

$$$$
[H]OC(=O)c1c([H])c([H])c(N2C([H])([H])C([H])([H])C3(C(=O)N(c4c([H])c([H])c(C(F)(F)F)c([H])c4[H])C(=O)N3c3nc([H])nc(OC([H])([H])[H])c3[H])C([H])([H])C2([H])[H])c([H])c1[H]


 40 44  0  0  0  0  0  0  0  0999 V2000
   12.7188   23.0823   -0.9359 N   0  0  0  0  0  0  0  0  0  0  0  0
   13.7045   23.5082   -1.9012 C   0  0  0  0  0  0  0  0  0  0  0  0
   14.5345   22.7611   -2.5082 O   0  0  0  0  0  0  0  0  0  0  0  0
   13.6299   24.9060   -2.0871 N   0  0  0  0  0  0  0  0  0  0  0  0
   12.5944   25.3692   -1.2286 C   0  0  0  0  0  0  0  0  0  0  0  0
   12.0941   26.5030   -1.2041 O   0  0  0  0  0  0  0  0  0  0  0  0
   12.1585   24.2529   -0.3070 C   0  0  0  0  0  0  0  0  0  0  0  0
   12.6580   24.5897    1.0409 C   0  0  0  0  0  0  0  0  0  0  0  0
   11.7090   24.8220    2.1348 C   0  0  0  0  0  0  0  0  0  0  0  0
   10.2937   24.6487    1.8497 N   0  0  0  0  0  0  0  0  0  0  0  0
   10.0450   23.6229    0.8396 C   0  0  0  0  0  0  0  0  0  0  0  0
   10.6503   24.2055   -0.4126 C   0  0  0  0  0  0  0  0  0  0  0  0
   12.5897   19.4140   -1.3816 C   0  0  0  0  0  0  0  0  0  0  0  0
   12.8959   20.7402   -1.6056 C   0  0  0  0  0  0  0  0  0  0  0  0
   12.4295   21.7083   -0.7471 C   0  0  0  0  0  0  0  0  0  0  0  0
   11.6837   21.3610    0.3000 N   0  0  0  0  0  0  0  0  0  0  0  0
   11.3696   20.0889    0.5445 C   0  0  0  0  0  0  0  0  0  0  0  0
   11.8286   19.1456   -0.3008 N   0  0  0  0  0  0  0  0  0  0  0  0
   13.1650   18.6170   -3.6011 C   0  0  0  0  0  0  0  0  0  0  0  0
   13.0264   18.3740   -2.2069 O   0  0  0  0  0  0  0  0  0  0  0  0
    9.2527   25.3552    2.4815 C   0  0  0  0  0  0  0  0  0  0  0  0
    7.9569   24.9102    2.3705 C   0  0  0  0  0  0  0  0  0  0  0  0
    6.9110   25.5778    3.0012 C   0  0  0  0  0  0  0  0  0  0  0  0
    7.1501   26.7101    3.7580 C   0  0  0  0  0  0  0  0  0  0  0  0
    8.4392   27.1463    3.8625 C   0  0  0  0  0  0  0  0  0  0  0  0
    9.4787   26.4872    3.2377 C   0  0  0  0  0  0  0  0  0  0  0  0
    6.0418   27.3712    4.4046 C   0  0  0  0  0  0  0  0  0  0  0  0
    5.5128   28.5781    4.0235 O   0  0  0  0  0  0  0  0  0  0  0  0
    5.4692   26.8267    5.4249 O   0  0  0  0  0  0  0  0  0  0  0  0
    4.5395   28.7625    3.9292 H   0  0  0  0  0  0  0  0  0  0  0  0
   14.3999   25.7316   -2.9665 C   0  0  0  0  0  0  0  0  0  0  0  0
   13.7986   26.2421   -4.0926 C   0  0  0  0  0  0  0  0  0  0  0  0
   14.4789   27.0386   -4.9584 C   0  0  0  0  0  0  0  0  0  0  0  0
   15.8119   27.3697   -4.7338 C   0  0  0  0  0  0  0  0  0  0  0  0
   16.4246   26.8569   -3.5953 C   0  0  0  0  0  0  0  0  0  0  0  0
   15.7093   26.0337   -2.7136 C   0  0  0  0  0  0  0  0  0  0  0  0
   16.5232   28.2353   -5.6697 C   0  0  0  0  0  0  0  0  0  0  0  0
   15.8548   29.4476   -5.7821 F   0  0  0  0  0  0  0  0  0  0  0  0
   17.8047   28.5525   -5.2272 F   0  0  0  0  0  0  0  0  0  0  0  0
   16.6054   27.7411   -6.9592 F   0  0  0  0  0  0  0  0  0  0  0  0
 19 20  1  0  0  0
 20 13  1  0  0  0
 13 14  2  0  0  0
 14 15  1  0  0  0
 15 16  2  0  0  0
 16 17  1  0  0  0
 17 18  2  0  0  0
 15  1  1  0  0  0
  1  2  1  0  0  0
  2  3  2  0  0  0
  2  4  1  0  0  0
  4  5  1  0  0  0
  5  6  2  0  0  0
  5  7  1  0  0  0
  7  8  1  0  0  0
  8  9  1  0  0  0
  9 10  1  0  0  0
 10 11  1  0  0  0
 11 12  1  0  0  0
 10 21  1  0  0  0
 21 22  2  0  0  0
 22 23  1  0  0  0
 23 24  2  0  0  0
 24 25  1  0  0  0
 25 26  2  0  0  0
 24 27  1  0  0  0
 27 28  1  0  0  0
 27 29  2  0  0  0
  4 31  1  0  0  0
 31 32  2  0  0  0
 32 33  1  0  0  0
 33 34  2  0  0  0
 34 35  1  0  0  0
 35 36  2  0  0  0
 34 37  1  0  0  0
 37 38  1  0  0  0
 37 39  1  0  0  0
 37 40  1  0  0  0
 18 13  1  0  0  0
  7  1  1  0  0  0
 12  7  1  0  0  0
 26 21  1  0  0  0
 36 31  1  0  0  0
 28 30  1  0  0  0
M  END
> <minimizedAffinity>
6.54382

> <CNNscore>
0.5173069835

> <CNNaffinity>
6.9684853554

> <CNN_VS>
3.6048462391

> <CNNaffinity_variance>
0.7825509906

$$$$
[H]OC(=O)c1c([H])c([H])c(N2C([H])([H])C([H])([H])C3(C(=O)N(c4c([H])c([H])c(C(F)(F)F)c([H])c4[H])C(=O)N3c3nc([H])nc(OC([H])([H])[H])c3[H])C([H])([H])C2([H])[H])c(C([H])([H])[H])c1[H]


 41 45  0  0  0  0  0  0  0  0999 V2000
   14.6133   25.3907   -2.5357 N   0  0  0  0  0  0  0  0  0  0  0  0
   15.7450   25.7372   -1.7473 C   0  0  0  0  0  0  0  0  0  0  0  0
   16.3786   26.8309   -1.7915 O   0  0  0  0  0  0  0  0  0  0  0  0
   16.0570   24.6227   -0.8767 N   0  0  0  0  0  0  0  0  0  0  0  0
   15.0747   23.6454   -1.1989 C   0  0  0  0  0  0  0  0  0  0  0  0
   15.2252   22.4108   -1.0684 O   0  0  0  0  0  0  0  0  0  0  0  0
   13.9010   24.4303   -1.6993 C   0  0  0  0  0  0  0  0  0  0  0  0
   13.2966   25.0678   -0.4794 C   0  0  0  0  0  0  0  0  0  0  0  0
   11.8254   24.9414   -0.3640 C   0  0  0  0  0  0  0  0  0  0  0  0
   11.2987   23.6570   -0.6998 N   0  0  0  0  0  0  0  0  0  0  0  0
   12.0449   22.8390   -1.6478 C   0  0  0  0  0  0  0  0  0  0  0  0
   12.9724   23.6114   -2.5095 C   0  0  0  0  0  0  0  0  0  0  0  0
   10.1029   23.0888   -0.1809 C   0  0  0  0  0  0  0  0  0  0  0  0
    9.0857   23.8848    0.3449 C   0  0  0  0  0  0  0  0  0  0  0  0
    7.9259   23.3548    0.8580 C   0  0  0  0  0  0  0  0  0  0  0  0
    7.7098   21.9993    0.8777 C   0  0  0  0  0  0  0  0  0  0  0  0
    8.7002   21.1953    0.3634 C   0  0  0  0  0  0  0  0  0  0  0  0
    9.8859   21.7285   -0.1609 C   0  0  0  0  0  0  0  0  0  0  0  0
   10.9179   20.8215   -0.7016 C   0  0  0  0  0  0  0  0  0  0  0  0
    6.4807   21.4086    1.4213 C   0  0  0  0  0  0  0  0  0  0  0  0
    6.0222   21.7996    2.6680 O   0  0  0  0  0  0  0  0  0  0  0  0
    5.8102   20.5493    0.7993 O   0  0  0  0  0  0  0  0  0  0  0  0
    6.4235   21.2976    3.4766 H   0  0  0  0  0  0  0  0  0  0  0  0
   14.6580   25.9200   -6.1909 C   0  0  0  0  0  0  0  0  0  0  0  0
   14.9948   25.4381   -4.9199 C   0  0  0  0  0  0  0  0  0  0  0  0
   14.2815   25.8816   -3.8223 C   0  0  0  0  0  0  0  0  0  0  0  0
   13.2930   26.7622   -4.0492 N   0  0  0  0  0  0  0  0  0  0  0  0
   12.9597   27.2313   -5.2564 C   0  0  0  0  0  0  0  0  0  0  0  0
   13.6520   26.8016   -6.3253 N   0  0  0  0  0  0  0  0  0  0  0  0
   16.2592   26.3635   -7.9444 C   0  0  0  0  0  0  0  0  0  0  0  0
   15.3598   25.4896   -7.3113 O   0  0  0  0  0  0  0  0  0  0  0  0
   17.1160   24.5806    0.0693 C   0  0  0  0  0  0  0  0  0  0  0  0
   18.2893   23.9283   -0.1987 C   0  0  0  0  0  0  0  0  0  0  0  0
   19.2867   23.9324    0.7833 C   0  0  0  0  0  0  0  0  0  0  0  0
   19.0543   24.5842    1.9667 C   0  0  0  0  0  0  0  0  0  0  0  0
   17.8862   25.2430    2.2540 C   0  0  0  0  0  0  0  0  0  0  0  0
   16.9077   25.2378    1.2886 C   0  0  0  0  0  0  0  0  0  0  0  0
   20.1129   24.5914    3.0139 C   0  0  0  0  0  0  0  0  0  0  0  0
   19.6840   23.7538    4.0170 F   0  0  0  0  0  0  0  0  0  0  0  0
   20.2923   25.8356    3.5562 F   0  0  0  0  0  0  0  0  0  0  0  0
   21.3078   24.1336    2.4635 F   0  0  0  0  0  0  0  0  0  0  0  0
 30 31  1  0  0  0
 31 24  1  0  0  0
 24 25  2  0  0  0
 25 26  1  0  0  0
 26 27  2  0  0  0
 27 28  1  0  0  0
 28 29  2  0  0  0
 26  1  1  0  0  0
  1  2  1  0  0  0
  2  3  2  0  0  0
  2  4  1  0  0  0
  4  5  1  0  0  0
  5  6  2  0  0  0
  5  7  1  0  0  0
  7  8  1  0  0  0
  8  9  1  0  0  0
  9 10  1  0  0  0
 10 11  1  0  0  0
 11 12  1  0  0  0
 10 13  1  0  0  0
 13 14  2  0  0  0
 14 15  1  0  0  0
 15 16  2  0  0  0
 16 17  1  0  0  0
 17 18  2  0  0  0
 18 19  1  0  0  0
 16 20  1  0  0  0
 20 21  1  0  0  0
 20 22  2  0  0  0
  4 32  1  0  0  0
 32 33  2  0  0  0
 33 34  1  0  0  0
 34 35  2  0  0  0
 35 36  1  0  0  0
 36 37  2  0  0  0
 35 38  1  0  0  0
 38 39  1  0  0  0
 38 40  1  0  0  0
 38 41  1  0  0  0
 29 24  1  0  0  0
  7  1  1  0  0  0
 12  7  1  0  0  0
 18 13  1  0  0  0
 37 32  1  0  0  0
 21 23  1  0  0  0
M  END
> <minimizedAffinity>
15.15869

> <CNNscore>
0.7124068141

> <CNNaffinity>
7.9446921349

> <CNN_VS>
5.6598529816

> <CNNaffinity_variance>
0.6880136728

$$$$
[H]OC(=O)c1c([H])c([H])c(N2C([H])([H])C([H])([H])C3(C(=O)N(c4c([H])c([H])c(C(F)(F)F)c([H])c4[H])C(=O)N3c3nc([H])nc(OC([H])([H])[H])c3[H])C([H])([H])C2([H])[H])c(C([H])([H])[H])c1[H]


 41 45  0  0  0  0  0  0  0  0999 V2000
   14.4712   25.4644   -2.2708 N   0  0  0  0  0  0  0  0  0  0  0  0
   15.7042   25.7657   -1.6293 C   0  0  0  0  0  0  0  0  0  0  0  0
   16.3470   26.8511   -1.7200 O   0  0  0  0  0  0  0  0  0  0  0  0
   16.1080   24.6157   -0.8471 N   0  0  0  0  0  0  0  0  0  0  0  0
   15.0732   23.6649   -1.0687 C   0  0  0  0  0  0  0  0  0  0  0  0
   15.2164   22.4244   -1.0021 O   0  0  0  0  0  0  0  0  0  0  0  0
   13.8585   24.4843   -1.3803 C   0  0  0  0  0  0  0  0  0  0  0  0
   13.4340   25.0851   -0.0693 C   0  0  0  0  0  0  0  0  0  0  0  0
   11.9892   24.9754    0.2373 C   0  0  0  0  0  0  0  0  0  0  0  0
   11.3982   23.7119   -0.0692 N   0  0  0  0  0  0  0  0  0  0  0  0
   11.9959   22.9187   -1.1361 C   0  0  0  0  0  0  0  0  0  0  0  0
   12.8150   23.7089   -2.0869 C   0  0  0  0  0  0  0  0  0  0  0  0
   10.2715   23.1421    0.5850 C   0  0  0  0  0  0  0  0  0  0  0  0
    8.9689   23.4953    0.2344 C   0  0  0  0  0  0  0  0  0  0  0  0
    7.8670   22.9619    0.8595 C   0  0  0  0  0  0  0  0  0  0  0  0
    7.9972   22.0438    1.8717 C   0  0  0  0  0  0  0  0  0  0  0  0
    9.2735   21.6806    2.2335 C   0  0  0  0  0  0  0  0  0  0  0  0
   10.4018   22.2209    1.6011 C   0  0  0  0  0  0  0  0  0  0  0  0
   11.7505   21.7969    2.0270 C   0  0  0  0  0  0  0  0  0  0  0  0
    6.8366   21.4606    2.5559 C   0  0  0  0  0  0  0  0  0  0  0  0
    6.5638   20.1100    2.4186 O   0  0  0  0  0  0  0  0  0  0  0  0
    6.0633   22.1390    3.2746 O   0  0  0  0  0  0  0  0  0  0  0  0
    6.0028   19.8423    1.5936 H   0  0  0  0  0  0  0  0  0  0  0  0
   12.3923   27.3684   -4.6574 C   0  0  0  0  0  0  0  0  0  0  0  0
   12.8690   26.8278   -3.4568 C   0  0  0  0  0  0  0  0  0  0  0  0
   13.9806   26.0069   -3.4838 C   0  0  0  0  0  0  0  0  0  0  0  0
   14.5427   25.7763   -4.6817 N   0  0  0  0  0  0  0  0  0  0  0  0
   14.0993   26.2852   -5.8363 C   0  0  0  0  0  0  0  0  0  0  0  0
   13.0184   27.0836   -5.8125 N   0  0  0  0  0  0  0  0  0  0  0  0
   11.3506   29.4613   -4.0494 C   0  0  0  0  0  0  0  0  0  0  0  0
   11.2760   28.1971   -4.6574 O   0  0  0  0  0  0  0  0  0  0  0  0
   17.2825   24.5238   -0.0532 C   0  0  0  0  0  0  0  0  0  0  0  0
   17.2291   24.5843    1.3133 C   0  0  0  0  0  0  0  0  0  0  0  0
   18.4294   24.4850    2.0264 C   0  0  0  0  0  0  0  0  0  0  0  0
   19.6040   24.3314    1.3365 C   0  0  0  0  0  0  0  0  0  0  0  0
   19.6783   24.2688   -0.0316 C   0  0  0  0  0  0  0  0  0  0  0  0
   18.4986   24.3668   -0.7303 C   0  0  0  0  0  0  0  0  0  0  0  0
   20.8831   24.2249    2.0913 C   0  0  0  0  0  0  0  0  0  0  0  0
   21.6300   25.3325    1.7641 F   0  0  0  0  0  0  0  0  0  0  0  0
   21.6013   23.1157    1.7335 F   0  0  0  0  0  0  0  0  0  0  0  0
   20.6105   24.1972    3.4571 F   0  0  0  0  0  0  0  0  0  0  0  0
 30 31  1  0  0  0
 31 24  1  0  0  0
 24 25  2  0  0  0
 25 26  1  0  0  0
 26 27  2  0  0  0
 27 28  1  0  0  0
 28 29  2  0  0  0
 26  1  1  0  0  0
  1  2  1  0  0  0
  2  3  2  0  0  0
  2  4  1  0  0  0
  4  5  1  0  0  0
  5  6  2  0  0  0
  5  7  1  0  0  0
  7  8  1  0  0  0
  8  9  1  0  0  0
  9 10  1  0  0  0
 10 11  1  0  0  0
 11 12  1  0  0  0
 10 13  1  0  0  0
 13 14  2  0  0  0
 14 15  1  0  0  0
 15 16  2  0  0  0
 16 17  1  0  0  0
 17 18  2  0  0  0
 18 19  1  0  0  0
 16 20  1  0  0  0
 20 21  1  0  0  0
 20 22  2  0  0  0
  4 32  1  0  0  0
 32 33  2  0  0  0
 33 34  1  0  0  0
 34 35  2  0  0  0
 35 36  1  0  0  0
 36 37  2  0  0  0
 35 38  1  0  0  0
 38 39  1  0  0  0
 38 40  1  0  0  0
 38 41  1  0  0  0
 29 24  1  0  0  0
  7  1  1  0  0  0
 12  7  1  0  0  0
 18 13  1  0  0  0
 37 32  1  0  0  0
 21 23  1  0  0  0
M  END
> <minimizedAffinity>
20.62054

> <CNNscore>
0.6819628477

> <CNNaffinity>
7.7830352783

> <CNN_VS>
5.3077406883

> <CNNaffinity_variance>
0.8217379451

$$$$
[H]OC(=O)c1c([H])c([H])c(N2C([H])([H])C([H])([H])C3(C(=O)N(c4c([H])c([H])c(C(F)(F)F)c([H])c4[H])C(=O)N3c3nc([H])nc(OC([H])([H])[H])c3[H])C([H])([H])C2([H])[H])c(C([H])([H])[H])c1[H]


 41 45  0  0  0  0  0  0  0  0999 V2000
   15.9149   24.5155   -0.9779 N   0  0  0  0  0  0  0  0  0  0  0  0
   16.3236   24.5841   -2.3384 C   0  0  0  0  0  0  0  0  0  0  0  0
   17.4286   24.1852   -2.8066 O   0  0  0  0  0  0  0  0  0  0  0  0
   15.2575   25.1910   -3.1083 N   0  0  0  0  0  0  0  0  0  0  0  0
   14.2454   25.4616   -2.1458 C   0  0  0  0  0  0  0  0  0  0  0  0
   13.3914   26.3699   -2.2430 O   0  0  0  0  0  0  0  0  0  0  0  0
   14.4601   24.4456   -1.0660 C   0  0  0  0  0  0  0  0  0  0  0  0
   13.9811   23.1423   -1.6422 C   0  0  0  0  0  0  0  0  0  0  0  0
   13.0957   22.3489   -0.7590 C   0  0  0  0  0  0  0  0  0  0  0  0
   12.1045   23.1020   -0.0588 N   0  0  0  0  0  0  0  0  0  0  0  0
   12.3899   24.5010    0.2344 C   0  0  0  0  0  0  0  0  0  0  0  0
   13.8341   24.8371    0.2163 C   0  0  0  0  0  0  0  0  0  0  0  0
   10.8428   22.6109    0.3762 C   0  0  0  0  0  0  0  0  0  0  0  0
    9.9305   23.4307    1.0396 C   0  0  0  0  0  0  0  0  0  0  0  0
    8.7095   22.9734    1.4747 C   0  0  0  0  0  0  0  0  0  0  0  0
    8.3240   21.6712    1.2744 C   0  0  0  0  0  0  0  0  0  0  0  0
    9.2087   20.8449    0.6214 C   0  0  0  0  0  0  0  0  0  0  0  0
   10.4558   21.3041    0.1755 C   0  0  0  0  0  0  0  0  0  0  0  0
   11.3689   20.3762   -0.5211 C   0  0  0  0  0  0  0  0  0  0  0  0
    7.0263   21.1582    1.7305 C   0  0  0  0  0  0  0  0  0  0  0  0
    6.2028   21.9591    2.5036 O   0  0  0  0  0  0  0  0  0  0  0  0
    6.6171   20.0059    1.4484 O   0  0  0  0  0  0  0  0  0  0  0  0
    6.3798   21.9429    3.5212 H   0  0  0  0  0  0  0  0  0  0  0  0
   18.9120   24.2342    1.1623 C   0  0  0  0  0  0  0  0  0  0  0  0
   18.0917   24.2273    0.0274 C   0  0  0  0  0  0  0  0  0  0  0  0
   16.7469   24.5134    0.1683 C   0  0  0  0  0  0  0  0  0  0  0  0
   16.3050   24.7847    1.4075 N   0  0  0  0  0  0  0  0  0  0  0  0
   17.0758   24.7953    2.5004 C   0  0  0  0  0  0  0  0  0  0  0  0
   18.3839   24.5173    2.3657 N   0  0  0  0  0  0  0  0  0  0  0  0
   21.2008   24.7170    1.7654 C   0  0  0  0  0  0  0  0  0  0  0  0
   20.2681   23.9501    1.0475 O   0  0  0  0  0  0  0  0  0  0  0  0
   15.2778   25.4288   -4.5086 C   0  0  0  0  0  0  0  0  0  0  0  0
   14.8710   26.6242   -5.0374 C   0  0  0  0  0  0  0  0  0  0  0  0
   14.9216   26.7834   -6.4270 C   0  0  0  0  0  0  0  0  0  0  0  0
   15.3732   25.7458   -7.2008 C   0  0  0  0  0  0  0  0  0  0  0  0
   15.7847   24.5411   -6.6904 C   0  0  0  0  0  0  0  0  0  0  0  0
   15.7342   24.3865   -5.3254 C   0  0  0  0  0  0  0  0  0  0  0  0
   15.4290   25.9110   -8.6796 C   0  0  0  0  0  0  0  0  0  0  0  0
   15.4521   27.2639   -8.9268 F   0  0  0  0  0  0  0  0  0  0  0  0
   14.3233   25.3919   -9.2978 F   0  0  0  0  0  0  0  0  0  0  0  0
   16.5808   25.2986   -9.1680 F   0  0  0  0  0  0  0  0  0  0  0  0
 30 31  1  0  0  0
 31 24  1  0  0  0
 24 25  2  0  0  0
 25 26  1  0  0  0
 26 27  2  0  0  0
 27 28  1  0  0  0
 28 29  2  0  0  0
 26  1  1  0  0  0
  1  2  1  0  0  0
  2  3  2  0  0  0
  2  4  1  0  0  0
  4  5  1  0  0  0
  5  6  2  0  0  0
  5  7  1  0  0  0
  7  8  1  0  0  0
  8  9  1  0  0  0
  9 10  1  0  0  0
 10 11  1  0  0  0
 11 12  1  0  0  0
 10 13  1  0  0  0
 13 14  2  0  0  0
 14 15  1  0  0  0
 15 16  2  0  0  0
 16 17  1  0  0  0
 17 18  2  0  0  0
 18 19  1  0  0  0
 16 20  1  0  0  0
 20 21  1  0  0  0
 20 22  2  0  0  0
  4 32  1  0  0  0
 32 33  2  0  0  0
 33 34  1  0  0  0
 34 35  2  0  0  0
 35 36  1  0  0  0
 36 37  2  0  0  0
 35 38  1  0  0  0
 38 39  1  0  0  0
 38 40  1  0  0  0
 38 41  1  0  0  0
 29 24  1  0  0  0
  7  1  1  0  0  0
 12  7  1  0  0  0
 18 13  1  0  0  0
 37 32  1  0  0  0
 21 23  1  0  0  0
M  END
> <minimizedAffinity>
18.52393

> <CNNscore>
0.6106208563

> <CNNaffinity>
7.8145356178

> <CNN_VS>
4.7717185020

> <CNNaffinity_variance>
0.6169198751

$$$$
[H]OC(=O)c1c([H])c([H])c(N2C([H])([H])C([H])([H])C3(C(=O)N(c4c([H])c([H])c(C(F)(F)F)c([H])c4[H])C(=O)N3c3nc([H])nc(OC([H])([H])[H])c3[H])C([H])([H])C2([H])[H])c(C([H])([H])[H])c1[H]


 41 45  0  0  0  0  0  0  0  0999 V2000
   15.3751   24.6073   -2.8817 N   0  0  0  0  0  0  0  0  0  0  0  0
   16.3530   25.1001   -1.9742 C   0  0  0  0  0  0  0  0  0  0  0  0
   16.9723   26.1987   -2.0687 O   0  0  0  0  0  0  0  0  0  0  0  0
   16.5259   24.1293   -0.9135 N   0  0  0  0  0  0  0  0  0  0  0  0
   15.6236   23.0824   -1.2511 C   0  0  0  0  0  0  0  0  0  0  0  0
   15.7642   21.8841   -0.9222 O   0  0  0  0  0  0  0  0  0  0  0  0
   14.5426   23.7481   -2.0464 C   0  0  0  0  0  0  0  0  0  0  0  0
   13.7331   24.5271   -1.0475 C   0  0  0  0  0  0  0  0  0  0  0  0
   12.2652   24.3659   -1.1609 C   0  0  0  0  0  0  0  0  0  0  0  0
   11.8178   23.0295   -1.3922 N   0  0  0  0  0  0  0  0  0  0  0  0
   12.7230   22.1146   -2.0764 C   0  0  0  0  0  0  0  0  0  0  0  0
   13.7740   22.7919   -2.8738 C   0  0  0  0  0  0  0  0  0  0  0  0
   10.5580   22.4970   -1.0030 C   0  0  0  0  0  0  0  0  0  0  0  0
    9.9687   21.4387   -1.6939 C   0  0  0  0  0  0  0  0  0  0  0  0
    8.7486   20.9149   -1.3383 C   0  0  0  0  0  0  0  0  0  0  0  0
    8.0424   21.4142   -0.2723 C   0  0  0  0  0  0  0  0  0  0  0  0
    8.6056   22.4583    0.4239 C   0  0  0  0  0  0  0  0  0  0  0  0
    9.8490   22.9980    0.0666 C   0  0  0  0  0  0  0  0  0  0  0  0
   10.4099   24.1186    0.8475 C   0  0  0  0  0  0  0  0  0  0  0  0
    6.7373   20.8734    0.1267 C   0  0  0  0  0  0  0  0  0  0  0  0
    6.6495   19.5841    0.6240 O   0  0  0  0  0  0  0  0  0  0  0  0
    5.6748   21.5352    0.0382 O   0  0  0  0  0  0  0  0  0  0  0  0
    6.5603   18.8321   -0.0786 H   0  0  0  0  0  0  0  0  0  0  0  0
   15.1240   26.5094   -6.0379 C   0  0  0  0  0  0  0  0  0  0  0  0
   15.2294   26.2223   -4.6713 C   0  0  0  0  0  0  0  0  0  0  0  0
   15.2603   24.9025   -4.2622 C   0  0  0  0  0  0  0  0  0  0  0  0
   15.1859   23.9628   -5.2191 N   0  0  0  0  0  0  0  0  0  0  0  0
   15.0850   24.2212   -6.5274 C   0  0  0  0  0  0  0  0  0  0  0  0
   15.0548   25.5040   -6.9276 N   0  0  0  0  0  0  0  0  0  0  0  0
   15.7033   28.8307   -5.7044 C   0  0  0  0  0  0  0  0  0  0  0  0
   15.0911   27.8286   -6.4755 O   0  0  0  0  0  0  0  0  0  0  0  0
   17.4099   24.2567    0.1911 C   0  0  0  0  0  0  0  0  0  0  0  0
   16.9427   24.4558    1.4624 C   0  0  0  0  0  0  0  0  0  0  0  0
   17.8761   24.5702    2.4990 C   0  0  0  0  0  0  0  0  0  0  0  0
   19.2122   24.4787    2.2061 C   0  0  0  0  0  0  0  0  0  0  0  0
   19.6999   24.2797    0.9398 C   0  0  0  0  0  0  0  0  0  0  0  0
   18.7818   24.1678   -0.0771 C   0  0  0  0  0  0  0  0  0  0  0  0
   20.2086   24.5994    3.3061 C   0  0  0  0  0  0  0  0  0  0  0  0
   21.4030   24.1286    2.8126 F   0  0  0  0  0  0  0  0  0  0  0  0
   19.8735   23.8340    4.3906 F   0  0  0  0  0  0  0  0  0  0  0  0
   20.3201   25.9362    3.6813 F   0  0  0  0  0  0  0  0  0  0  0  0
 30 31  1  0  0  0
 31 24  1  0  0  0
 24 25  2  0  0  0
 25 26  1  0  0  0
 26 27  2  0  0  0
 27 28  1  0  0  0
 28 29  2  0  0  0
 26  1  1  0  0  0
  1  2  1  0  0  0
  2  3  2  0  0  0
  2  4  1  0  0  0
  4  5  1  0  0  0
  5  6  2  0  0  0
  5  7  1  0  0  0
  7  8  1  0  0  0
  8  9  1  0  0  0
  9 10  1  0  0  0
 10 11  1  0  0  0
 11 12  1  0  0  0
 10 13  1  0  0  0
 13 14  2  0  0  0
 14 15  1  0  0  0
 15 16  2  0  0  0
 16 17  1  0  0  0
 17 18  2  0  0  0
 18 19  1  0  0  0
 16 20  1  0  0  0
 20 21  1  0  0  0
 20 22  2  0  0  0
  4 32  1  0  0  0
 32 33  2  0  0  0
 33 34  1  0  0  0
 34 35  2  0  0  0
 35 36  1  0  0  0
 36 37  2  0  0  0
 35 38  1  0  0  0
 38 39  1  0  0  0
 38 40  1  0  0  0
 38 41  1  0  0  0
 29 24  1  0  0  0
  7  1  1  0  0  0
 12  7  1  0  0  0
 18 13  1  0  0  0
 37 32  1  0  0  0
 21 23  1  0  0  0
M  END
> <minimizedAffinity>
18.46011

> <CNNscore>
0.5935656428

> <CNNaffinity>
7.7870473862

> <CNN_VS>
4.6221237183

> <CNNaffinity_variance>
0.6767340899

$$$$
[H]OC(=O)c1c([H])c([H])c(N2C([H])([H])C([H])([H])C3(C(=O)N(c4c([H])c([H])c(C(F)(F)F)c([H])c4[H])C(=O)N3c3nc([H])nc(OC([H])([H])[H])c3[H])C([H])([H])C2([H])[H])c(C([H])([H])[H])c1[H]


 41 45  0  0  0  0  0  0  0  0999 V2000
   15.2951   23.6165   -0.7509 N   0  0  0  0  0  0  0  0  0  0  0  0
   15.7041   23.9002   -2.0832 C   0  0  0  0  0  0  0  0  0  0  0  0
   16.7656   23.4966   -2.6398 O   0  0  0  0  0  0  0  0  0  0  0  0
   14.6971   24.7349   -2.7049 N   0  0  0  0  0  0  0  0  0  0  0  0
   13.7178   24.9123   -1.6884 C   0  0  0  0  0  0  0  0  0  0  0  0
   12.9521   25.8969   -1.5978 O   0  0  0  0  0  0  0  0  0  0  0  0
   13.8399   23.6973   -0.8206 C   0  0  0  0  0  0  0  0  0  0  0  0
   13.2393   22.5738   -1.6186 C   0  0  0  0  0  0  0  0  0  0  0  0
   12.2864   21.7136   -0.8799 C   0  0  0  0  0  0  0  0  0  0  0  0
   11.3722   22.4100   -0.0320 N   0  0  0  0  0  0  0  0  0  0  0  0
   11.7880   23.6977    0.5098 C   0  0  0  0  0  0  0  0  0  0  0  0
   13.2573   23.8981    0.5247 C   0  0  0  0  0  0  0  0  0  0  0  0
   10.0715   21.9636    0.3302 C   0  0  0  0  0  0  0  0  0  0  0  0
    9.2366   21.3280   -0.5882 C   0  0  0  0  0  0  0  0  0  0  0  0
    7.9736   20.8959   -0.2600 C   0  0  0  0  0  0  0  0  0  0  0  0
    7.4668   21.0711    1.0037 C   0  0  0  0  0  0  0  0  0  0  0  0
    8.2739   21.6956    1.9259 C   0  0  0  0  0  0  0  0  0  0  0  0
    9.5625   22.1395    1.5983 C   0  0  0  0  0  0  0  0  0  0  0  0
   10.3890   22.8038    2.6257 C   0  0  0  0  0  0  0  0  0  0  0  0
    6.1210   20.6201    1.3786 C   0  0  0  0  0  0  0  0  0  0  0  0
    5.5645   19.5187    0.7506 O   0  0  0  0  0  0  0  0  0  0  0  0
    5.4355   21.1946    2.2588 O   0  0  0  0  0  0  0  0  0  0  0  0
    5.0740   19.7039   -0.1394 H   0  0  0  0  0  0  0  0  0  0  0  0
   18.0339   23.8437    1.7169 C   0  0  0  0  0  0  0  0  0  0  0  0
   17.2190   24.1315    0.6150 C   0  0  0  0  0  0  0  0  0  0  0  0
   16.1269   23.3245    0.3577 C   0  0  0  0  0  0  0  0  0  0  0  0
   15.9132   22.2973    1.1966 N   0  0  0  0  0  0  0  0  0  0  0  0
   16.6820   22.0101    2.2525 C   0  0  0  0  0  0  0  0  0  0  0  0
   17.7447   22.7934    2.5045 N   0  0  0  0  0  0  0  0  0  0  0  0
   19.7336   24.5776    3.2685 C   0  0  0  0  0  0  0  0  0  0  0  0
   19.1384   24.6401    1.9976 O   0  0  0  0  0  0  0  0  0  0  0  0
   14.7350   25.2271   -4.0370 C   0  0  0  0  0  0  0  0  0  0  0  0
   14.1440   26.4137   -4.3785 C   0  0  0  0  0  0  0  0  0  0  0  0
   14.2254   26.8328   -5.7114 C   0  0  0  0  0  0  0  0  0  0  0  0
   14.8887   26.0470   -6.6180 C   0  0  0  0  0  0  0  0  0  0  0  0
   15.4869   24.8557   -6.2957 C   0  0  0  0  0  0  0  0  0  0  0  0
   15.4058   24.4455   -4.9862 C   0  0  0  0  0  0  0  0  0  0  0  0
   14.9780   26.4894   -8.0370 C   0  0  0  0  0  0  0  0  0  0  0  0
   13.6968   26.7828   -8.4422 F   0  0  0  0  0  0  0  0  0  0  0  0
   15.4596   25.5026   -8.8546 F   0  0  0  0  0  0  0  0  0  0  0  0
   15.7932   27.6161   -8.1173 F   0  0  0  0  0  0  0  0  0  0  0  0
 30 31  1  0  0  0
 31 24  1  0  0  0
 24 25  2  0  0  0
 25 26  1  0  0  0
 26 27  2  0  0  0
 27 28  1  0  0  0
 28 29  2  0  0  0
 26  1  1  0  0  0
  1  2  1  0  0  0
  2  3  2  0  0  0
  2  4  1  0  0  0
  4  5  1  0  0  0
  5  6  2  0  0  0
  5  7  1  0  0  0
  7  8  1  0  0  0
  8  9  1  0  0  0
  9 10  1  0  0  0
 10 11  1  0  0  0
 11 12  1  0  0  0
 10 13  1  0  0  0
 13 14  2  0  0  0
 14 15  1  0  0  0
 15 16  2  0  0  0
 16 17  1  0  0  0
 17 18  2  0  0  0
 18 19  1  0  0  0
 16 20  1  0  0  0
 20 21  1  0  0  0
 20 22  2  0  0  0
  4 32  1  0  0  0
 32 33  2  0  0  0
 33 34  1  0  0  0
 34 35  2  0  0  0
 35 36  1  0  0  0
 36 37  2  0  0  0
 35 38  1  0  0  0
 38 39  1  0  0  0
 38 40  1  0  0  0
 38 41  1  0  0  0
 29 24  1  0  0  0
  7  1  1  0  0  0
 12  7  1  0  0  0
 18 13  1  0  0  0
 37 32  1  0  0  0
 21 23  1  0  0  0
M  END
> <minimizedAffinity>
8.03093

> <CNNscore>
0.5849652886

> <CNNaffinity>
7.6796226501

> <CNN_VS>
4.4923129082

> <CNNaffinity_variance>
0.4060386121

$$$$
[H]OC(=O)c1c([H])c([H])c(N2C([H])([H])C([H])([H])C3(C(=O)N(c4c([H])c([H])c(C(F)(F)F)c([H])c4[H])C(=O)N3c3nc([H])nc(OC([H])([H])[H])c3[H])C([H])([H])C2([H])[H])c(C([H])([H])[H])c1[H]


 41 45  0  0  0  0  0  0  0  0999 V2000
   14.8766   25.1356   -1.1086 N   0  0  0  0  0  0  0  0  0  0  0  0
   15.6349   25.1730   -2.3113 C   0  0  0  0  0  0  0  0  0  0  0  0
   16.8907   25.0573   -2.4055 O   0  0  0  0  0  0  0  0  0  0  0  0
   14.7256   25.3669   -3.4217 N   0  0  0  0  0  0  0  0  0  0  0  0
   13.4428   25.4391   -2.8110 C   0  0  0  0  0  0  0  0  0  0  0  0
   12.4601   26.0517   -3.2830 O   0  0  0  0  0  0  0  0  0  0  0  0
   13.5736   24.6462   -1.5467 C   0  0  0  0  0  0  0  0  0  0  0  0
   13.6159   23.2072   -1.9795 C   0  0  0  0  0  0  0  0  0  0  0  0
   12.7323   22.2930   -1.2198 C   0  0  0  0  0  0  0  0  0  0  0  0
   11.4279   22.8032   -0.9404 N   0  0  0  0  0  0  0  0  0  0  0  0
   11.2658   24.2484   -0.8426 C   0  0  0  0  0  0  0  0  0  0  0  0
   12.5252   24.9772   -0.5564 C   0  0  0  0  0  0  0  0  0  0  0  0
   10.2534   22.0228   -0.7563 C   0  0  0  0  0  0  0  0  0  0  0  0
    9.7590   21.1995   -1.7673 C   0  0  0  0  0  0  0  0  0  0  0  0
    8.6216   20.4434   -1.6119 C   0  0  0  0  0  0  0  0  0  0  0  0
    7.9087   20.4621   -0.4389 C   0  0  0  0  0  0  0  0  0  0  0  0
    8.3791   21.2671    0.5723 C   0  0  0  0  0  0  0  0  0  0  0  0
    9.5377   22.0415    0.4207 C   0  0  0  0  0  0  0  0  0  0  0  0
   10.0007   22.8888    1.5377 C   0  0  0  0  0  0  0  0  0  0  0  0
    6.6906   19.6651   -0.2484 C   0  0  0  0  0  0  0  0  0  0  0  0
    5.6276   19.8130   -1.1234 O   0  0  0  0  0  0  0  0  0  0  0  0
    6.5620   18.8386    0.6870 O   0  0  0  0  0  0  0  0  0  0  0  0
    4.9641   20.5744   -0.9062 H   0  0  0  0  0  0  0  0  0  0  0  0
   17.0012   25.4672    1.8945 C   0  0  0  0  0  0  0  0  0  0  0  0
   16.5715   25.1064    0.6114 C   0  0  0  0  0  0  0  0  0  0  0  0
   15.3123   25.4912    0.1913 C   0  0  0  0  0  0  0  0  0  0  0  0
   14.5680   26.1997    1.0563 N   0  0  0  0  0  0  0  0  0  0  0  0
   14.9644   26.5518    2.2842 C   0  0  0  0  0  0  0  0  0  0  0  0
   16.1885   26.1785    2.6949 N   0  0  0  0  0  0  0  0  0  0  0  0
   19.0127   24.1620    1.6021 C   0  0  0  0  0  0  0  0  0  0  0  0
   18.2634   25.0926    2.3411 O   0  0  0  0  0  0  0  0  0  0  0  0
   15.0950   25.4511   -4.7908 C   0  0  0  0  0  0  0  0  0  0  0  0
   15.3619   24.3304   -5.5302 C   0  0  0  0  0  0  0  0  0  0  0  0
   15.7181   24.4946   -6.8738 C   0  0  0  0  0  0  0  0  0  0  0  0
   15.7853   25.7605   -7.3957 C   0  0  0  0  0  0  0  0  0  0  0  0
   15.5219   26.8951   -6.6717 C   0  0  0  0  0  0  0  0  0  0  0  0
   15.1725   26.7320   -5.3523 C   0  0  0  0  0  0  0  0  0  0  0  0
   16.1634   25.9396   -8.8248 C   0  0  0  0  0  0  0  0  0  0  0  0
   17.1846   25.0540   -9.0787 F   0  0  0  0  0  0  0  0  0  0  0  0
   16.6308   27.2009   -9.0795 F   0  0  0  0  0  0  0  0  0  0  0  0
   15.0601   25.6675   -9.6303 F   0  0  0  0  0  0  0  0  0  0  0  0
 30 31  1  0  0  0
 31 24  1  0  0  0
 24 25  2  0  0  0
 25 26  1  0  0  0
 26 27  2  0  0  0
 27 28  1  0  0  0
 28 29  2  0  0  0
 26  1  1  0  0  0
  1  2  1  0  0  0
  2  3  2  0  0  0
  2  4  1  0  0  0
  4  5  1  0  0  0
  5  6  2  0  0  0
  5  7  1  0  0  0
  7  8  1  0  0  0
  8  9  1  0  0  0
  9 10  1  0  0  0
 10 11  1  0  0  0
 11 12  1  0  0  0
 10 13  1  0  0  0
 13 14  2  0  0  0
 14 15  1  0  0  0
 15 16  2  0  0  0
 16 17  1  0  0  0
 17 18  2  0  0  0
 18 19  1  0  0  0
 16 20  1  0  0  0
 20 21  1  0  0  0
 20 22  2  0  0  0
  4 32  1  0  0  0
 32 33  2  0  0  0
 33 34  1  0  0  0
 34 35  2  0  0  0
 35 36  1  0  0  0
 36 37  2  0  0  0
 35 38  1  0  0  0
 38 39  1  0  0  0
 38 40  1  0  0  0
 38 41  1  0  0  0
 29 24  1  0  0  0
  7  1  1  0  0  0
 12  7  1  0  0  0
 18 13  1  0  0  0
 37 32  1  0  0  0
 21 23  1  0  0  0
M  END
> <minimizedAffinity>
14.29453

> <CNNscore>
0.5182989240

> <CNNaffinity>
7.5344405174

> <CNN_VS>
3.9050924778

> <CNNaffinity_variance>
0.3401648402

$$$$
[H]OC(=O)c1c([H])c([H])c(N2C([H])([H])C([H])([H])C3(C(=O)N(c4c([H])c([H])c(C(F)(F)F)c([H])c4[H])C(=O)N3c3nc([H])nc(OC([H])([H])[H])c3[H])C([H])([H])C2([H])[H])c(C([H])([H])[H])c1[H]


 41 45  0  0  0  0  0  0  0  0999 V2000
   11.1438   22.5538    2.0679 N   0  0  0  0  0  0  0  0  0  0  0  0
   10.4188   23.4074    2.9445 C   0  0  0  0  0  0  0  0  0  0  0  0
   10.5116   23.4346    4.2055 O   0  0  0  0  0  0  0  0  0  0  0  0
    9.5482   24.2490    2.1501 N   0  0  0  0  0  0  0  0  0  0  0  0
    9.8024   23.8440    0.8102 C   0  0  0  0  0  0  0  0  0  0  0  0
    8.9842   23.9347   -0.1312 O   0  0  0  0  0  0  0  0  0  0  0  0
   11.2052   23.3188    0.8269 C   0  0  0  0  0  0  0  0  0  0  0  0
   12.0853   24.5320    0.9424 C   0  0  0  0  0  0  0  0  0  0  0  0
   13.2307   24.5730    0.0043 C   0  0  0  0  0  0  0  0  0  0  0  0
   12.9354   24.1643   -1.3319 N   0  0  0  0  0  0  0  0  0  0  0  0
   11.8413   23.2223   -1.5324 C   0  0  0  0  0  0  0  0  0  0  0  0
   11.4958   22.4352   -0.3240 C   0  0  0  0  0  0  0  0  0  0  0  0
   13.6115   24.6043   -2.5030 C   0  0  0  0  0  0  0  0  0  0  0  0
   14.6718   23.8810   -3.0481 C   0  0  0  0  0  0  0  0  0  0  0  0
   15.3431   24.2932   -4.1746 C   0  0  0  0  0  0  0  0  0  0  0  0
   14.9976   25.4512   -4.8259 C   0  0  0  0  0  0  0  0  0  0  0  0
   13.9538   26.1802   -4.3054 C   0  0  0  0  0  0  0  0  0  0  0  0
   13.2652   25.7665   -3.1567 C   0  0  0  0  0  0  0  0  0  0  0  0
   12.1510   26.5854   -2.6388 C   0  0  0  0  0  0  0  0  0  0  0  0
   15.6994   25.9135   -6.0296 C   0  0  0  0  0  0  0  0  0  0  0  0
   16.0702   25.0014   -7.0032 O   0  0  0  0  0  0  0  0  0  0  0  0
   15.9858   27.1196   -6.2247 O   0  0  0  0  0  0  0  0  0  0  0  0
   16.9763   24.5271   -6.8587 H   0  0  0  0  0  0  0  0  0  0  0  0
   11.5538   19.2051    3.5713 C   0  0  0  0  0  0  0  0  0  0  0  0
   11.0329   20.4743    3.2908 C   0  0  0  0  0  0  0  0  0  0  0  0
   11.6718   21.2726    2.3609 C   0  0  0  0  0  0  0  0  0  0  0  0
   12.7713   20.7705    1.7750 N   0  0  0  0  0  0  0  0  0  0  0  0
   13.2806   19.5609    2.0323 C   0  0  0  0  0  0  0  0  0  0  0  0
   12.6610   18.7829    2.9364 N   0  0  0  0  0  0  0  0  0  0  0  0
    9.9639   18.9224    5.3678 C   0  0  0  0  0  0  0  0  0  0  0  0
   10.9299   18.3825    4.5025 O   0  0  0  0  0  0  0  0  0  0  0  0
    8.6668   25.2416    2.6559 C   0  0  0  0  0  0  0  0  0  0  0  0
    7.3122   25.1529    2.4794 C   0  0  0  0  0  0  0  0  0  0  0  0
    6.5089   26.1697    3.0085 C   0  0  0  0  0  0  0  0  0  0  0  0
    7.1028   27.2076    3.6789 C   0  0  0  0  0  0  0  0  0  0  0  0
    8.4573   27.3145    3.8660 C   0  0  0  0  0  0  0  0  0  0  0  0
    9.2446   26.3151    3.3455 C   0  0  0  0  0  0  0  0  0  0  0  0
    6.2519   28.2912    4.2437 C   0  0  0  0  0  0  0  0  0  0  0  0
    5.4899   28.7780    3.2073 F   0  0  0  0  0  0  0  0  0  0  0  0
    6.9981   29.3277    4.7367 F   0  0  0  0  0  0  0  0  0  0  0  0
    5.4433   27.7649    5.2484 F   0  0  0  0  0  0  0  0  0  0  0  0
 30 31  1  0  0  0
 31 24  1  0  0  0
 24 25  2  0  0  0
 25 26  1  0  0  0
 26 27  2  0  0  0
 27 28  1  0  0  0
 28 29  2  0  0  0
 26  1  1  0  0  0
  1  2  1  0  0  0
  2  3  2  0  0  0
  2  4  1  0  0  0
  4  5  1  0  0  0
  5  6  2  0  0  0
  5  7  1  0  0  0
  7  8  1  0  0  0
  8  9  1  0  0  0
  9 10  1  0  0  0
 10 11  1  0  0  0
 11 12  1  0  0  0
 10 13  1  0  0  0
 13 14  2  0  0  0
 14 15  1  0  0  0
 15 16  2  0  0  0
 16 17  1  0  0  0
 17 18  2  0  0  0
 18 19  1  0  0  0
 16 20  1  0  0  0
 20 21  1  0  0  0
 20 22  2  0  0  0
  4 32  1  0  0  0
 32 33  2  0  0  0
 33 34  1  0  0  0
 34 35  2  0  0  0
 35 36  1  0  0  0
 36 37  2  0  0  0
 35 38  1  0  0  0
 38 39  1  0  0  0
 38 40  1  0  0  0
 38 41  1  0  0  0
 29 24  1  0  0  0
  7  1  1  0  0  0
 12  7  1  0  0  0
 18 13  1  0  0  0
 37 32  1  0  0  0
 21 23  1  0  0  0
M  END
> <minimizedAffinity>
-4.77254

> <CNNscore>
0.5041260719

> <CNNaffinity>
7.2087020874

> <CNN_VS>
3.6340947151

> <CNNaffinity_variance>
0.3891449273

$$$$
[H]OC(=O)c1c([H])c([H])c(N2C([H])([H])C([H])([H])C3(C(=O)N(c4c([H])c([H])c(C(F)(F)F)c([H])c4[H])C(=O)N3c3nc([H])nc(OC([H])([H])[H])c3[H])C([H])([H])C2([H])[H])c(C([H])([H])[H])c1[H]


 41 45  0  0  0  0  0  0  0  0999 V2000
   14.1111   25.4648   -0.8882 N   0  0  0  0  0  0  0  0  0  0  0  0
   14.9712   25.5479   -2.0178 C   0  0  0  0  0  0  0  0  0  0  0  0
   16.2344   25.6042   -1.9913 O   0  0  0  0  0  0  0  0  0  0  0  0
   14.1570   25.5575   -3.2154 N   0  0  0  0  0  0  0  0  0  0  0  0
   12.8226   25.4800   -2.7282 C   0  0  0  0  0  0  0  0  0  0  0  0
   11.8173   25.9252   -3.3241 O   0  0  0  0  0  0  0  0  0  0  0  0
   12.9347   24.7770   -1.4101 C   0  0  0  0  0  0  0  0  0  0  0  0
   13.2120   23.3383   -1.7464 C   0  0  0  0  0  0  0  0  0  0  0  0
   12.3894   22.3486   -1.0134 C   0  0  0  0  0  0  0  0  0  0  0  0
   11.0073   22.6848   -0.8849 N   0  0  0  0  0  0  0  0  0  0  0  0
   10.6437   24.0962   -0.8928 C   0  0  0  0  0  0  0  0  0  0  0  0
   11.7597   25.0071   -0.5407 C   0  0  0  0  0  0  0  0  0  0  0  0
    9.9360   21.7581   -0.7585 C   0  0  0  0  0  0  0  0  0  0  0  0
    9.3331   21.5039    0.4729 C   0  0  0  0  0  0  0  0  0  0  0  0
    8.3019   20.6066    0.6174 C   0  0  0  0  0  0  0  0  0  0  0  0
    7.8091   19.9089   -0.4572 C   0  0  0  0  0  0  0  0  0  0  0  0
    8.3890   20.1446   -1.6819 C   0  0  0  0  0  0  0  0  0  0  0  0
    9.4415   21.0575   -1.8367 C   0  0  0  0  0  0  0  0  0  0  0  0
   10.0290   21.2745   -3.1738 C   0  0  0  0  0  0  0  0  0  0  0  0
    6.7098   18.9444   -0.3290 C   0  0  0  0  0  0  0  0  0  0  0  0
    6.3290   18.1854   -1.4227 O   0  0  0  0  0  0  0  0  0  0  0  0
    6.0850   18.7693    0.7451 O   0  0  0  0  0  0  0  0  0  0  0  0
    5.6485   18.6240   -2.0643 H   0  0  0  0  0  0  0  0  0  0  0  0
   13.7509   27.3200    2.2852 C   0  0  0  0  0  0  0  0  0  0  0  0
   13.4993   26.8572    0.9877 C   0  0  0  0  0  0  0  0  0  0  0  0
   14.3660   25.9419    0.4208 C   0  0  0  0  0  0  0  0  0  0  0  0
   15.4130   25.5479    1.1644 N   0  0  0  0  0  0  0  0  0  0  0  0
   15.6663   25.9806    2.4042 C   0  0  0  0  0  0  0  0  0  0  0  0
   14.8249   26.8708    2.9575 N   0  0  0  0  0  0  0  0  0  0  0  0
   13.0518   28.5592    4.2374 C   0  0  0  0  0  0  0  0  0  0  0  0
   12.8943   28.2407    2.8783 O   0  0  0  0  0  0  0  0  0  0  0  0
   14.6435   25.6243   -4.5484 C   0  0  0  0  0  0  0  0  0  0  0  0
   14.4739   26.7444   -5.3168 C   0  0  0  0  0  0  0  0  0  0  0  0
   14.9829   26.7346   -6.6206 C   0  0  0  0  0  0  0  0  0  0  0  0
   15.6275   25.6137   -7.0760 C   0  0  0  0  0  0  0  0  0  0  0  0
   15.8074   24.4823   -6.3221 C   0  0  0  0  0  0  0  0  0  0  0  0
   15.3067   24.4936   -5.0420 C   0  0  0  0  0  0  0  0  0  0  0  0
   16.1709   25.5992   -8.4623 C   0  0  0  0  0  0  0  0  0  0  0  0
   17.0795   24.5683   -8.5213 F   0  0  0  0  0  0  0  0  0  0  0  0
   16.8328   26.7579   -8.7681 F   0  0  0  0  0  0  0  0  0  0  0  0
   15.1286   25.3929   -9.3630 F   0  0  0  0  0  0  0  0  0  0  0  0
 30 31  1  0  0  0
 31 24  1  0  0  0
 24 25  2  0  0  0
 25 26  1  0  0  0
 26 27  2  0  0  0
 27 28  1  0  0  0
 28 29  2  0  0  0
 26  1  1  0  0  0
  1  2  1  0  0  0
  2  3  2  0  0  0
  2  4  1  0  0  0
  4  5  1  0  0  0
  5  6  2  0  0  0
  5  7  1  0  0  0
  7  8  1  0  0  0
  8  9  1  0  0  0
  9 10  1  0  0  0
 10 11  1  0  0  0
 11 12  1  0  0  0
 10 13  1  0  0  0
 13 14  2  0  0  0
 14 15  1  0  0  0
 15 16  2  0  0  0
 16 17  1  0  0  0
 17 18  2  0  0  0
 18 19  1  0  0  0
 16 20  1  0  0  0
 20 21  1  0  0  0
 20 22  2  0  0  0
  4 32  1  0  0  0
 32 33  2  0  0  0
 33 34  1  0  0  0
 34 35  2  0  0  0
 35 36  1  0  0  0
 36 37  2  0  0  0
 35 38  1  0  0  0
 38 39  1  0  0  0
 38 40  1  0  0  0
 38 41  1  0  0  0
 29 24  1  0  0  0
  7  1  1  0  0  0
 12  7  1  0  0  0
 18 13  1  0  0  0
 37 32  1  0  0  0
 21 23  1  0  0  0
M  END
> <minimizedAffinity>
16.75238

> <CNNscore>
0.5025732517

> <CNNaffinity>
7.3070878983

> <CNN_VS>
3.6723468304

> <CNNaffinity_variance>
0.8650588989

$$$$
[H]OC(=O)c1c([H])c([H])c(N2C([H])([H])C([H])([H])C3(C(=O)N(c4c([H])c([H])c(C(F)(F)F)c([H])c4[H])C(=O)N3c3nc([H])nc(OC([H])([H])[H])c3[H])C([H])([H])C2([H])[H])c(C([H])([H])[H])c1[H]


 41 45  0  0  0  0  0  0  0  0999 V2000
   15.4770   24.0252   -1.0867 N   0  0  0  0  0  0  0  0  0  0  0  0
   15.9538   24.1928   -2.4161 C   0  0  0  0  0  0  0  0  0  0  0  0
   17.0375   23.7378   -2.8831 O   0  0  0  0  0  0  0  0  0  0  0  0
   14.9864   24.9769   -3.1556 N   0  0  0  0  0  0  0  0  0  0  0  0
   13.9600   25.2450   -2.2078 C   0  0  0  0  0  0  0  0  0  0  0  0
   13.2001   26.2377   -2.2389 O   0  0  0  0  0  0  0  0  0  0  0  0
   14.0278   24.1074   -1.2355 C   0  0  0  0  0  0  0  0  0  0  0  0
   13.4567   22.9233   -1.9647 C   0  0  0  0  0  0  0  0  0  0  0  0
   12.4605   22.1338   -1.2045 C   0  0  0  0  0  0  0  0  0  0  0  0
   11.5122   22.9045   -0.4650 N   0  0  0  0  0  0  0  0  0  0  0  0
   11.9130   24.2312   -0.0138 C   0  0  0  0  0  0  0  0  0  0  0  0
   13.3816   24.4245    0.0573 C   0  0  0  0  0  0  0  0  0  0  0  0
   10.1911   22.4971   -0.1317 C   0  0  0  0  0  0  0  0  0  0  0  0
    9.5206   23.0273    0.9700 C   0  0  0  0  0  0  0  0  0  0  0  0
    8.2468   22.6413    1.3133 C   0  0  0  0  0  0  0  0  0  0  0  0
    7.5643   21.7037    0.5787 C   0  0  0  0  0  0  0  0  0  0  0  0
    8.2069   21.1679   -0.5130 C   0  0  0  0  0  0  0  0  0  0  0  0
    9.5061   21.5560   -0.8687 C   0  0  0  0  0  0  0  0  0  0  0  0
   10.1511   20.9504   -2.0507 C   0  0  0  0  0  0  0  0  0  0  0  0
    6.2041   21.2738    0.9252 C   0  0  0  0  0  0  0  0  0  0  0  0
    5.7249   21.4744    2.2087 O   0  0  0  0  0  0  0  0  0  0  0  0
    5.4375   20.7223    0.0988 O   0  0  0  0  0  0  0  0  0  0  0  0
    5.9542   20.7402    2.8983 H   0  0  0  0  0  0  0  0  0  0  0  0
   16.9725   22.4037    1.8758 C   0  0  0  0  0  0  0  0  0  0  0  0
   16.2001   22.6009    0.7245 C   0  0  0  0  0  0  0  0  0  0  0  0
   16.2503   23.8239    0.0827 C   0  0  0  0  0  0  0  0  0  0  0  0
   17.0517   24.7619    0.6140 N   0  0  0  0  0  0  0  0  0  0  0  0
   17.7950   24.5886    1.7121 C   0  0  0  0  0  0  0  0  0  0  0  0
   17.7476   23.4001    2.3380 N   0  0  0  0  0  0  0  0  0  0  0  0
   16.3541   20.0689    1.9157 C   0  0  0  0  0  0  0  0  0  0  0  0
   16.9400   21.1827    2.5399 O   0  0  0  0  0  0  0  0  0  0  0  0
   15.0946   25.3542   -4.5209 C   0  0  0  0  0  0  0  0  0  0  0  0
   14.7539   26.6103   -4.9453 C   0  0  0  0  0  0  0  0  0  0  0  0
   14.8894   26.9072   -6.3064 C   0  0  0  0  0  0  0  0  0  0  0  0
   15.3549   25.9380   -7.1570 C   0  0  0  0  0  0  0  0  0  0  0  0
   15.7011   24.6744   -6.7514 C   0  0  0  0  0  0  0  0  0  0  0  0
   15.5672   24.3845   -5.4144 C   0  0  0  0  0  0  0  0  0  0  0  0
   15.5009   26.2498   -8.6057 C   0  0  0  0  0  0  0  0  0  0  0  0
   16.4905   25.4268   -9.0906 F   0  0  0  0  0  0  0  0  0  0  0  0
   15.8931   27.5444   -8.8167 F   0  0  0  0  0  0  0  0  0  0  0  0
   14.2920   26.0056   -9.2531 F   0  0  0  0  0  0  0  0  0  0  0  0
 30 31  1  0  0  0
 31 24  1  0  0  0
 24 25  2  0  0  0
 25 26  1  0  0  0
 26 27  2  0  0  0
 27 28  1  0  0  0
 28 29  2  0  0  0
 26  1  1  0  0  0
  1  2  1  0  0  0
  2  3  2  0  0  0
  2  4  1  0  0  0
  4  5  1  0  0  0
  5  6  2  0  0  0
  5  7  1  0  0  0
  7  8  1  0  0  0
  8  9  1  0  0  0
  9 10  1  0  0  0
 10 11  1  0  0  0
 11 12  1  0  0  0
 10 13  1  0  0  0
 13 14  2  0  0  0
 14 15  1  0  0  0
 15 16  2  0  0  0
 16 17  1  0  0  0
 17 18  2  0  0  0
 18 19  1  0  0  0
 16 20  1  0  0  0
 20 21  1  0  0  0
 20 22  2  0  0  0
  4 32  1  0  0  0
 32 33  2  0  0  0
 33 34  1  0  0  0
 34 35  2  0  0  0
 35 36  1  0  0  0
 36 37  2  0  0  0
 35 38  1  0  0  0
 38 39  1  0  0  0
 38 40  1  0  0  0
 38 41  1  0  0  0
 29 24  1  0  0  0
  7  1  1  0  0  0
 12  7  1  0  0  0
 18 13  1  0  0  0
 37 32  1  0  0  0
 21 23  1  0  0  0
M  END
> <minimizedAffinity>
13.46030

> <CNNscore>
0.4984153509

> <CNNaffinity>
7.5285201073

> <CNN_VS>
3.7523300648

> <CNNaffinity_variance>
0.5040478110

$$$$
[H]c1nc(OC([H])([H])[H])c([H])c(N2C(=O)N(c3c([H])c([H])c(-c4c([H])c([H])c([H])c([H])c4[H])c([H])c3[H])C(=O)C23C([H])([H])C([H])([H])N(C([H])([H])c2nc([H])c([H])c([H])c2C([H])([H])[H])C([H])([H])C3([H])[H])n1


 40 45  0  0  0  0  0  0  0  0999 V2000
   14.4860   24.3675   -0.6965 N   0  0  0  0  0  0  0  0  0  0  0  0
   13.6521   23.7334    0.2893 C   0  0  0  0  0  0  0  0  0  0  0  0
   14.0363   23.3350    1.4376 O   0  0  0  0  0  0  0  0  0  0  0  0
   12.3245   23.6008   -0.1769 N   0  0  0  0  0  0  0  0  0  0  0  0
   12.3024   24.1521   -1.4675 C   0  0  0  0  0  0  0  0  0  0  0  0
   11.3335   24.0574   -2.2678 O   0  0  0  0  0  0  0  0  0  0  0  0
   13.5902   24.8476   -1.7153 C   0  0  0  0  0  0  0  0  0  0  0  0
   14.0389   24.4997   -3.1225 C   0  0  0  0  0  0  0  0  0  0  0  0
   14.7585   25.6731   -3.7234 C   0  0  0  0  0  0  0  0  0  0  0  0
   13.8729   26.8172   -3.9458 N   0  0  0  0  0  0  0  0  0  0  0  0
   12.7995   26.8361   -2.9941 C   0  0  0  0  0  0  0  0  0  0  0  0
   13.3587   26.3210   -1.6575 C   0  0  0  0  0  0  0  0  0  0  0  0
   17.8811   24.2560    0.8159 C   0  0  0  0  0  0  0  0  0  0  0  0
   16.4994   24.2067    0.6765 C   0  0  0  0  0  0  0  0  0  0  0  0
   15.8875   24.4221   -0.5397 C   0  0  0  0  0  0  0  0  0  0  0  0
   16.6876   24.6821   -1.5860 N   0  0  0  0  0  0  0  0  0  0  0  0
   18.0307   24.7365   -1.4827 C   0  0  0  0  0  0  0  0  0  0  0  0
   18.5907   24.5242   -0.2952 N   0  0  0  0  0  0  0  0  0  0  0  0
   19.7436   24.6210    2.3149 C   0  0  0  0  0  0  0  0  0  0  0  0
   18.5037   24.0410    2.0327 O   0  0  0  0  0  0  0  0  0  0  0  0
   11.2006   23.0225    0.5109 C   0  0  0  0  0  0  0  0  0  0  0  0
   11.1769   21.6721    0.8093 C   0  0  0  0  0  0  0  0  0  0  0  0
   10.0737   21.1362    1.4691 C   0  0  0  0  0  0  0  0  0  0  0  0
    8.9921   21.9035    1.8415 C   0  0  0  0  0  0  0  0  0  0  0  0
    9.0381   23.2425    1.5342 C   0  0  0  0  0  0  0  0  0  0  0  0
   10.1308   23.8075    0.8733 C   0  0  0  0  0  0  0  0  0  0  0  0
    7.8918   21.2442    2.5235 C   0  0  0  0  0  0  0  0  0  0  0  0
    7.8772   21.2052    3.8993 C   0  0  0  0  0  0  0  0  0  0  0  0
    6.8507   20.5902    4.6101 C   0  0  0  0  0  0  0  0  0  0  0  0
    5.8114   19.9977    3.9324 C   0  0  0  0  0  0  0  0  0  0  0  0
    5.8124   20.0280    2.5614 C   0  0  0  0  0  0  0  0  0  0  0  0
    6.8401   20.6437    1.8673 C   0  0  0  0  0  0  0  0  0  0  0  0
   13.4627   26.8532   -5.3284 C   0  0  0  0  0  0  0  0  0  0  0  0
   14.4786   26.5414   -6.3015 C   0  0  0  0  0  0  0  0  0  0  0  0
   14.4350   25.5646   -7.1978 N   0  0  0  0  0  0  0  0  0  0  0  0
   15.3965   25.3087   -8.1037 C   0  0  0  0  0  0  0  0  0  0  0  0
   16.5391   26.0819   -8.1590 C   0  0  0  0  0  0  0  0  0  0  0  0
   16.6315   27.1117   -7.2459 C   0  0  0  0  0  0  0  0  0  0  0  0
   15.6231   27.3383   -6.3357 C   0  0  0  0  0  0  0  0  0  0  0  0
   15.7509   28.4449   -5.3783 C   0  0  0  0  0  0  0  0  0  0  0  0
 19 20  1  0  0  0
 20 13  1  0  0  0
 13 14  2  0  0  0
 14 15  1  0  0  0
 15 16  2  0  0  0
 16 17  1  0  0  0
 17 18  2  0  0  0
 15  1  1  0  0  0
  1  2  1  0  0  0
  2  3  2  0  0  0
  2  4  1  0  0  0
  4  5  1  0  0  0
  5  6  2  0  0  0
  5  7  1  0  0  0
  7  8  1  0  0  0
  8  9  1  0  0  0
  9 10  1  0  0  0
 10 33  1  0  0  0
 33 34  1  0  0  0
 34 35  2  0  0  0
 35 36  1  0  0  0
 36 37  2  0  0  0
 37 38  1  0  0  0
 38 39  2  0  0  0
 39 40  1  0  0  0
 10 11  1  0  0  0
 11 12  1  0  0  0
  4 21  1  0  0  0
 21 22  2  0  0  0
 22 23  1  0  0  0
 23 24  2  0  0  0
 24 25  1  0  0  0
 25 26  2  0  0  0
 24 27  1  0  0  0
 27 28  2  0  0  0
 28 29  1  0  0  0
 29 30  2  0  0  0
 30 31  1  0  0  0
 31 32  2  0  0  0
 18 13  1  0  0  0
  7  1  1  0  0  0
 12  7  1  0  0  0
 26 21  1  0  0  0
 32 27  1  0  0  0
 39 34  1  0  0  0
M  END
> <minimizedAffinity>
3.78231

> <CNNscore>
0.6034246087

> <CNNaffinity>
8.0267095566

> <CNN_VS>
4.8435139656

> <CNNaffinity_variance>
0.8435729742

$$$$
[H]c1nc(OC([H])([H])[H])c([H])c(N2C(=O)N(c3c([H])c([H])c(-c4c([H])c([H])c([H])c([H])c4[H])c([H])c3[H])C(=O)C23C([H])([H])C([H])([H])N(C([H])([H])c2nc([H])c([H])c([H])c2C([H])([H])[H])C([H])([H])C3([H])[H])n1


 40 45  0  0  0  0  0  0  0  0999 V2000
   12.8543   25.2197   -2.2626 N   0  0  0  0  0  0  0  0  0  0  0  0
   11.6038   24.7145   -1.7622 C   0  0  0  0  0  0  0  0  0  0  0  0
   10.4593   24.9261   -2.2819 O   0  0  0  0  0  0  0  0  0  0  0  0
   11.7988   23.9372   -0.5980 N   0  0  0  0  0  0  0  0  0  0  0  0
   13.1798   23.9409   -0.3476 C   0  0  0  0  0  0  0  0  0  0  0  0
   13.7158   23.4993    0.7040 O   0  0  0  0  0  0  0  0  0  0  0  0
   13.8779   24.5425   -1.5113 C   0  0  0  0  0  0  0  0  0  0  0  0
   14.9472   25.4762   -0.9755 C   0  0  0  0  0  0  0  0  0  0  0  0
   16.1328   25.4617   -1.8974 C   0  0  0  0  0  0  0  0  0  0  0  0
   16.8167   24.1675   -1.9073 N   0  0  0  0  0  0  0  0  0  0  0  0
   15.9045   23.0956   -1.6294 C   0  0  0  0  0  0  0  0  0  0  0  0
   14.5575   23.4565   -2.2772 C   0  0  0  0  0  0  0  0  0  0  0  0
   12.1427   28.2540   -4.2910 C   0  0  0  0  0  0  0  0  0  0  0  0
   12.0913   27.3073   -3.2749 C   0  0  0  0  0  0  0  0  0  0  0  0
   12.8912   26.1848   -3.2917 C   0  0  0  0  0  0  0  0  0  0  0  0
   13.7241   26.0466   -4.3355 N   0  0  0  0  0  0  0  0  0  0  0  0
   13.7972   26.9472   -5.3361 C   0  0  0  0  0  0  0  0  0  0  0  0
   13.0120   28.0197   -5.2907 N   0  0  0  0  0  0  0  0  0  0  0  0
   11.6183   30.4482   -3.4194 C   0  0  0  0  0  0  0  0  0  0  0  0
   11.3437   29.3834   -4.2822 O   0  0  0  0  0  0  0  0  0  0  0  0
   10.8017   23.2647    0.1920 C   0  0  0  0  0  0  0  0  0  0  0  0
   10.3271   23.8341    1.3598 C   0  0  0  0  0  0  0  0  0  0  0  0
    9.3674   23.1586    2.1098 C   0  0  0  0  0  0  0  0  0  0  0  0
    8.8649   21.9327    1.7330 C   0  0  0  0  0  0  0  0  0  0  0  0
    9.3516   21.3866    0.5692 C   0  0  0  0  0  0  0  0  0  0  0  0
   10.3139   22.0407   -0.2029 C   0  0  0  0  0  0  0  0  0  0  0  0
    7.8679   21.3131    2.5889 C   0  0  0  0  0  0  0  0  0  0  0  0
    8.0414   21.3379    3.9542 C   0  0  0  0  0  0  0  0  0  0  0  0
    7.1216   20.7633    4.8264 C   0  0  0  0  0  0  0  0  0  0  0  0
    5.9991   20.1472    4.3254 C   0  0  0  0  0  0  0  0  0  0  0  0
    5.8127   20.1141    2.9671 C   0  0  0  0  0  0  0  0  0  0  0  0
    6.7361   20.6901    2.1112 C   0  0  0  0  0  0  0  0  0  0  0  0
   17.9736   24.2220   -1.0471 C   0  0  0  0  0  0  0  0  0  0  0  0
   17.8094   23.6733    0.2751 C   0  0  0  0  0  0  0  0  0  0  0  0
   16.8386   22.8627    0.6746 N   0  0  0  0  0  0  0  0  0  0  0  0
   16.7219   22.3556    1.9156 C   0  0  0  0  0  0  0  0  0  0  0  0
   17.6473   22.6615    2.8937 C   0  0  0  0  0  0  0  0  0  0  0  0
   18.6774   23.5023    2.5267 C   0  0  0  0  0  0  0  0  0  0  0  0
   18.7584   23.9986    1.2445 C   0  0  0  0  0  0  0  0  0  0  0  0
   19.8694   24.8896    0.8848 C   0  0  0  0  0  0  0  0  0  0  0  0
 19 20  1  0  0  0
 20 13  1  0  0  0
 13 14  2  0  0  0
 14 15  1  0  0  0
 15 16  2  0  0  0
 16 17  1  0  0  0
 17 18  2  0  0  0
 15  1  1  0  0  0
  1  2  1  0  0  0
  2  3  2  0  0  0
  2  4  1  0  0  0
  4  5  1  0  0  0
  5  6  2  0  0  0
  5  7  1  0  0  0
  7  8  1  0  0  0
  8  9  1  0  0  0
  9 10  1  0  0  0
 10 33  1  0  0  0
 33 34  1  0  0  0
 34 35  2  0  0  0
 35 36  1  0  0  0
 36 37  2  0  0  0
 37 38  1  0  0  0
 38 39  2  0  0  0
 39 40  1  0  0  0
 10 11  1  0  0  0
 11 12  1  0  0  0
  4 21  1  0  0  0
 21 22  2  0  0  0
 22 23  1  0  0  0
 23 24  2  0  0  0
 24 25  1  0  0  0
 25 26  2  0  0  0
 24 27  1  0  0  0
 27 28  2  0  0  0
 28 29  1  0  0  0
 29 30  2  0  0  0
 30 31  1  0  0  0
 31 32  2  0  0  0
 18 13  1  0  0  0
  7  1  1  0  0  0
 12  7  1  0  0  0
 26 21  1  0  0  0
 32 27  1  0  0  0
 39 34  1  0  0  0
M  END
> <minimizedAffinity>
22.54153

> <CNNscore>
0.5437769294

> <CNNaffinity>
7.7564721107

> <CNN_VS>
4.2177906036

> <CNNaffinity_variance>
1.0486758947

$$$$
[H]c1nc(OC([H])([H])[H])c([H])c(N2C(=O)N(c3c([H])c([H])c(-c4c([H])c([H])c([H])c([H])c4[H])c([H])c3[H])C(=O)C23C([H])([H])C([H])([H])N(C([H])([H])c2nc([H])c([H])c([H])c2C([H])([H])[H])C([H])([H])C3([H])[H])n1


 40 45  0  0  0  0  0  0  0  0999 V2000
   11.2224   24.0631   -0.1186 N   0  0  0  0  0  0  0  0  0  0  0  0
   11.5814   25.0728   -1.0783 C   0  0  0  0  0  0  0  0  0  0  0  0
   10.8995   26.1163   -1.3445 O   0  0  0  0  0  0  0  0  0  0  0  0
   12.8092   24.7637   -1.7064 N   0  0  0  0  0  0  0  0  0  0  0  0
   13.2434   23.5509   -1.1491 C   0  0  0  0  0  0  0  0  0  0  0  0
   14.2118   22.8716   -1.5839 O   0  0  0  0  0  0  0  0  0  0  0  0
   12.3808   23.2195    0.0126 C   0  0  0  0  0  0  0  0  0  0  0  0
   12.0572   21.7387   -0.0608 C   0  0  0  0  0  0  0  0  0  0  0  0
   11.9509   21.1797    1.3292 C   0  0  0  0  0  0  0  0  0  0  0  0
   13.2332   21.1903    2.0350 N   0  0  0  0  0  0  0  0  0  0  0  0
   14.0681   22.2646    1.5798 C   0  0  0  0  0  0  0  0  0  0  0  0
   13.1525   23.4599    1.2674 C   0  0  0  0  0  0  0  0  0  0  0  0
    7.6990   23.1803    0.6772 C   0  0  0  0  0  0  0  0  0  0  0  0
    8.9500   23.1888    0.0721 C   0  0  0  0  0  0  0  0  0  0  0  0
    9.9454   24.0495    0.4822 C   0  0  0  0  0  0  0  0  0  0  0  0
    9.6520   24.8811    1.4945 N   0  0  0  0  0  0  0  0  0  0  0  0
    8.4484   24.8968    2.1017 C   0  0  0  0  0  0  0  0  0  0  0  0
    7.5089   24.0538    1.6826 N   0  0  0  0  0  0  0  0  0  0  0  0
    6.3515   21.2056    1.0432 C   0  0  0  0  0  0  0  0  0  0  0  0
    6.6941   22.3198    0.2721 O   0  0  0  0  0  0  0  0  0  0  0  0
   13.4997   25.5212   -2.7162 C   0  0  0  0  0  0  0  0  0  0  0  0
   12.7931   26.2136   -3.6830 C   0  0  0  0  0  0  0  0  0  0  0  0
   13.4861   26.9329   -4.6536 C   0  0  0  0  0  0  0  0  0  0  0  0
   14.8619   26.9845   -4.6919 C   0  0  0  0  0  0  0  0  0  0  0  0
   15.5426   26.2886   -3.7213 C   0  0  0  0  0  0  0  0  0  0  0  0
   14.8746   25.5588   -2.7359 C   0  0  0  0  0  0  0  0  0  0  0  0
   15.4852   27.7626   -5.7486 C   0  0  0  0  0  0  0  0  0  0  0  0
   15.9273   27.1245   -6.8853 C   0  0  0  0  0  0  0  0  0  0  0  0
   16.5308   27.8145   -7.9326 C   0  0  0  0  0  0  0  0  0  0  0  0
   16.6989   29.1764   -7.8451 C   0  0  0  0  0  0  0  0  0  0  0  0
   16.2639   29.8260   -6.7185 C   0  0  0  0  0  0  0  0  0  0  0  0
   15.6649   29.1268   -5.6844 C   0  0  0  0  0  0  0  0  0  0  0  0
   13.8351   19.8808    1.9701 C   0  0  0  0  0  0  0  0  0  0  0  0
   14.9753   19.7474    1.0991 C   0  0  0  0  0  0  0  0  0  0  0  0
   16.2448   19.6636    1.4737 N   0  0  0  0  0  0  0  0  0  0  0  0
   17.2870   19.5251    0.6338 C   0  0  0  0  0  0  0  0  0  0  0  0
   17.0902   19.4586   -0.7313 C   0  0  0  0  0  0  0  0  0  0  0  0
   15.7854   19.5416   -1.1710 C   0  0  0  0  0  0  0  0  0  0  0  0
   14.7484   19.6828   -0.2758 C   0  0  0  0  0  0  0  0  0  0  0  0
   13.3699   19.7656   -0.7763 C   0  0  0  0  0  0  0  0  0  0  0  0
 19 20  1  0  0  0
 20 13  1  0  0  0
 13 14  2  0  0  0
 14 15  1  0  0  0
 15 16  2  0  0  0
 16 17  1  0  0  0
 17 18  2  0  0  0
 15  1  1  0  0  0
  1  2  1  0  0  0
  2  3  2  0  0  0
  2  4  1  0  0  0
  4  5  1  0  0  0
  5  6  2  0  0  0
  5  7  1  0  0  0
  7  8  1  0  0  0
  8  9  1  0  0  0
  9 10  1  0  0  0
 10 33  1  0  0  0
 33 34  1  0  0  0
 34 35  2  0  0  0
 35 36  1  0  0  0
 36 37  2  0  0  0
 37 38  1  0  0  0
 38 39  2  0  0  0
 39 40  1  0  0  0
 10 11  1  0  0  0
 11 12  1  0  0  0
  4 21  1  0  0  0
 21 22  2  0  0  0
 22 23  1  0  0  0
 23 24  2  0  0  0
 24 25  1  0  0  0
 25 26  2  0  0  0
 24 27  1  0  0  0
 27 28  2  0  0  0
 28 29  1  0  0  0
 29 30  2  0  0  0
 30 31  1  0  0  0
 31 32  2  0  0  0
 18 13  1  0  0  0
  7  1  1  0  0  0
 12  7  1  0  0  0
 26 21  1  0  0  0
 32 27  1  0  0  0
 39 34  1  0  0  0
M  END
> <minimizedAffinity>
25.37745

> <CNNscore>
0.5342440605

> <CNNaffinity>
7.4122467041

> <CNN_VS>
3.9599487782

> <CNNaffinity_variance>
0.6286652684

$$$$
[H]c1nc(OC([H])([H])[H])c([H])c(N2C(=O)N(c3c([H])c([H])c(-c4c([H])c([H])c([H])c([H])c4[H])c([H])c3[H])C(=O)C23C([H])([H])C([H])([H])N(C([H])([H])c2nc([H])c([H])c([H])c2C([H])([H])[H])C([H])([H])C3([H])[H])n1


 40 45  0  0  0  0  0  0  0  0999 V2000
   14.5813   25.3458   -1.7743 N   0  0  0  0  0  0  0  0  0  0  0  0
   14.4327   24.5052   -0.6165 C   0  0  0  0  0  0  0  0  0  0  0  0
   15.3608   24.2056    0.2042 O   0  0  0  0  0  0  0  0  0  0  0  0
   13.1040   24.0394   -0.4934 N   0  0  0  0  0  0  0  0  0  0  0  0
   12.3936   24.5822   -1.5753 C   0  0  0  0  0  0  0  0  0  0  0  0
   11.2217   24.2499   -1.8987 O   0  0  0  0  0  0  0  0  0  0  0  0
   13.2465   25.5903   -2.2533 C   0  0  0  0  0  0  0  0  0  0  0  0
   13.0987   25.3880   -3.7500 C   0  0  0  0  0  0  0  0  0  0  0  0
   13.1942   26.7151   -4.4467 C   0  0  0  0  0  0  0  0  0  0  0  0
   12.0665   27.5937   -4.1318 N   0  0  0  0  0  0  0  0  0  0  0  0
   11.5462   27.3223   -2.8226 C   0  0  0  0  0  0  0  0  0  0  0  0
   12.7357   26.9528   -1.9208 C   0  0  0  0  0  0  0  0  0  0  0  0
   17.2807   27.1048   -3.6307 C   0  0  0  0  0  0  0  0  0  0  0  0
   16.0195   26.7007   -3.2098 C   0  0  0  0  0  0  0  0  0  0  0  0
   15.8562   25.7593   -2.2163 C   0  0  0  0  0  0  0  0  0  0  0  0
   16.9724   25.2491   -1.6720 N   0  0  0  0  0  0  0  0  0  0  0  0
   18.2094   25.6206   -2.0584 C   0  0  0  0  0  0  0  0  0  0  0  0
   18.3333   26.5313   -3.0198 N   0  0  0  0  0  0  0  0  0  0  0  0
   16.3525   28.6408   -5.2519 C   0  0  0  0  0  0  0  0  0  0  0  0
   17.4538   28.0489   -4.6271 O   0  0  0  0  0  0  0  0  0  0  0  0
   12.5599   23.1814    0.5256 C   0  0  0  0  0  0  0  0  0  0  0  0
   13.1036   21.9307    0.7567 C   0  0  0  0  0  0  0  0  0  0  0  0
   12.5532   21.1169    1.7440 C   0  0  0  0  0  0  0  0  0  0  0  0
   11.4774   21.5098    2.5091 C   0  0  0  0  0  0  0  0  0  0  0  0
   10.9539   22.7565    2.2612 C   0  0  0  0  0  0  0  0  0  0  0  0
   11.4848   23.5939    1.2779 C   0  0  0  0  0  0  0  0  0  0  0  0
   10.9794   20.5831    3.5109 C   0  0  0  0  0  0  0  0  0  0  0  0
   11.6594   19.4086    3.7408 C   0  0  0  0  0  0  0  0  0  0  0  0
   11.2337   18.4815    4.6875 C   0  0  0  0  0  0  0  0  0  0  0  0
   10.1000   18.7308    5.4247 C   0  0  0  0  0  0  0  0  0  0  0  0
    9.4116   19.8966    5.2065 C   0  0  0  0  0  0  0  0  0  0  0  0
    9.8469   20.8100    4.2615 C   0  0  0  0  0  0  0  0  0  0  0  0
   11.0953   27.5395   -5.1972 C   0  0  0  0  0  0  0  0  0  0  0  0
   10.0367   28.5157   -5.1429 C   0  0  0  0  0  0  0  0  0  0  0  0
   10.1394   29.7626   -4.7026 N   0  0  0  0  0  0  0  0  0  0  0  0
    9.1325   30.6550   -4.6786 C   0  0  0  0  0  0  0  0  0  0  0  0
    7.8738   30.3125   -5.1313 C   0  0  0  0  0  0  0  0  0  0  0  0
    7.7163   29.0247   -5.5998 C   0  0  0  0  0  0  0  0  0  0  0  0
    8.7747   28.1434   -5.6063 C   0  0  0  0  0  0  0  0  0  0  0  0
    8.5747   26.7798   -6.1143 C   0  0  0  0  0  0  0  0  0  0  0  0
 19 20  1  0  0  0
 20 13  1  0  0  0
 13 14  2  0  0  0
 14 15  1  0  0  0
 15 16  2  0  0  0
 16 17  1  0  0  0
 17 18  2  0  0  0
 15  1  1  0  0  0
  1  2  1  0  0  0
  2  3  2  0  0  0
  2  4  1  0  0  0
  4  5  1  0  0  0
  5  6  2  0  0  0
  5  7  1  0  0  0
  7  8  1  0  0  0
  8  9  1  0  0  0
  9 10  1  0  0  0
 10 33  1  0  0  0
 33 34  1  0  0  0
 34 35  2  0  0  0
 35 36  1  0  0  0
 36 37  2  0  0  0
 37 38  1  0  0  0
 38 39  2  0  0  0
 39 40  1  0  0  0
 10 11  1  0  0  0
 11 12  1  0  0  0
  4 21  1  0  0  0
 21 22  2  0  0  0
 22 23  1  0  0  0
 23 24  2  0  0  0
 24 25  1  0  0  0
 25 26  2  0  0  0
 24 27  1  0  0  0
 27 28  2  0  0  0
 28 29  1  0  0  0
 29 30  2  0  0  0
 30 31  1  0  0  0
 31 32  2  0  0  0
 18 13  1  0  0  0
  7  1  1  0  0  0
 12  7  1  0  0  0
 26 21  1  0  0  0
 32 27  1  0  0  0
 39 34  1  0  0  0
M  END
> <minimizedAffinity>
20.16361

> <CNNscore>
0.5138415098

> <CNNaffinity>
7.3607506752

> <CNN_VS>
3.7822592258

> <CNNaffinity_variance>
0.8423669934

$$$$
[H]c1nc(OC([H])([H])[H])c([H])c(N2C(=O)N(c3c([H])c([H])c(-c4c([H])c([H])c([H])c([H])c4[H])c([H])c3[H])C(=O)C23C([H])([H])C([H])([H])N(C([H])([H])c2nc([H])c([H])c([H])c2C([H])([H])[H])C([H])([H])C3([H])[H])n1


 40 45  0  0  0  0  0  0  0  0999 V2000
   15.5437   24.2761   -0.8202 N   0  0  0  0  0  0  0  0  0  0  0  0
   14.4720   23.3980   -0.4332 C   0  0  0  0  0  0  0  0  0  0  0  0
   14.4548   22.6672    0.6110 O   0  0  0  0  0  0  0  0  0  0  0  0
   13.4148   23.4423   -1.3702 N   0  0  0  0  0  0  0  0  0  0  0  0
   13.8062   24.3526   -2.3642 C   0  0  0  0  0  0  0  0  0  0  0  0
   13.1985   24.5236   -3.4550 O   0  0  0  0  0  0  0  0  0  0  0  0
   15.0317   25.0589   -1.9139 C   0  0  0  0  0  0  0  0  0  0  0  0
   15.9811   25.1341   -3.0952 C   0  0  0  0  0  0  0  0  0  0  0  0
   16.7623   26.4153   -3.0293 C   0  0  0  0  0  0  0  0  0  0  0  0
   15.9178   27.5949   -3.2244 N   0  0  0  0  0  0  0  0  0  0  0  0
   14.5784   27.3562   -2.7691 C   0  0  0  0  0  0  0  0  0  0  0  0
   14.6671   26.4537   -1.5273 C   0  0  0  0  0  0  0  0  0  0  0  0
   19.1714   23.8573   -0.1192 C   0  0  0  0  0  0  0  0  0  0  0  0
   17.9524   23.8739   -0.7862 C   0  0  0  0  0  0  0  0  0  0  0  0
   16.7868   24.2476   -0.1525 C   0  0  0  0  0  0  0  0  0  0  0  0
   16.8817   24.5958    1.1406 N   0  0  0  0  0  0  0  0  0  0  0  0
   18.0491   24.5900    1.8149 C   0  0  0  0  0  0  0  0  0  0  0  0
   19.1562   24.2242    1.1751 N   0  0  0  0  0  0  0  0  0  0  0  0
   20.3398   23.0411   -2.0731 C   0  0  0  0  0  0  0  0  0  0  0  0
   20.3462   23.4836   -0.7473 O   0  0  0  0  0  0  0  0  0  0  0  0
   12.1748   22.7132   -1.3374 C   0  0  0  0  0  0  0  0  0  0  0  0
   10.9663   23.3826   -1.2691 C   0  0  0  0  0  0  0  0  0  0  0  0
    9.7807   22.6527   -1.2311 C   0  0  0  0  0  0  0  0  0  0  0  0
    9.7607   21.2758   -1.2589 C   0  0  0  0  0  0  0  0  0  0  0  0
   10.9736   20.6325   -1.3266 C   0  0  0  0  0  0  0  0  0  0  0  0
   12.1780   21.3379   -1.3659 C   0  0  0  0  0  0  0  0  0  0  0  0
    8.4691   20.6123   -1.2125 C   0  0  0  0  0  0  0  0  0  0  0  0
    7.6916   20.7276   -0.0825 C   0  0  0  0  0  0  0  0  0  0  0  0
    6.4453   20.1171    0.0222 C   0  0  0  0  0  0  0  0  0  0  0  0
    5.9606   19.3714   -1.0264 C   0  0  0  0  0  0  0  0  0  0  0  0
    6.7241   19.2470   -2.1587 C   0  0  0  0  0  0  0  0  0  0  0  0
    7.9622   19.8601   -2.2491 C   0  0  0  0  0  0  0  0  0  0  0  0
   16.0259   28.0502   -4.5891 C   0  0  0  0  0  0  0  0  0  0  0  0
   15.7821   27.0630   -5.6100 C   0  0  0  0  0  0  0  0  0  0  0  0
   16.6967   26.4780   -6.3720 N   0  0  0  0  0  0  0  0  0  0  0  0
   16.4365   25.5475   -7.3085 C   0  0  0  0  0  0  0  0  0  0  0  0
   15.1433   25.1251   -7.5448 C   0  0  0  0  0  0  0  0  0  0  0  0
   14.1552   25.7049   -6.7766 C   0  0  0  0  0  0  0  0  0  0  0  0
   14.4664   26.6541   -5.8284 C   0  0  0  0  0  0  0  0  0  0  0  0
   13.3910   27.2505   -5.0250 C   0  0  0  0  0  0  0  0  0  0  0  0
 19 20  1  0  0  0
 20 13  1  0  0  0
 13 14  2  0  0  0
 14 15  1  0  0  0
 15 16  2  0  0  0
 16 17  1  0  0  0
 17 18  2  0  0  0
 15  1  1  0  0  0
  1  2  1  0  0  0
  2  3  2  0  0  0
  2  4  1  0  0  0
  4  5  1  0  0  0
  5  6  2  0  0  0
  5  7  1  0  0  0
  7  8  1  0  0  0
  8  9  1  0  0  0
  9 10  1  0  0  0
 10 33  1  0  0  0
 33 34  1  0  0  0
 34 35  2  0  0  0
 35 36  1  0  0  0
 36 37  2  0  0  0
 37 38  1  0  0  0
 38 39  2  0  0  0
 39 40  1  0  0  0
 10 11  1  0  0  0
 11 12  1  0  0  0
  4 21  1  0  0  0
 21 22  2  0  0  0
 22 23  1  0  0  0
 23 24  2  0  0  0
 24 25  1  0  0  0
 25 26  2  0  0  0
 24 27  1  0  0  0
 27 28  2  0  0  0
 28 29  1  0  0  0
 29 30  2  0  0  0
 30 31  1  0  0  0
 31 32  2  0  0  0
 18 13  1  0  0  0
  7  1  1  0  0  0
 12  7  1  0  0  0
 26 21  1  0  0  0
 32 27  1  0  0  0
 39 34  1  0  0  0
M  END
> <minimizedAffinity>
18.51200

> <CNNscore>
0.5005087852

> <CNNaffinity>
7.9074678421

> <CNN_VS>
3.9577572346

> <CNNaffinity_variance>
1.2061659098

$$$$
[H]c1nc(OC([H])([H])[H])c([H])c(N2C(=O)N(c3c([H])c([H])c(-c4c([H])c([H])c([H])c([H])c4[H])c([H])c3[H])C(=O)C23C([H])([H])C([H])([H])N(C([H])([H])c2nc([H])c([H])c([H])c2C([H])([H])[H])C([H])([H])C3([H])[H])n1


 40 45  0  0  0  0  0  0  0  0999 V2000
   12.8676   22.5711   -0.1580 N   0  0  0  0  0  0  0  0  0  0  0  0
   13.7383   23.0747   -1.1865 C   0  0  0  0  0  0  0  0  0  0  0  0
   14.8347   22.5393   -1.5552 O   0  0  0  0  0  0  0  0  0  0  0  0
   13.2221   24.2620   -1.7534 N   0  0  0  0  0  0  0  0  0  0  0  0
   12.0142   24.5242   -1.0885 C   0  0  0  0  0  0  0  0  0  0  0  0
   11.3549   25.5924   -1.2004 O   0  0  0  0  0  0  0  0  0  0  0  0
   11.6612   23.3501   -0.2516 C   0  0  0  0  0  0  0  0  0  0  0  0
   11.1753   23.8687    1.0891 C   0  0  0  0  0  0  0  0  0  0  0  0
   10.1060   22.9579    1.6209 C   0  0  0  0  0  0  0  0  0  0  0  0
    8.8894   22.9904    0.8075 N   0  0  0  0  0  0  0  0  0  0  0  0
    9.1886   23.2905   -0.5632 C   0  0  0  0  0  0  0  0  0  0  0  0
   10.5314   22.6211   -0.8995 C   0  0  0  0  0  0  0  0  0  0  0  0
   14.8703   19.8388    1.3752 C   0  0  0  0  0  0  0  0  0  0  0  0
   14.4808   20.8719    0.5314 C   0  0  0  0  0  0  0  0  0  0  0  0
   13.2719   21.5156    0.6871 C   0  0  0  0  0  0  0  0  0  0  0  0
   12.4857   21.0992    1.6926 N   0  0  0  0  0  0  0  0  0  0  0  0
   12.8354   20.1002    2.5277 C   0  0  0  0  0  0  0  0  0  0  0  0
   14.0086   19.4990    2.3510 N   0  0  0  0  0  0  0  0  0  0  0  0
   17.2884   19.8791    1.3632 C   0  0  0  0  0  0  0  0  0  0  0  0
   16.0817   19.1873    1.2262 O   0  0  0  0  0  0  0  0  0  0  0  0
   13.7964   25.0619   -2.8026 C   0  0  0  0  0  0  0  0  0  0  0  0
   15.1322   24.9307   -3.1366 C   0  0  0  0  0  0  0  0  0  0  0  0
   15.6650   25.7224   -4.1511 C   0  0  0  0  0  0  0  0  0  0  0  0
   14.9087   26.6415   -4.8441 C   0  0  0  0  0  0  0  0  0  0  0  0
   13.5840   26.7544   -4.4945 C   0  0  0  0  0  0  0  0  0  0  0  0
   13.0226   25.9741   -3.4816 C   0  0  0  0  0  0  0  0  0  0  0  0
   15.5636   27.4182   -5.8825 C   0  0  0  0  0  0  0  0  0  0  0  0
   16.0917   26.7715   -6.9769 C   0  0  0  0  0  0  0  0  0  0  0  0
   16.7295   27.4596   -8.0050 C   0  0  0  0  0  0  0  0  0  0  0  0
   16.8448   28.8283   -7.9410 C   0  0  0  0  0  0  0  0  0  0  0  0
   16.3240   29.4864   -6.8565 C   0  0  0  0  0  0  0  0  0  0  0  0
   15.6918   28.7890   -5.8412 C   0  0  0  0  0  0  0  0  0  0  0  0
    7.9156   23.8587    1.4232 C   0  0  0  0  0  0  0  0  0  0  0  0
    8.2224   24.3148    2.7552 C   0  0  0  0  0  0  0  0  0  0  0  0
    8.8903   25.4153    3.0747 N   0  0  0  0  0  0  0  0  0  0  0  0
    9.1481   25.8208    4.3316 C   0  0  0  0  0  0  0  0  0  0  0  0
    8.7135   25.0834    5.4151 C   0  0  0  0  0  0  0  0  0  0  0  0
    8.0133   23.9286    5.1341 C   0  0  0  0  0  0  0  0  0  0  0  0
    7.7718   23.5508    3.8319 C   0  0  0  0  0  0  0  0  0  0  0  0
    7.0207   22.3167    3.5664 C   0  0  0  0  0  0  0  0  0  0  0  0
 19 20  1  0  0  0
 20 13  1  0  0  0
 13 14  2  0  0  0
 14 15  1  0  0  0
 15 16  2  0  0  0
 16 17  1  0  0  0
 17 18  2  0  0  0
 15  1  1  0  0  0
  1  2  1  0  0  0
  2  3  2  0  0  0
  2  4  1  0  0  0
  4  5  1  0  0  0
  5  6  2  0  0  0
  5  7  1  0  0  0
  7  8  1  0  0  0
  8  9  1  0  0  0
  9 10  1  0  0  0
 10 33  1  0  0  0
 33 34  1  0  0  0
 34 35  2  0  0  0
 35 36  1  0  0  0
 36 37  2  0  0  0
 37 38  1  0  0  0
 38 39  2  0  0  0
 39 40  1  0  0  0
 10 11  1  0  0  0
 11 12  1  0  0  0
  4 21  1  0  0  0
 21 22  2  0  0  0
 22 23  1  0  0  0
 23 24  2  0  0  0
 24 25  1  0  0  0
 25 26  2  0  0  0
 24 27  1  0  0  0
 27 28  2  0  0  0
 28 29  1  0  0  0
 29 30  2  0  0  0
 30 31  1  0  0  0
 31 32  2  0  0  0
 18 13  1  0  0  0
  7  1  1  0  0  0
 12  7  1  0  0  0
 26 21  1  0  0  0
 32 27  1  0  0  0
 39 34  1  0  0  0
M  END
> <minimizedAffinity>
10.65775

> <CNNscore>
0.4928787053

> <CNNaffinity>
7.5369215012

> <CNN_VS>
3.7147881985

> <CNNaffinity_variance>
0.2460568845

$$$$
[H]c1nc(OC([H])([H])[H])c([H])c(N2C(=O)N(c3c([H])c([H])c(-c4c([H])c([H])c([H])c([H])c4[H])c([H])c3[H])C(=O)C23C([H])([H])C([H])([H])N(C([H])([H])c2nc([H])c([H])c([H])c2C([H])([H])[H])C([H])([H])C3([H])[H])n1


 40 45  0  0  0  0  0  0  0  0999 V2000
   14.0771   26.3141   -3.2870 N   0  0  0  0  0  0  0  0  0  0  0  0
   14.2078   25.3844   -2.1971 C   0  0  0  0  0  0  0  0  0  0  0  0
   15.3078   25.0009   -1.6797 O   0  0  0  0  0  0  0  0  0  0  0  0
   12.9420   24.9355   -1.7571 N   0  0  0  0  0  0  0  0  0  0  0  0
   11.9920   25.5786   -2.5657 C   0  0  0  0  0  0  0  0  0  0  0  0
   10.7639   25.2964   -2.5867 O   0  0  0  0  0  0  0  0  0  0  0  0
   12.6740   26.6225   -3.3712 C   0  0  0  0  0  0  0  0  0  0  0  0
   12.1257   26.5464   -4.7840 C   0  0  0  0  0  0  0  0  0  0  0  0
   12.0860   27.9241   -5.3809 C   0  0  0  0  0  0  0  0  0  0  0  0
   11.1190   28.7952   -4.7111 N   0  0  0  0  0  0  0  0  0  0  0  0
   10.9547   28.4274   -3.3341 C   0  0  0  0  0  0  0  0  0  0  0  0
   12.3252   27.9626   -2.8141 C   0  0  0  0  0  0  0  0  0  0  0  0
   16.4009   27.0153   -6.1040 C   0  0  0  0  0  0  0  0  0  0  0  0
   15.2882   26.5866   -5.3902 C   0  0  0  0  0  0  0  0  0  0  0  0
   15.2043   26.7381   -4.0227 C   0  0  0  0  0  0  0  0  0  0  0  0
   16.2476   27.3196   -3.4097 N   0  0  0  0  0  0  0  0  0  0  0  0
   17.3405   27.7459   -4.0741 C   0  0  0  0  0  0  0  0  0  0  0  0
   17.3910   27.5852   -5.3934 N   0  0  0  0  0  0  0  0  0  0  0  0
   15.8099   25.8405   -8.1337 C   0  0  0  0  0  0  0  0  0  0  0  0
   16.4935   26.8673   -7.4765 O   0  0  0  0  0  0  0  0  0  0  0  0
   12.6541   24.0074   -0.6958 C   0  0  0  0  0  0  0  0  0  0  0  0
   11.9952   24.4261    0.4460 C   0  0  0  0  0  0  0  0  0  0  0  0
   11.7355   23.5091    1.4616 C   0  0  0  0  0  0  0  0  0  0  0  0
   12.1116   22.1869    1.3758 C   0  0  0  0  0  0  0  0  0  0  0  0
   12.7651   21.7940    0.2320 C   0  0  0  0  0  0  0  0  0  0  0  0
   13.0392   22.6911   -0.8024 C   0  0  0  0  0  0  0  0  0  0  0  0
   11.7938   21.3145    2.4931 C   0  0  0  0  0  0  0  0  0  0  0  0
   12.2702   20.0231    2.4975 C   0  0  0  0  0  0  0  0  0  0  0  0
   12.0015   19.1401    3.5393 C   0  0  0  0  0  0  0  0  0  0  0  0
   11.2375   19.5542    4.6048 C   0  0  0  0  0  0  0  0  0  0  0  0
   10.7554   20.8380    4.6143 C   0  0  0  0  0  0  0  0  0  0  0  0
   11.0309   21.7058    3.5712 C   0  0  0  0  0  0  0  0  0  0  0  0
    9.8982   28.8471   -5.4781 C   0  0  0  0  0  0  0  0  0  0  0  0
    8.7076   29.2147   -4.7543 C   0  0  0  0  0  0  0  0  0  0  0  0
    8.6307   30.0894   -3.7602 N   0  0  0  0  0  0  0  0  0  0  0  0
    7.4982   30.4211   -3.1136 C   0  0  0  0  0  0  0  0  0  0  0  0
    6.2920   29.8458   -3.4607 C   0  0  0  0  0  0  0  0  0  0  0  0
    6.3200   28.9283   -4.4904 C   0  0  0  0  0  0  0  0  0  0  0  0
    7.5023   28.6182   -5.1252 C   0  0  0  0  0  0  0  0  0  0  0  0
    7.4978   27.6389   -6.2199 C   0  0  0  0  0  0  0  0  0  0  0  0
 19 20  1  0  0  0
 20 13  1  0  0  0
 13 14  2  0  0  0
 14 15  1  0  0  0
 15 16  2  0  0  0
 16 17  1  0  0  0
 17 18  2  0  0  0
 15  1  1  0  0  0
  1  2  1  0  0  0
  2  3  2  0  0  0
  2  4  1  0  0  0
  4  5  1  0  0  0
  5  6  2  0  0  0
  5  7  1  0  0  0
  7  8  1  0  0  0
  8  9  1  0  0  0
  9 10  1  0  0  0
 10 33  1  0  0  0
 33 34  1  0  0  0
 34 35  2  0  0  0
 35 36  1  0  0  0
 36 37  2  0  0  0
 37 38  1  0  0  0
 38 39  2  0  0  0
 39 40  1  0  0  0
 10 11  1  0  0  0
 11 12  1  0  0  0
  4 21  1  0  0  0
 21 22  2  0  0  0
 22 23  1  0  0  0
 23 24  2  0  0  0
 24 25  1  0  0  0
 25 26  2  0  0  0
 24 27  1  0  0  0
 27 28  2  0  0  0
 28 29  1  0  0  0
 29 30  2  0  0  0
 30 31  1  0  0  0
 31 32  2  0  0  0
 18 13  1  0  0  0
  7  1  1  0  0  0
 12  7  1  0  0  0
 26 21  1  0  0  0
 32 27  1  0  0  0
 39 34  1  0  0  0
M  END
> <minimizedAffinity>
19.80172

> <CNNscore>
0.4829764962

> <CNNaffinity>
7.3168168068

> <CNN_VS>
3.5338504314

> <CNNaffinity_variance>
0.7373536825

$$$$
[H]c1nc(OC([H])([H])[H])c([H])c(N2C(=O)N(c3c([H])c([H])c(-c4c([H])c([H])c([H])c([H])c4[H])c([H])c3[H])C(=O)C23C([H])([H])C([H])([H])N(C([H])([H])c2nc([H])c([H])c([H])c2C([H])([H])[H])C([H])([H])C3([H])[H])n1


 40 45  0  0  0  0  0  0  0  0999 V2000
   14.2144   25.5241   -2.9116 N   0  0  0  0  0  0  0  0  0  0  0  0
   12.8942   25.1072   -2.5212 C   0  0  0  0  0  0  0  0  0  0  0  0
   11.8204   25.3549   -3.1619 O   0  0  0  0  0  0  0  0  0  0  0  0
   12.9289   24.3727   -1.3142 N   0  0  0  0  0  0  0  0  0  0  0  0
   14.2764   24.3155   -0.9256 C   0  0  0  0  0  0  0  0  0  0  0  0
   14.6801   23.8933    0.1911 O   0  0  0  0  0  0  0  0  0  0  0  0
   15.1190   24.8282   -2.0351 C   0  0  0  0  0  0  0  0  0  0  0  0
   16.1808   25.7277   -1.4301 C   0  0  0  0  0  0  0  0  0  0  0  0
   17.4491   25.6110   -2.2261 C   0  0  0  0  0  0  0  0  0  0  0  0
   18.0568   24.2838   -2.1168 N   0  0  0  0  0  0  0  0  0  0  0  0
   17.0628   23.2740   -1.8915 C   0  0  0  0  0  0  0  0  0  0  0  0
   15.8089   23.6757   -2.6858 C   0  0  0  0  0  0  0  0  0  0  0  0
   14.8072   26.9409   -6.2981 C   0  0  0  0  0  0  0  0  0  0  0  0
   14.6262   26.0288   -5.2654 C   0  0  0  0  0  0  0  0  0  0  0  0
   14.4072   26.4398   -3.9681 C   0  0  0  0  0  0  0  0  0  0  0  0
   14.3762   27.7635   -3.7461 N   0  0  0  0  0  0  0  0  0  0  0  0
   14.5481   28.6729   -4.7264 C   0  0  0  0  0  0  0  0  0  0  0  0
   14.7576   28.2442   -5.9679 N   0  0  0  0  0  0  0  0  0  0  0  0
   15.6389   25.3112   -7.8797 C   0  0  0  0  0  0  0  0  0  0  0  0
   15.0276   26.5373   -7.6030 O   0  0  0  0  0  0  0  0  0  0  0  0
   11.8224   23.7884   -0.6039 C   0  0  0  0  0  0  0  0  0  0  0  0
   10.5712   24.3767   -0.6432 C   0  0  0  0  0  0  0  0  0  0  0  0
    9.5188   23.7948    0.0594 C   0  0  0  0  0  0  0  0  0  0  0  0
    9.6733   22.6442    0.8006 C   0  0  0  0  0  0  0  0  0  0  0  0
   10.9255   22.0777    0.8250 C   0  0  0  0  0  0  0  0  0  0  0  0
   11.9993   22.6388    0.1306 C   0  0  0  0  0  0  0  0  0  0  0  0
    8.5107   22.1216    1.4974 C   0  0  0  0  0  0  0  0  0  0  0  0
    8.4464   22.2178    2.8690 C   0  0  0  0  0  0  0  0  0  0  0  0
    7.3593   21.7375    3.5932 C   0  0  0  0  0  0  0  0  0  0  0  0
    6.3081   21.1452    2.9337 C   0  0  0  0  0  0  0  0  0  0  0  0
    6.3581   21.0417    1.5671 C   0  0  0  0  0  0  0  0  0  0  0  0
    7.4459   21.5242    0.8595 C   0  0  0  0  0  0  0  0  0  0  0  0
   19.1241   24.3159   -1.1467 C   0  0  0  0  0  0  0  0  0  0  0  0
   18.7432   24.0950    0.2254 C   0  0  0  0  0  0  0  0  0  0  0  0
   17.5984   23.5766    0.6495 N   0  0  0  0  0  0  0  0  0  0  0  0
   17.2791   23.3701    1.9403 C   0  0  0  0  0  0  0  0  0  0  0  0
   18.1632   23.6998    2.9483 C   0  0  0  0  0  0  0  0  0  0  0  0
   19.3694   24.2431    2.5574 C   0  0  0  0  0  0  0  0  0  0  0  0
   19.6551   24.4371    1.2241 C   0  0  0  0  0  0  0  0  0  0  0  0
   20.9497   25.0155    0.8407 C   0  0  0  0  0  0  0  0  0  0  0  0
 19 20  1  0  0  0
 20 13  1  0  0  0
 13 14  2  0  0  0
 14 15  1  0  0  0
 15 16  2  0  0  0
 16 17  1  0  0  0
 17 18  2  0  0  0
 15  1  1  0  0  0
  1  2  1  0  0  0
  2  3  2  0  0  0
  2  4  1  0  0  0
  4  5  1  0  0  0
  5  6  2  0  0  0
  5  7  1  0  0  0
  7  8  1  0  0  0
  8  9  1  0  0  0
  9 10  1  0  0  0
 10 33  1  0  0  0
 33 34  1  0  0  0
 34 35  2  0  0  0
 35 36  1  0  0  0
 36 37  2  0  0  0
 37 38  1  0  0  0
 38 39  2  0  0  0
 39 40  1  0  0  0
 10 11  1  0  0  0
 11 12  1  0  0  0
  4 21  1  0  0  0
 21 22  2  0  0  0
 22 23  1  0  0  0
 23 24  2  0  0  0
 24 25  1  0  0  0
 25 26  2  0  0  0
 24 27  1  0  0  0
 27 28  2  0  0  0
 28 29  1  0  0  0
 29 30  2  0  0  0
 30 31  1  0  0  0
 31 32  2  0  0  0
 18 13  1  0  0  0
  7  1  1  0  0  0
 12  7  1  0  0  0
 26 21  1  0  0  0
 32 27  1  0  0  0
 39 34  1  0  0  0
M  END
> <minimizedAffinity>
24.53281

> <CNNscore>
0.4558882117

> <CNNaffinity>
7.8809981346

> <CNN_VS>
3.5928542614

> <CNNaffinity_variance>
0.8331382871

$$$$
[H]c1nc(OC([H])([H])[H])c([H])c(N2C(=O)N(c3c([H])c([H])c(-c4c([H])c([H])c([H])c([H])c4[H])c([H])c3[H])C(=O)C23C([H])([H])C([H])([H])N(C([H])([H])c2nc([H])c([H])c([H])c2C([H])([H])[H])C([H])([H])C3([H])[H])n1


 40 45  0  0  0  0  0  0  0  0999 V2000
   13.3607   24.9349   -2.0572 N   0  0  0  0  0  0  0  0  0  0  0  0
   12.3253   25.5942   -1.3070 C   0  0  0  0  0  0  0  0  0  0  0  0
   11.8249   26.7341   -1.5808 O   0  0  0  0  0  0  0  0  0  0  0  0
   11.9186   24.8098   -0.2039 N   0  0  0  0  0  0  0  0  0  0  0  0
   12.6940   23.6406   -0.2436 C   0  0  0  0  0  0  0  0  0  0  0  0
   12.7377   22.7813    0.6772 O   0  0  0  0  0  0  0  0  0  0  0  0
   13.4345   23.5982   -1.5295 C   0  0  0  0  0  0  0  0  0  0  0  0
   14.8523   23.1476   -1.2305 C   0  0  0  0  0  0  0  0  0  0  0  0
   15.3692   22.3265   -2.3770 C   0  0  0  0  0  0  0  0  0  0  0  0
   14.6557   21.0565   -2.5208 N   0  0  0  0  0  0  0  0  0  0  0  0
   13.3030   21.1648   -2.0550 C   0  0  0  0  0  0  0  0  0  0  0  0
   12.8033   22.5743   -2.4132 C   0  0  0  0  0  0  0  0  0  0  0  0
   15.8950   26.9935   -3.8366 C   0  0  0  0  0  0  0  0  0  0  0  0
   15.2067   26.3392   -2.8221 C   0  0  0  0  0  0  0  0  0  0  0  0
   14.0648   25.6103   -3.0769 C   0  0  0  0  0  0  0  0  0  0  0  0
   13.6464   25.5605   -4.3516 N   0  0  0  0  0  0  0  0  0  0  0  0
   14.2921   26.1841   -5.3574 C   0  0  0  0  0  0  0  0  0  0  0  0
   15.3910   26.8796   -5.0788 N   0  0  0  0  0  0  0  0  0  0  0  0
   17.9163   27.3649   -2.5617 C   0  0  0  0  0  0  0  0  0  0  0  0
   17.0418   27.7272   -3.5900 O   0  0  0  0  0  0  0  0  0  0  0  0
   10.9140   25.1208    0.7782 C   0  0  0  0  0  0  0  0  0  0  0  0
    9.6260   24.6341    0.6461 C   0  0  0  0  0  0  0  0  0  0  0  0
    8.6706   24.9562    1.6069 C   0  0  0  0  0  0  0  0  0  0  0  0
    8.9577   25.7487    2.6963 C   0  0  0  0  0  0  0  0  0  0  0  0
   10.2440   26.2209    2.8063 C   0  0  0  0  0  0  0  0  0  0  0  0
   11.2226   25.9145    1.8584 C   0  0  0  0  0  0  0  0  0  0  0  0
    7.8870   26.0254    3.6383 C   0  0  0  0  0  0  0  0  0  0  0  0
    7.2973   27.2692    3.6431 C   0  0  0  0  0  0  0  0  0  0  0  0
    6.2666   27.5948    4.5198 C   0  0  0  0  0  0  0  0  0  0  0  0
    5.8114   26.6567    5.4162 C   0  0  0  0  0  0  0  0  0  0  0  0
    6.3896   25.4132    5.4236 C   0  0  0  0  0  0  0  0  0  0  0  0
    7.4140   25.1030    4.5454 C   0  0  0  0  0  0  0  0  0  0  0  0
   15.4250   19.9953   -1.9179 C   0  0  0  0  0  0  0  0  0  0  0  0
   15.8776   20.2251   -0.5692 C   0  0  0  0  0  0  0  0  0  0  0  0
   17.1258   20.4628   -0.1889 N   0  0  0  0  0  0  0  0  0  0  0  0
   17.5136   20.6878    1.0798 C   0  0  0  0  0  0  0  0  0  0  0  0
   16.5948   20.6851    2.1105 C   0  0  0  0  0  0  0  0  0  0  0  0
   15.2815   20.4421    1.7652 C   0  0  0  0  0  0  0  0  0  0  0  0
   14.9286   20.2168    0.4532 C   0  0  0  0  0  0  0  0  0  0  0  0
   13.5210   19.9636    0.1183 C   0  0  0  0  0  0  0  0  0  0  0  0
 19 20  1  0  0  0
 20 13  1  0  0  0
 13 14  2  0  0  0
 14 15  1  0  0  0
 15 16  2  0  0  0
 16 17  1  0  0  0
 17 18  2  0  0  0
 15  1  1  0  0  0
  1  2  1  0  0  0
  2  3  2  0  0  0
  2  4  1  0  0  0
  4  5  1  0  0  0
  5  6  2  0  0  0
  5  7  1  0  0  0
  7  8  1  0  0  0
  8  9  1  0  0  0
  9 10  1  0  0  0
 10 33  1  0  0  0
 33 34  1  0  0  0
 34 35  2  0  0  0
 35 36  1  0  0  0
 36 37  2  0  0  0
 37 38  1  0  0  0
 38 39  2  0  0  0
 39 40  1  0  0  0
 10 11  1  0  0  0
 11 12  1  0  0  0
  4 21  1  0  0  0
 21 22  2  0  0  0
 22 23  1  0  0  0
 23 24  2  0  0  0
 24 25  1  0  0  0
 25 26  2  0  0  0
 24 27  1  0  0  0
 27 28  2  0  0  0
 28 29  1  0  0  0
 29 30  2  0  0  0
 30 31  1  0  0  0
 31 32  2  0  0  0
 18 13  1  0  0  0
  7  1  1  0  0  0
 12  7  1  0  0  0
 26 21  1  0  0  0
 32 27  1  0  0  0
 39 34  1  0  0  0
M  END
> <minimizedAffinity>
20.56449

> <CNNscore>
0.4548938572

> <CNNaffinity>
7.3327817917

> <CNN_VS>
3.3356373310

> <CNNaffinity_variance>
0.7949644327

$$$$
[H]c1nc(C([H])([H])N2C([H])([H])C([H])([H])C3(C(=O)N(c4c([H])c([H])c(C#N)c([H])c4[H])C(=O)N3c3c([H])c([H])c(C#N)c([H])c3[H])C([H])([H])C2([H])[H])c(C([H])([H])[H])c([H])c1[H]


 36 40  0  0  0  0  0  0  0  0999 V2000
   12.6772   27.0178   -4.1198 N   0  0  0  0  0  0  0  0  0  0  0  0
   11.9179   26.4649   -3.0081 C   0  0  0  0  0  0  0  0  0  0  0  0
   12.9819   26.2519   -1.9024 C   0  0  0  0  0  0  0  0  0  0  0  0
   13.7912   25.0443   -2.3584 C   0  0  0  0  0  0  0  0  0  0  0  0
   13.6040   24.8115   -3.8073 C   0  0  0  0  0  0  0  0  0  0  0  0
   13.6901   26.1937   -4.4936 C   0  0  0  0  0  0  0  0  0  0  0  0
   13.3779   24.0034   -1.4582 N   0  0  0  0  0  0  0  0  0  0  0  0
   14.4647   23.7377   -0.6208 C   0  0  0  0  0  0  0  0  0  0  0  0
   14.5155   22.9614    0.3793 O   0  0  0  0  0  0  0  0  0  0  0  0
   15.6376   24.4942   -1.0423 N   0  0  0  0  0  0  0  0  0  0  0  0
   15.2644   25.2313   -2.1383 C   0  0  0  0  0  0  0  0  0  0  0  0
   16.0628   25.9237   -2.8159 O   0  0  0  0  0  0  0  0  0  0  0  0
   16.8006   24.2782   -0.2258 C   0  0  0  0  0  0  0  0  0  0  0  0
   16.5114   23.9382    1.1249 C   0  0  0  0  0  0  0  0  0  0  0  0
   17.5218   23.9561    2.0343 C   0  0  0  0  0  0  0  0  0  0  0  0
   18.7979   24.2904    1.6826 C   0  0  0  0  0  0  0  0  0  0  0  0
   19.0634   24.6139    0.3639 C   0  0  0  0  0  0  0  0  0  0  0  0
   18.0403   24.6021   -0.5922 C   0  0  0  0  0  0  0  0  0  0  0  0
   19.8108   24.3691    2.7281 C   0  0  0  0  0  0  0  0  0  0  0  0
   20.6053   24.4038    3.5751 N   0  0  0  0  0  0  0  0  0  0  0  0
   12.1390   23.3414   -1.3161 C   0  0  0  0  0  0  0  0  0  0  0  0
   12.0363   22.0237   -1.6772 C   0  0  0  0  0  0  0  0  0  0  0  0
   10.8353   21.4007   -1.5102 C   0  0  0  0  0  0  0  0  0  0  0  0
    9.7504   22.0631   -1.0035 C   0  0  0  0  0  0  0  0  0  0  0  0
    9.7921   23.3977   -0.6280 C   0  0  0  0  0  0  0  0  0  0  0  0
   11.0217   23.9966   -0.8005 C   0  0  0  0  0  0  0  0  0  0  0  0
    8.4794   21.3659   -0.8326 C   0  0  0  0  0  0  0  0  0  0  0  0
    7.4503   20.8307   -0.7153 N   0  0  0  0  0  0  0  0  0  0  0  0
   12.2751   28.2450   -4.4457 C   0  0  0  0  0  0  0  0  0  0  0  0
   11.5584   30.5267   -3.2329 C   0  0  0  0  0  0  0  0  0  0  0  0
   10.5898   29.9700   -4.2396 C   0  0  0  0  0  0  0  0  0  0  0  0
    9.4276   30.6033   -4.5676 C   0  0  0  0  0  0  0  0  0  0  0  0
    8.4821   29.9355   -5.3237 C   0  0  0  0  0  0  0  0  0  0  0  0
    8.7949   28.6305   -5.7084 C   0  0  0  0  0  0  0  0  0  0  0  0
    9.9709   28.0504   -5.3621 N   0  0  0  0  0  0  0  0  0  0  0  0
   10.8932   28.6637   -4.6409 C   0  0  0  0  0  0  0  0  0  0  0  0
 30 31  1  0  0  0
 31 32  2  0  0  0
 32 33  1  0  0  0
 33 34  2  0  0  0
 34 35  1  0  0  0
 35 36  2  0  0  0
 36 29  1  0  0  0
 29  1  1  0  0  0
  1  2  1  0  0  0
  2  3  1  0  0  0
  3  4  1  0  0  0
  4  5  1  0  0  0
  5  6  1  0  0  0
  4  7  1  0  0  0
  7  8  1  0  0  0
  8  9  2  0  0  0
  8 10  1  0  0  0
 10 11  1  0  0  0
 11 12  2  0  0  0
 10 13  1  0  0  0
 13 14  2  0  0  0
 14 15  1  0  0  0
 15 16  2  0  0  0
 16 17  1  0  0  0
 17 18  2  0  0  0
 16 19  1  0  0  0
 19 20  3  0  0  0
  7 21  1  0  0  0
 21 22  2  0  0  0
 22 23  1  0  0  0
 23 24  2  0  0  0
 24 25  1  0  0  0
 25 26  2  0  0  0
 24 27  1  0  0  0
 27 28  3  0  0  0
 36 31  1  0  0  0
  6  1  1  0  0  0
 18 13  1  0  0  0
 26 21  1  0  0  0
 11  4  1  0  0  0
M  END
> <minimizedAffinity>
21.38676

> <CNNscore>
0.6170871854

> <CNNaffinity>
7.6815781593

> <CNN_VS>
4.7402033806

> <CNNaffinity_variance>
1.3562059402

$$$$
[H]c1nc(C([H])([H])N2C([H])([H])C([H])([H])C3(C(=O)N(c4c([H])c([H])c(C#N)c([H])c4[H])C(=O)N3c3c([H])c([H])c(C#N)c([H])c3[H])C([H])([H])C2([H])[H])c(C([H])([H])[H])c([H])c1[H]


 36 40  0  0  0  0  0  0  0  0999 V2000
   13.2880   22.1771   -0.5923 N   0  0  0  0  0  0  0  0  0  0  0  0
   14.0355   23.1195    0.2271 C   0  0  0  0  0  0  0  0  0  0  0  0
   14.2117   24.3526   -0.6940 C   0  0  0  0  0  0  0  0  0  0  0  0
   15.2570   23.9344   -1.7205 C   0  0  0  0  0  0  0  0  0  0  0  0
   15.3759   22.4606   -1.7691 C   0  0  0  0  0  0  0  0  0  0  0  0
   13.9361   21.8986   -1.7529 C   0  0  0  0  0  0  0  0  0  0  0  0
   16.4219   24.6838   -1.3383 N   0  0  0  0  0  0  0  0  0  0  0  0
   16.6222   25.6519   -2.3261 C   0  0  0  0  0  0  0  0  0  0  0  0
   17.4754   26.5883   -2.3479 O   0  0  0  0  0  0  0  0  0  0  0  0
   15.6848   25.4667   -3.4273 N   0  0  0  0  0  0  0  0  0  0  0  0
   14.9030   24.3847   -3.1082 C   0  0  0  0  0  0  0  0  0  0  0  0
   14.0533   23.8864   -3.8865 O   0  0  0  0  0  0  0  0  0  0  0  0
   15.8242   26.4291   -4.4857 C   0  0  0  0  0  0  0  0  0  0  0  0
   16.6768   27.5238   -4.1715 C   0  0  0  0  0  0  0  0  0  0  0  0
   16.6832   28.6049   -4.9958 C   0  0  0  0  0  0  0  0  0  0  0  0
   15.8958   28.6627   -6.1096 C   0  0  0  0  0  0  0  0  0  0  0  0
   15.0760   27.5877   -6.4036 C   0  0  0  0  0  0  0  0  0  0  0  0
   15.0517   26.4620   -5.5711 C   0  0  0  0  0  0  0  0  0  0  0  0
   15.8941   29.8885   -6.8988 C   0  0  0  0  0  0  0  0  0  0  0  0
   15.9136   30.8507   -7.5496 N   0  0  0  0  0  0  0  0  0  0  0  0
   17.2485   24.5906   -0.1975 C   0  0  0  0  0  0  0  0  0  0  0  0
   18.4743   23.9877   -0.3037 C   0  0  0  0  0  0  0  0  0  0  0  0
   19.2629   23.9294    0.8068 C   0  0  0  0  0  0  0  0  0  0  0  0
   18.8514   24.4484    2.0042 C   0  0  0  0  0  0  0  0  0  0  0  0
   17.6197   25.0630    2.1739 C   0  0  0  0  0  0  0  0  0  0  0  0
   16.8498   25.1141    1.0315 C   0  0  0  0  0  0  0  0  0  0  0  0
   19.7218   24.3741    3.1736 C   0  0  0  0  0  0  0  0  0  0  0  0
   20.3949   24.2968    4.1224 N   0  0  0  0  0  0  0  0  0  0  0  0
   12.0979   21.8863   -0.0698 C   0  0  0  0  0  0  0  0  0  0  0  0
   10.7800   20.0024    1.3105 C   0  0  0  0  0  0  0  0  0  0  0  0
   10.1482   20.4550    0.0229 C   0  0  0  0  0  0  0  0  0  0  0  0
    8.9457   19.9805   -0.4108 C   0  0  0  0  0  0  0  0  0  0  0  0
    8.5303   20.2632   -1.6989 C   0  0  0  0  0  0  0  0  0  0  0  0
    9.3921   21.0354   -2.4800 C   0  0  0  0  0  0  0  0  0  0  0  0
   10.5745   21.4900   -1.9958 N   0  0  0  0  0  0  0  0  0  0  0  0
   10.9974   21.2363   -0.7695 C   0  0  0  0  0  0  0  0  0  0  0  0
 30 31  1  0  0  0
 31 32  2  0  0  0
 32 33  1  0  0  0
 33 34  2  0  0  0
 34 35  1  0  0  0
 35 36  2  0  0  0
 36 29  1  0  0  0
 29  1  1  0  0  0
  1  2  1  0  0  0
  2  3  1  0  0  0
  3  4  1  0  0  0
  4  5  1  0  0  0
  5  6  1  0  0  0
  4  7  1  0  0  0
  7  8  1  0  0  0
  8  9  2  0  0  0
  8 10  1  0  0  0
 10 11  1  0  0  0
 11 12  2  0  0  0
 10 13  1  0  0  0
 13 14  2  0  0  0
 14 15  1  0  0  0
 15 16  2  0  0  0
 16 17  1  0  0  0
 17 18  2  0  0  0
 16 19  1  0  0  0
 19 20  3  0  0  0
  7 21  1  0  0  0
 21 22  2  0  0  0
 22 23  1  0  0  0
 23 24  2  0  0  0
 24 25  1  0  0  0
 25 26  2  0  0  0
 24 27  1  0  0  0
 27 28  3  0  0  0
 36 31  1  0  0  0
  6  1  1  0  0  0
 18 13  1  0  0  0
 26 21  1  0  0  0
 11  4  1  0  0  0
M  END
> <minimizedAffinity>
13.86871

> <CNNscore>
0.6118444204

> <CNNaffinity>
7.6713051796

> <CNN_VS>
4.6936454773

> <CNNaffinity_variance>
0.4729577899

$$$$
[H]c1nc(C([H])([H])N2C([H])([H])C([H])([H])C3(C(=O)N(c4c([H])c([H])c(C#N)c([H])c4[H])C(=O)N3c3c([H])c([H])c(C#N)c([H])c3[H])C([H])([H])C2([H])[H])c(C([H])([H])[H])c([H])c1[H]


 36 40  0  0  0  0  0  0  0  0999 V2000
   13.9188   25.4814   -4.3992 N   0  0  0  0  0  0  0  0  0  0  0  0
   13.1098   25.7614   -3.2221 C   0  0  0  0  0  0  0  0  0  0  0  0
   14.1473   25.8684   -2.0766 C   0  0  0  0  0  0  0  0  0  0  0  0
   14.5960   24.4363   -1.8132 C   0  0  0  0  0  0  0  0  0  0  0  0
   14.2720   23.5704   -2.9681 C   0  0  0  0  0  0  0  0  0  0  0  0
   14.6660   24.3587   -4.2379 C   0  0  0  0  0  0  0  0  0  0  0  0
   13.9851   24.1195   -0.5518 N   0  0  0  0  0  0  0  0  0  0  0  0
   15.0156   24.0438    0.3891 C   0  0  0  0  0  0  0  0  0  0  0  0
   14.9257   23.8813    1.6425 O   0  0  0  0  0  0  0  0  0  0  0  0
   16.3156   24.1727   -0.2583 N   0  0  0  0  0  0  0  0  0  0  0  0
   16.0786   24.3351   -1.6004 C   0  0  0  0  0  0  0  0  0  0  0  0
   16.9858   24.3767   -2.4672 O   0  0  0  0  0  0  0  0  0  0  0  0
   17.4311   24.1091    0.6458 C   0  0  0  0  0  0  0  0  0  0  0  0
   17.2735   23.1705    1.7031 C   0  0  0  0  0  0  0  0  0  0  0  0
   18.1476   23.2053    2.7438 C   0  0  0  0  0  0  0  0  0  0  0  0
   19.1654   24.1138    2.7960 C   0  0  0  0  0  0  0  0  0  0  0  0
   19.3077   25.0165    1.7573 C   0  0  0  0  0  0  0  0  0  0  0  0
   18.4210   25.0009    0.6736 C   0  0  0  0  0  0  0  0  0  0  0  0
   20.0112   24.1450    3.9830 C   0  0  0  0  0  0  0  0  0  0  0  0
   20.6774   24.1377    4.9348 N   0  0  0  0  0  0  0  0  0  0  0  0
   12.6292   23.9470   -0.1981 C   0  0  0  0  0  0  0  0  0  0  0  0
   11.9465   22.8553   -0.6668 C   0  0  0  0  0  0  0  0  0  0  0  0
   10.6446   22.6996   -0.2937 C   0  0  0  0  0  0  0  0  0  0  0  0
   10.0208   23.6052    0.5209 C   0  0  0  0  0  0  0  0  0  0  0  0
   10.6578   24.7318    1.0195 C   0  0  0  0  0  0  0  0  0  0  0  0
   11.9748   24.8562    0.6317 C   0  0  0  0  0  0  0  0  0  0  0  0
    8.6269   23.4069    0.9059 C   0  0  0  0  0  0  0  0  0  0  0  0
    7.5235   23.2369    1.2418 N   0  0  0  0  0  0  0  0  0  0  0  0
   13.8229   26.4406   -5.3181 C   0  0  0  0  0  0  0  0  0  0  0  0
   15.7731   28.2756   -5.1748 C   0  0  0  0  0  0  0  0  0  0  0  0
   15.8311   27.3257   -6.3393 C   0  0  0  0  0  0  0  0  0  0  0  0
   16.8406   27.3489   -7.2556 C   0  0  0  0  0  0  0  0  0  0  0  0
   16.7193   26.6077   -8.4164 C   0  0  0  0  0  0  0  0  0  0  0  0
   15.5446   25.8688   -8.5683 C   0  0  0  0  0  0  0  0  0  0  0  0
   14.5745   25.8740   -7.6206 N   0  0  0  0  0  0  0  0  0  0  0  0
   14.6627   26.5720   -6.5016 C   0  0  0  0  0  0  0  0  0  0  0  0
 30 31  1  0  0  0
 31 32  2  0  0  0
 32 33  1  0  0  0
 33 34  2  0  0  0
 34 35  1  0  0  0
 35 36  2  0  0  0
 36 29  1  0  0  0
 29  1  1  0  0  0
  1  2  1  0  0  0
  2  3  1  0  0  0
  3  4  1  0  0  0
  4  5  1  0  0  0
  5  6  1  0  0  0
  4  7  1  0  0  0
  7  8  1  0  0  0
  8  9  2  0  0  0
  8 10  1  0  0  0
 10 11  1  0  0  0
 11 12  2  0  0  0
 10 13  1  0  0  0
 13 14  2  0  0  0
 14 15  1  0  0  0
 15 16  2  0  0  0
 16 17  1  0  0  0
 17 18  2  0  0  0
 16 19  1  0  0  0
 19 20  3  0  0  0
  7 21  1  0  0  0
 21 22  2  0  0  0
 22 23  1  0  0  0
 23 24  2  0  0  0
 24 25  1  0  0  0
 25 26  2  0  0  0
 24 27  1  0  0  0
 27 28  3  0  0  0
 36 31  1  0  0  0
  6  1  1  0  0  0
 18 13  1  0  0  0
 26 21  1  0  0  0
 11  4  1  0  0  0
M  END
> <minimizedAffinity>
17.87831

> <CNNscore>
0.6112796664

> <CNNaffinity>
7.7936201096

> <CNN_VS>
4.7640814781

> <CNNaffinity_variance>
0.8095613718

$$$$
[H]c1nc(C([H])([H])N2C([H])([H])C([H])([H])C3(C(=O)N(c4c([H])c([H])c(C#N)c([H])c4[H])C(=O)N3c3c([H])c([H])c(C#N)c([H])c3[H])C([H])([H])C2([H])[H])c(C([H])([H])[H])c([H])c1[H]


 36 40  0  0  0  0  0  0  0  0999 V2000
   14.0086   25.5083   -4.3983 N   0  0  0  0  0  0  0  0  0  0  0  0
   13.1118   25.2658   -3.2779 C   0  0  0  0  0  0  0  0  0  0  0  0
   14.0380   25.3430   -2.0385 C   0  0  0  0  0  0  0  0  0  0  0  0
   14.8517   24.0553   -2.0710 C   0  0  0  0  0  0  0  0  0  0  0  0
   14.8194   23.4551   -3.4227 C   0  0  0  0  0  0  0  0  0  0  0  0
   15.0283   24.6114   -4.4267 C   0  0  0  0  0  0  0  0  0  0  0  0
   14.3055   23.2854   -0.9877 N   0  0  0  0  0  0  0  0  0  0  0  0
   15.2826   23.2419    0.0106 C   0  0  0  0  0  0  0  0  0  0  0  0
   15.1951   22.7515    1.1757 O   0  0  0  0  0  0  0  0  0  0  0  0
   16.5201   23.8585   -0.4518 N   0  0  0  0  0  0  0  0  0  0  0  0
   16.2966   24.2873   -1.7363 C   0  0  0  0  0  0  0  0  0  0  0  0
   17.1887   24.7769   -2.4716 O   0  0  0  0  0  0  0  0  0  0  0  0
   17.5769   23.8573    0.5225 C   0  0  0  0  0  0  0  0  0  0  0  0
   17.2851   23.1145    1.7001 C   0  0  0  0  0  0  0  0  0  0  0  0
   18.1026   23.2500    2.7778 C   0  0  0  0  0  0  0  0  0  0  0  0
   19.1890   24.0767    2.7550 C   0  0  0  0  0  0  0  0  0  0  0  0
   19.4615   24.7884    1.6003 C   0  0  0  0  0  0  0  0  0  0  0  0
   18.6354   24.6656    0.4763 C   0  0  0  0  0  0  0  0  0  0  0  0
   19.9703   24.2343    3.9756 C   0  0  0  0  0  0  0  0  0  0  0  0
   20.5745   24.3358    4.9628 N   0  0  0  0  0  0  0  0  0  0  0  0
   13.0367   22.6878   -0.8252 C   0  0  0  0  0  0  0  0  0  0  0  0
   11.9862   23.4505   -0.3870 C   0  0  0  0  0  0  0  0  0  0  0  0
   10.7663   22.8556   -0.2589 C   0  0  0  0  0  0  0  0  0  0  0  0
   10.5825   21.5310   -0.5494 C   0  0  0  0  0  0  0  0  0  0  0  0
   11.6087   20.7082   -0.9892 C   0  0  0  0  0  0  0  0  0  0  0  0
   12.8269   21.3408   -1.1170 C   0  0  0  0  0  0  0  0  0  0  0  0
    9.2622   20.9252   -0.4063 C   0  0  0  0  0  0  0  0  0  0  0  0
    8.2201   20.4202   -0.2712 N   0  0  0  0  0  0  0  0  0  0  0  0
   13.6873   26.6103   -5.0735 C   0  0  0  0  0  0  0  0  0  0  0  0
   15.9825   27.9970   -5.0935 C   0  0  0  0  0  0  0  0  0  0  0  0
   14.7345   28.7714   -4.7701 C   0  0  0  0  0  0  0  0  0  0  0  0
   14.7430   30.1162   -4.5452 C   0  0  0  0  0  0  0  0  0  0  0  0
   13.6114   30.7252   -4.0353 C   0  0  0  0  0  0  0  0  0  0  0  0
   12.5142   29.8992   -3.7844 C   0  0  0  0  0  0  0  0  0  0  0  0
   12.5560   28.5670   -4.0349 N   0  0  0  0  0  0  0  0  0  0  0  0
   13.6228   27.9575   -4.5222 C   0  0  0  0  0  0  0  0  0  0  0  0
 30 31  1  0  0  0
 31 32  2  0  0  0
 32 33  1  0  0  0
 33 34  2  0  0  0
 34 35  1  0  0  0
 35 36  2  0  0  0
 36 29  1  0  0  0
 29  1  1  0  0  0
  1  2  1  0  0  0
  2  3  1  0  0  0
  3  4  1  0  0  0
  4  5  1  0  0  0
  5  6  1  0  0  0
  4  7  1  0  0  0
  7  8  1  0  0  0
  8  9  2  0  0  0
  8 10  1  0  0  0
 10 11  1  0  0  0
 11 12  2  0  0  0
 10 13  1  0  0  0
 13 14  2  0  0  0
 14 15  1  0  0  0
 15 16  2  0  0  0
 16 17  1  0  0  0
 17 18  2  0  0  0
 16 19  1  0  0  0
 19 20  3  0  0  0
  7 21  1  0  0  0
 21 22  2  0  0  0
 22 23  1  0  0  0
 23 24  2  0  0  0
 24 25  1  0  0  0
 25 26  2  0  0  0
 24 27  1  0  0  0
 27 28  3  0  0  0
 36 31  1  0  0  0
  6  1  1  0  0  0
 18 13  1  0  0  0
 26 21  1  0  0  0
 11  4  1  0  0  0
M  END
> <minimizedAffinity>
25.84470

> <CNNscore>
0.5960214138

> <CNNaffinity>
7.8028740883

> <CNN_VS>
4.6506800652

> <CNNaffinity_variance>
0.8814903498

$$$$
[H]c1nc(C([H])([H])N2C([H])([H])C([H])([H])C3(C(=O)N(c4c([H])c([H])c(C#N)c([H])c4[H])C(=O)N3c3c([H])c([H])c(C#N)c([H])c3[H])C([H])([H])C2([H])[H])c(C([H])([H])[H])c([H])c1[H]


 36 40  0  0  0  0  0  0  0  0999 V2000
   10.3370   23.8475   -0.3419 N   0  0  0  0  0  0  0  0  0  0  0  0
   11.4840   23.3479    0.4019 C   0  0  0  0  0  0  0  0  0  0  0  0
   12.5791   24.4155    0.1550 C   0  0  0  0  0  0  0  0  0  0  0  0
   13.0243   24.2006   -1.2862 C   0  0  0  0  0  0  0  0  0  0  0  0
   12.0062   23.4312   -2.0345 C   0  0  0  0  0  0  0  0  0  0  0  0
   10.6319   24.0281   -1.6554 C   0  0  0  0  0  0  0  0  0  0  0  0
   14.3314   23.6192   -1.1509 N   0  0  0  0  0  0  0  0  0  0  0  0
   15.2489   24.5824   -1.5791 C   0  0  0  0  0  0  0  0  0  0  0  0
   16.5145   24.5336   -1.5433 O   0  0  0  0  0  0  0  0  0  0  0  0
   14.5591   25.7456   -2.1238 N   0  0  0  0  0  0  0  0  0  0  0  0
   13.2134   25.4955   -2.0218 C   0  0  0  0  0  0  0  0  0  0  0  0
   12.3276   26.2515   -2.4908 O   0  0  0  0  0  0  0  0  0  0  0  0
   15.4365   26.7870   -2.5837 C   0  0  0  0  0  0  0  0  0  0  0  0
   15.7234   26.7368   -3.9761 C   0  0  0  0  0  0  0  0  0  0  0  0
   16.7262   27.5135   -4.4654 C   0  0  0  0  0  0  0  0  0  0  0  0
   17.4581   28.3343   -3.6562 C   0  0  0  0  0  0  0  0  0  0  0  0
   17.1631   28.3750   -2.3052 C   0  0  0  0  0  0  0  0  0  0  0  0
   16.1345   27.5854   -1.7766 C   0  0  0  0  0  0  0  0  0  0  0  0
   18.5717   29.0738   -4.2380 C   0  0  0  0  0  0  0  0  0  0  0  0
   19.4373   29.6797   -4.7210 N   0  0  0  0  0  0  0  0  0  0  0  0
   14.7375   22.3624   -0.6520 C   0  0  0  0  0  0  0  0  0  0  0  0
   14.3516   21.2229   -1.3077 C   0  0  0  0  0  0  0  0  0  0  0  0
   14.7745   20.0227   -0.8188 C   0  0  0  0  0  0  0  0  0  0  0  0
   15.5579   19.9422    0.3002 C   0  0  0  0  0  0  0  0  0  0  0  0
   15.9734   21.0595    1.0093 C   0  0  0  0  0  0  0  0  0  0  0  0
   15.5371   22.2575    0.4852 C   0  0  0  0  0  0  0  0  0  0  0  0
   15.9981   18.6415    0.7954 C   0  0  0  0  0  0  0  0  0  0  0  0
   16.3557   17.6161    1.2194 N   0  0  0  0  0  0  0  0  0  0  0  0
    9.2985   24.1126    0.4487 C   0  0  0  0  0  0  0  0  0  0  0  0
    7.3837   22.2482    0.6687 C   0  0  0  0  0  0  0  0  0  0  0  0
    8.2871   22.4245    1.8580 C   0  0  0  0  0  0  0  0  0  0  0  0
    8.1850   21.6531    2.9777 C   0  0  0  0  0  0  0  0  0  0  0  0
    8.8883   22.0104    4.1132 C   0  0  0  0  0  0  0  0  0  0  0  0
    9.6735   23.1615    4.0278 C   0  0  0  0  0  0  0  0  0  0  0  0
    9.7466   23.8884    2.8852 N   0  0  0  0  0  0  0  0  0  0  0  0
    9.0864   23.5714    1.7849 C   0  0  0  0  0  0  0  0  0  0  0  0
 30 31  1  0  0  0
 31 32  2  0  0  0
 32 33  1  0  0  0
 33 34  2  0  0  0
 34 35  1  0  0  0
 35 36  2  0  0  0
 36 29  1  0  0  0
 29  1  1  0  0  0
  1  2  1  0  0  0
  2  3  1  0  0  0
  3  4  1  0  0  0
  4  5  1  0  0  0
  5  6  1  0  0  0
  4  7  1  0  0  0
  7  8  1  0  0  0
  8  9  2  0  0  0
  8 10  1  0  0  0
 10 11  1  0  0  0
 11 12  2  0  0  0
 10 13  1  0  0  0
 13 14  2  0  0  0
 14 15  1  0  0  0
 15 16  2  0  0  0
 16 17  1  0  0  0
 17 18  2  0  0  0
 16 19  1  0  0  0
 19 20  3  0  0  0
  7 21  1  0  0  0
 21 22  2  0  0  0
 22 23  1  0  0  0
 23 24  2  0  0  0
 24 25  1  0  0  0
 25 26  2  0  0  0
 24 27  1  0  0  0
 27 28  3  0  0  0
 36 31  1  0  0  0
  6  1  1  0  0  0
 18 13  1  0  0  0
 26 21  1  0  0  0
 11  4  1  0  0  0
M  END
> <minimizedAffinity>
15.42255

> <CNNscore>
0.5905485153

> <CNNaffinity>
7.7152643204

> <CNN_VS>
4.5562376976

> <CNNaffinity_variance>
0.9563094974

$$$$
[H]c1nc(C([H])([H])N2C([H])([H])C([H])([H])C3(C(=O)N(c4c([H])c([H])c(C#N)c([H])c4[H])C(=O)N3c3c([H])c([H])c(C#N)c([H])c3[H])C([H])([H])C2([H])[H])c(C([H])([H])[H])c([H])c1[H]


 36 40  0  0  0  0  0  0  0  0999 V2000
   10.8839   24.6437    1.1763 N   0  0  0  0  0  0  0  0  0  0  0  0
   12.2205   24.1123    1.3984 C   0  0  0  0  0  0  0  0  0  0  0  0
   13.1148   24.9517    0.4519 C   0  0  0  0  0  0  0  0  0  0  0  0
   12.8031   24.4369   -0.9478 C   0  0  0  0  0  0  0  0  0  0  0  0
   11.5140   23.7112   -0.9587 C   0  0  0  0  0  0  0  0  0  0  0  0
   10.5214   24.5578   -0.1299 C   0  0  0  0  0  0  0  0  0  0  0  0
   13.9841   23.7009   -1.3058 N   0  0  0  0  0  0  0  0  0  0  0  0
   14.6307   24.4343   -2.3044 C   0  0  0  0  0  0  0  0  0  0  0  0
   15.7542   24.2072   -2.8443 O   0  0  0  0  0  0  0  0  0  0  0  0
   13.8230   25.5789   -2.7084 N   0  0  0  0  0  0  0  0  0  0  0  0
   12.6805   25.5493   -1.9484 C   0  0  0  0  0  0  0  0  0  0  0  0
   11.7171   26.3381   -2.1092 O   0  0  0  0  0  0  0  0  0  0  0  0
   14.4231   26.3891   -3.7328 C   0  0  0  0  0  0  0  0  0  0  0  0
   13.8598   26.2073   -5.0264 C   0  0  0  0  0  0  0  0  0  0  0  0
   14.5072   26.7314   -6.1009 C   0  0  0  0  0  0  0  0  0  0  0  0
   15.6767   27.4230   -5.9668 C   0  0  0  0  0  0  0  0  0  0  0  0
   16.2086   27.5951   -4.7012 C   0  0  0  0  0  0  0  0  0  0  0  0
   15.5607   27.0658   -3.5783 C   0  0  0  0  0  0  0  0  0  0  0  0
   16.3563   27.8828   -7.1718 C   0  0  0  0  0  0  0  0  0  0  0  0
   16.9081   28.2177   -8.1378 N   0  0  0  0  0  0  0  0  0  0  0  0
   14.5166   22.4990   -0.7909 C   0  0  0  0  0  0  0  0  0  0  0  0
   15.3514   22.5450    0.2947 C   0  0  0  0  0  0  0  0  0  0  0  0
   15.8354   21.3694    0.7866 C   0  0  0  0  0  0  0  0  0  0  0  0
   15.5106   20.1681    0.2173 C   0  0  0  0  0  0  0  0  0  0  0  0
   14.6774   20.0598   -0.8862 C   0  0  0  0  0  0  0  0  0  0  0  0
   14.1976   21.2644   -1.3543 C   0  0  0  0  0  0  0  0  0  0  0  0
   16.0418   18.9265    0.7712 C   0  0  0  0  0  0  0  0  0  0  0  0
   16.4773   17.9271    1.1845 N   0  0  0  0  0  0  0  0  0  0  0  0
   10.3663   25.1861    2.2771 C   0  0  0  0  0  0  0  0  0  0  0  0
    9.9725   22.8849    3.5963 C   0  0  0  0  0  0  0  0  0  0  0  0
    8.8730   23.9068    3.6885 C   0  0  0  0  0  0  0  0  0  0  0  0
    7.7509   23.7117    4.4382 C   0  0  0  0  0  0  0  0  0  0  0  0
    6.6856   24.5826    4.3029 C   0  0  0  0  0  0  0  0  0  0  0  0
    6.8412   25.6259    3.3884 C   0  0  0  0  0  0  0  0  0  0  0  0
    7.9836   25.7796    2.6737 N   0  0  0  0  0  0  0  0  0  0  0  0
    9.0177   24.9637    2.7820 C   0  0  0  0  0  0  0  0  0  0  0  0
 30 31  1  0  0  0
 31 32  2  0  0  0
 32 33  1  0  0  0
 33 34  2  0  0  0
 34 35  1  0  0  0
 35 36  2  0  0  0
 36 29  1  0  0  0
 29  1  1  0  0  0
  1  2  1  0  0  0
  2  3  1  0  0  0
  3  4  1  0  0  0
  4  5  1  0  0  0
  5  6  1  0  0  0
  4  7  1  0  0  0
  7  8  1  0  0  0
  8  9  2  0  0  0
  8 10  1  0  0  0
 10 11  1  0  0  0
 11 12  2  0  0  0
 10 13  1  0  0  0
 13 14  2  0  0  0
 14 15  1  0  0  0
 15 16  2  0  0  0
 16 17  1  0  0  0
 17 18  2  0  0  0
 16 19  1  0  0  0
 19 20  3  0  0  0
  7 21  1  0  0  0
 21 22  2  0  0  0
 22 23  1  0  0  0
 23 24  2  0  0  0
 24 25  1  0  0  0
 25 26  2  0  0  0
 24 27  1  0  0  0
 27 28  3  0  0  0
 36 31  1  0  0  0
  6  1  1  0  0  0
 18 13  1  0  0  0
 26 21  1  0  0  0
 11  4  1  0  0  0
M  END
> <minimizedAffinity>
8.15432

> <CNNscore>
0.5866385698

> <CNNaffinity>
7.5332741737

> <CNN_VS>
4.4193091393

> <CNNaffinity_variance>
0.4182221293

$$$$
[H]c1nc(C([H])([H])N2C([H])([H])C([H])([H])C3(C(=O)N(c4c([H])c([H])c(C#N)c([H])c4[H])C(=O)N3c3c([H])c([H])c(C#N)c([H])c3[H])C([H])([H])C2([H])[H])c(C([H])([H])[H])c([H])c1[H]


 36 40  0  0  0  0  0  0  0  0999 V2000
   13.1037   22.0289   -0.4146 N   0  0  0  0  0  0  0  0  0  0  0  0
   13.8561   23.0171    0.3442 C   0  0  0  0  0  0  0  0  0  0  0  0
   13.9432   24.2316   -0.6136 C   0  0  0  0  0  0  0  0  0  0  0  0
   14.9517   23.8236   -1.6803 C   0  0  0  0  0  0  0  0  0  0  0  0
   15.1206   22.3540   -1.6996 C   0  0  0  0  0  0  0  0  0  0  0  0
   13.7043   21.7434   -1.5989 C   0  0  0  0  0  0  0  0  0  0  0  0
   16.1064   24.6222   -1.3741 N   0  0  0  0  0  0  0  0  0  0  0  0
   16.2239   25.5710   -2.3934 C   0  0  0  0  0  0  0  0  0  0  0  0
   17.0411   26.5355   -2.4795 O   0  0  0  0  0  0  0  0  0  0  0  0
   15.2413   25.3256   -3.4422 N   0  0  0  0  0  0  0  0  0  0  0  0
   14.5149   24.2259   -3.0591 C   0  0  0  0  0  0  0  0  0  0  0  0
   13.6467   23.6789   -3.7824 O   0  0  0  0  0  0  0  0  0  0  0  0
   15.2948   26.2649   -4.5288 C   0  0  0  0  0  0  0  0  0  0  0  0
   15.5553   25.6765   -5.7975 C   0  0  0  0  0  0  0  0  0  0  0  0
   15.8703   26.4877   -6.8420 C   0  0  0  0  0  0  0  0  0  0  0  0
   15.9415   27.8439   -6.7013 C   0  0  0  0  0  0  0  0  0  0  0  0
   15.6806   28.4005   -5.4619 C   0  0  0  0  0  0  0  0  0  0  0  0
   15.3530   27.5868   -4.3704 C   0  0  0  0  0  0  0  0  0  0  0  0
   16.3671   28.6415   -7.8449 C   0  0  0  0  0  0  0  0  0  0  0  0
   16.7298   29.2542   -8.7630 N   0  0  0  0  0  0  0  0  0  0  0  0
   16.9901   24.5867   -0.2736 C   0  0  0  0  0  0  0  0  0  0  0  0
   16.5857   25.1026    0.9295 C   0  0  0  0  0  0  0  0  0  0  0  0
   17.4490   25.0371    1.9825 C   0  0  0  0  0  0  0  0  0  0  0  0
   18.6925   24.4803    1.8543 C   0  0  0  0  0  0  0  0  0  0  0  0
   19.1593   23.9495    0.6610 C   0  0  0  0  0  0  0  0  0  0  0  0
   18.2605   24.0227   -0.3817 C   0  0  0  0  0  0  0  0  0  0  0  0
   19.5915   24.4211    3.0027 C   0  0  0  0  0  0  0  0  0  0  0  0
   20.2965   24.3456    3.9282 N   0  0  0  0  0  0  0  0  0  0  0  0
   11.9515   21.7108    0.1728 C   0  0  0  0  0  0  0  0  0  0  0  0
   10.4685   23.4770   -1.1954 C   0  0  0  0  0  0  0  0  0  0  0  0
   10.1647   23.3406    0.2712 C   0  0  0  0  0  0  0  0  0  0  0  0
    9.1599   24.0328    0.8798 C   0  0  0  0  0  0  0  0  0  0  0  0
    9.0776   24.0347    2.2600 C   0  0  0  0  0  0  0  0  0  0  0  0
   10.0514   23.3073    2.9468 C   0  0  0  0  0  0  0  0  0  0  0  0
   11.0251   22.6282    2.2911 N   0  0  0  0  0  0  0  0  0  0  0  0
   11.1286   22.6078    0.9736 C   0  0  0  0  0  0  0  0  0  0  0  0
 30 31  1  0  0  0
 31 32  2  0  0  0
 32 33  1  0  0  0
 33 34  2  0  0  0
 34 35  1  0  0  0
 35 36  2  0  0  0
 36 29  1  0  0  0
 29  1  1  0  0  0
  1  2  1  0  0  0
  2  3  1  0  0  0
  3  4  1  0  0  0
  4  5  1  0  0  0
  5  6  1  0  0  0
  4  7  1  0  0  0
  7  8  1  0  0  0
  8  9  2  0  0  0
  8 10  1  0  0  0
 10 11  1  0  0  0
 11 12  2  0  0  0
 10 13  1  0  0  0
 13 14  2  0  0  0
 14 15  1  0  0  0
 15 16  2  0  0  0
 16 17  1  0  0  0
 17 18  2  0  0  0
 16 19  1  0  0  0
 19 20  3  0  0  0
  7 21  1  0  0  0
 21 22  2  0  0  0
 22 23  1  0  0  0
 23 24  2  0  0  0
 24 25  1  0  0  0
 25 26  2  0  0  0
 24 27  1  0  0  0
 27 28  3  0  0  0
 36 31  1  0  0  0
  6  1  1  0  0  0
 18 13  1  0  0  0
 26 21  1  0  0  0
 11  4  1  0  0  0
M  END
> <minimizedAffinity>
12.98797

> <CNNscore>
0.5854829550

> <CNNaffinity>
7.9616026878

> <CNN_VS>
4.6613826752

> <CNNaffinity_variance>
0.5389744043

$$$$
[H]c1nc(C([H])([H])N2C([H])([H])C([H])([H])C3(C(=O)N(c4c([H])c([H])c(C#N)c([H])c4[H])C(=O)N3c3c([H])c([H])c(C#N)c([H])c3[H])C([H])([H])C2([H])[H])c(C([H])([H])[H])c([H])c1[H]


 36 40  0  0  0  0  0  0  0  0999 V2000
   12.1152   25.1098   -0.6032 N   0  0  0  0  0  0  0  0  0  0  0  0
   11.2312   25.5384   -1.6771 C   0  0  0  0  0  0  0  0  0  0  0  0
   12.0186   25.1919   -2.9655 C   0  0  0  0  0  0  0  0  0  0  0  0
   13.1298   26.2314   -3.0426 C   0  0  0  0  0  0  0  0  0  0  0  0
   13.3447   26.8602   -1.7208 C   0  0  0  0  0  0  0  0  0  0  0  0
   13.3268   25.7190   -0.6786 C   0  0  0  0  0  0  0  0  0  0  0  0
   12.7194   27.0822   -4.1254 N   0  0  0  0  0  0  0  0  0  0  0  0
   13.6032   26.8466   -5.1822 C   0  0  0  0  0  0  0  0  0  0  0  0
   13.5597   27.3082   -6.3613 O   0  0  0  0  0  0  0  0  0  0  0  0
   14.6756   25.9503   -4.7675 N   0  0  0  0  0  0  0  0  0  0  0  0
   14.4428   25.6306   -3.4532 C   0  0  0  0  0  0  0  0  0  0  0  0
   15.2329   24.9528   -2.7514 O   0  0  0  0  0  0  0  0  0  0  0  0
   15.6274   25.6543   -5.8032 C   0  0  0  0  0  0  0  0  0  0  0  0
   16.0326   26.7853   -6.5650 C   0  0  0  0  0  0  0  0  0  0  0  0
   16.7297   26.5835   -7.7145 C   0  0  0  0  0  0  0  0  0  0  0  0
   17.0472   25.3292   -8.1504 C   0  0  0  0  0  0  0  0  0  0  0  0
   16.6499   24.2402   -7.3953 C   0  0  0  0  0  0  0  0  0  0  0  0
   15.9315   24.4213   -6.2070 C   0  0  0  0  0  0  0  0  0  0  0  0
   17.7231   25.1881   -9.4344 C   0  0  0  0  0  0  0  0  0  0  0  0
   18.2912   25.0792  -10.4419 N   0  0  0  0  0  0  0  0  0  0  0  0
   11.6332   27.9770   -4.2382 C   0  0  0  0  0  0  0  0  0  0  0  0
   10.5277   27.6042   -4.9568 C   0  0  0  0  0  0  0  0  0  0  0  0
    9.4833   28.4770   -5.0329 C   0  0  0  0  0  0  0  0  0  0  0  0
    9.5266   29.6994   -4.4193 C   0  0  0  0  0  0  0  0  0  0  0  0
   10.6203   30.1341   -3.6854 C   0  0  0  0  0  0  0  0  0  0  0  0
   11.6556   29.2262   -3.6198 C   0  0  0  0  0  0  0  0  0  0  0  0
    8.3893   30.6092   -4.5159 C   0  0  0  0  0  0  0  0  0  0  0  0
    7.4729   31.3285   -4.5629 N   0  0  0  0  0  0  0  0  0  0  0  0
   11.5758   24.1459    0.1410 C   0  0  0  0  0  0  0  0  0  0  0  0
   10.4804   23.0178    2.3132 C   0  0  0  0  0  0  0  0  0  0  0  0
   11.5871   22.2494    1.6450 C   0  0  0  0  0  0  0  0  0  0  0  0
   11.9917   21.0209    2.0765 C   0  0  0  0  0  0  0  0  0  0  0  0
   13.1531   20.4717    1.5653 C   0  0  0  0  0  0  0  0  0  0  0  0
   13.8423   21.2322    0.6190 C   0  0  0  0  0  0  0  0  0  0  0  0
   13.3904   22.4464    0.2176 N   0  0  0  0  0  0  0  0  0  0  0  0
   12.2844   22.9962    0.6880 C   0  0  0  0  0  0  0  0  0  0  0  0
 30 31  1  0  0  0
 31 32  2  0  0  0
 32 33  1  0  0  0
 33 34  2  0  0  0
 34 35  1  0  0  0
 35 36  2  0  0  0
 36 29  1  0  0  0
 29  1  1  0  0  0
  1  2  1  0  0  0
  2  3  1  0  0  0
  3  4  1  0  0  0
  4  5  1  0  0  0
  5  6  1  0  0  0
  4  7  1  0  0  0
  7  8  1  0  0  0
  8  9  2  0  0  0
  8 10  1  0  0  0
 10 11  1  0  0  0
 11 12  2  0  0  0
 10 13  1  0  0  0
 13 14  2  0  0  0
 14 15  1  0  0  0
 15 16  2  0  0  0
 16 17  1  0  0  0
 17 18  2  0  0  0
 16 19  1  0  0  0
 19 20  3  0  0  0
  7 21  1  0  0  0
 21 22  2  0  0  0
 22 23  1  0  0  0
 23 24  2  0  0  0
 24 25  1  0  0  0
 25 26  2  0  0  0
 24 27  1  0  0  0
 27 28  3  0  0  0
 36 31  1  0  0  0
  6  1  1  0  0  0
 18 13  1  0  0  0
 26 21  1  0  0  0
 11  4  1  0  0  0
M  END
> <minimizedAffinity>
30.19506

> <CNNscore>
0.5815037489

> <CNNaffinity>
7.2856473923

> <CNN_VS>
4.2366313934

> <CNNaffinity_variance>
1.3418693542

$$$$
[H]c1nc(C([H])([H])N2C([H])([H])C([H])([H])C3(C(=O)N(c4c([H])c([H])c(C#N)c([H])c4[H])C(=O)N3c3c([H])c([H])c(C#N)c([H])c3[H])C([H])([H])C2([H])[H])c(C([H])([H])[H])c([H])c1[H]


 36 40  0  0  0  0  0  0  0  0999 V2000
   10.3385   24.3242    0.7628 N   0  0  0  0  0  0  0  0  0  0  0  0
   11.6803   23.9040    1.1386 C   0  0  0  0  0  0  0  0  0  0  0  0
   12.6045   24.8224    0.3005 C   0  0  0  0  0  0  0  0  0  0  0  0
   12.5003   24.2950   -1.1251 C   0  0  0  0  0  0  0  0  0  0  0  0
   11.2861   23.4648   -1.2836 C   0  0  0  0  0  0  0  0  0  0  0  0
   10.1374   24.2191   -0.5763 C   0  0  0  0  0  0  0  0  0  0  0  0
   13.7720   23.6626   -1.3431 N   0  0  0  0  0  0  0  0  0  0  0  0
   14.4658   24.4554   -2.2614 C   0  0  0  0  0  0  0  0  0  0  0  0
   15.6591   24.3269   -2.6676 O   0  0  0  0  0  0  0  0  0  0  0  0
   13.6173   25.5322   -2.7577 N   0  0  0  0  0  0  0  0  0  0  0  0
   12.4013   25.4014   -2.1348 C   0  0  0  0  0  0  0  0  0  0  0  0
   11.4004   26.1088   -2.4069 O   0  0  0  0  0  0  0  0  0  0  0  0
   14.2616   26.3978   -3.7072 C   0  0  0  0  0  0  0  0  0  0  0  0
   13.6820   26.3748   -5.0062 C   0  0  0  0  0  0  0  0  0  0  0  0
   14.3556   26.9580   -6.0330 C   0  0  0  0  0  0  0  0  0  0  0  0
   15.5664   27.5606   -5.8465 C   0  0  0  0  0  0  0  0  0  0  0  0
   16.1140   27.5786   -4.5760 C   0  0  0  0  0  0  0  0  0  0  0  0
   15.4398   26.9857   -3.5014 C   0  0  0  0  0  0  0  0  0  0  0  0
   16.2675   28.0904   -7.0097 C   0  0  0  0  0  0  0  0  0  0  0  0
   16.8497   28.5251   -7.9163 N   0  0  0  0  0  0  0  0  0  0  0  0
   14.3401   22.5050   -0.7683 C   0  0  0  0  0  0  0  0  0  0  0  0
   14.0394   21.2766   -1.2954 C   0  0  0  0  0  0  0  0  0  0  0  0
   14.6175   20.1757   -0.7365 C   0  0  0  0  0  0  0  0  0  0  0  0
   15.4716   20.2788    0.3277 C   0  0  0  0  0  0  0  0  0  0  0  0
   15.8071   21.4932    0.9077 C   0  0  0  0  0  0  0  0  0  0  0  0
   15.2139   22.5873    0.3149 C   0  0  0  0  0  0  0  0  0  0  0  0
   16.0779   19.0808    0.9002 C   0  0  0  0  0  0  0  0  0  0  0  0
   16.5428   18.1269    1.3831 N   0  0  0  0  0  0  0  0  0  0  0  0
    9.6541   24.8127    1.7957 C   0  0  0  0  0  0  0  0  0  0  0  0
    9.0553   26.3826    3.8857 C   0  0  0  0  0  0  0  0  0  0  0  0
    8.8508   24.9050    4.0771 C   0  0  0  0  0  0  0  0  0  0  0  0
    8.3422   24.3776    5.2271 C   0  0  0  0  0  0  0  0  0  0  0  0
    8.3898   23.0100    5.4244 C   0  0  0  0  0  0  0  0  0  0  0  0
    8.9665   22.2495    4.4056 C   0  0  0  0  0  0  0  0  0  0  0  0
    9.4498   22.8246    3.2764 N   0  0  0  0  0  0  0  0  0  0  0  0
    9.4178   24.1281    3.0600 C   0  0  0  0  0  0  0  0  0  0  0  0
 30 31  1  0  0  0
 31 32  2  0  0  0
 32 33  1  0  0  0
 33 34  2  0  0  0
 34 35  1  0  0  0
 35 36  2  0  0  0
 36 29  1  0  0  0
 29  1  1  0  0  0
  1  2  1  0  0  0
  2  3  1  0  0  0
  3  4  1  0  0  0
  4  5  1  0  0  0
  5  6  1  0  0  0
  4  7  1  0  0  0
  7  8  1  0  0  0
  8  9  2  0  0  0
  8 10  1  0  0  0
 10 11  1  0  0  0
 11 12  2  0  0  0
 10 13  1  0  0  0
 13 14  2  0  0  0
 14 15  1  0  0  0
 15 16  2  0  0  0
 16 17  1  0  0  0
 17 18  2  0  0  0
 16 19  1  0  0  0
 19 20  3  0  0  0
  7 21  1  0  0  0
 21 22  2  0  0  0
 22 23  1  0  0  0
 23 24  2  0  0  0
 24 25  1  0  0  0
 25 26  2  0  0  0
 24 27  1  0  0  0
 27 28  3  0  0  0
 36 31  1  0  0  0
  6  1  1  0  0  0
 18 13  1  0  0  0
 26 21  1  0  0  0
 11  4  1  0  0  0
M  END
> <minimizedAffinity>
6.46836

> <CNNscore>
0.5707702041

> <CNNaffinity>
7.6276388168

> <CNN_VS>
4.3536291122

> <CNNaffinity_variance>
0.3457156122

$$$$
[H]OC(=O)c1c([H])c([H])c(N2C([H])([H])C([H])([H])C3(C(=O)N(c4c([H])c([H])c(-c5c([H])c([H])c([H])c([H])c5[H])c([H])c4[H])C(=O)N3c3nc([H])nc(OC([H])([H])[H])c3[H])C([H])([H])C2([H])[H])c(C([H])([H])[H])c1[H]


 43 48  0  0  0  0  0  0  0  0999 V2000
   15.9084   23.8086   -0.0529 N   0  0  0  0  0  0  0  0  0  0  0  0
   16.4537   24.5511   -1.1367 C   0  0  0  0  0  0  0  0  0  0  0  0
   17.6761   24.7062   -1.4036 O   0  0  0  0  0  0  0  0  0  0  0  0
   15.3407   25.0717   -1.8427 N   0  0  0  0  0  0  0  0  0  0  0  0
   14.1370   24.6615   -1.2118 C   0  0  0  0  0  0  0  0  0  0  0  0
   13.0408   25.2080   -1.4803 O   0  0  0  0  0  0  0  0  0  0  0  0
   14.4917   23.5712   -0.2875 C   0  0  0  0  0  0  0  0  0  0  0  0
   13.7990   23.6408    1.0303 C   0  0  0  0  0  0  0  0  0  0  0  0
   12.3301   23.4369    0.8402 C   0  0  0  0  0  0  0  0  0  0  0  0
   12.0165   22.3039   -0.0497 N   0  0  0  0  0  0  0  0  0  0  0  0
   13.0392   21.5205   -0.6591 C   0  0  0  0  0  0  0  0  0  0  0  0
   14.3195   22.2511   -0.9868 C   0  0  0  0  0  0  0  0  0  0  0  0
   10.6187   22.0737   -0.2798 C   0  0  0  0  0  0  0  0  0  0  0  0
    9.7102   23.1249   -0.1233 C   0  0  0  0  0  0  0  0  0  0  0  0
    8.3694   22.9961   -0.3612 C   0  0  0  0  0  0  0  0  0  0  0  0
    7.8938   21.7711   -0.7750 C   0  0  0  0  0  0  0  0  0  0  0  0
    8.7794   20.7350   -0.9301 C   0  0  0  0  0  0  0  0  0  0  0  0
   10.1560   20.8440   -0.6919 C   0  0  0  0  0  0  0  0  0  0  0  0
   11.0337   19.6717   -0.8512 C   0  0  0  0  0  0  0  0  0  0  0  0
    6.4829   21.6172   -1.0268 C   0  0  0  0  0  0  0  0  0  0  0  0
    6.0357   20.7619   -2.0218 O   0  0  0  0  0  0  0  0  0  0  0  0
    5.6290   22.2432   -0.3601 O   0  0  0  0  0  0  0  0  0  0  0  0
    6.4188   19.8425   -2.1904 H   0  0  0  0  0  0  0  0  0  0  0  0
   18.6567   23.7819    2.4512 C   0  0  0  0  0  0  0  0  0  0  0  0
   17.8492   24.1555    1.4083 C   0  0  0  0  0  0  0  0  0  0  0  0
   16.7318   23.4039    1.0474 C   0  0  0  0  0  0  0  0  0  0  0  0
   16.4767   22.3078    1.7551 N   0  0  0  0  0  0  0  0  0  0  0  0
   17.2415   21.9155    2.7763 C   0  0  0  0  0  0  0  0  0  0  0  0
   18.3255   22.6581    3.1147 N   0  0  0  0  0  0  0  0  0  0  0  0
   20.3336   24.3493    4.0657 C   0  0  0  0  0  0  0  0  0  0  0  0
   19.7753   24.5619    2.7879 O   0  0  0  0  0  0  0  0  0  0  0  0
   15.4966   25.8874   -3.0058 C   0  0  0  0  0  0  0  0  0  0  0  0
   14.5822   25.8284   -4.0382 C   0  0  0  0  0  0  0  0  0  0  0  0
   14.7126   26.6038   -5.1700 C   0  0  0  0  0  0  0  0  0  0  0  0
   15.7726   27.4666   -5.2961 C   0  0  0  0  0  0  0  0  0  0  0  0
   16.7059   27.5422   -4.2659 C   0  0  0  0  0  0  0  0  0  0  0  0
   16.5529   26.7518   -3.1406 C   0  0  0  0  0  0  0  0  0  0  0  0
   15.9698   28.3182   -6.4728 C   0  0  0  0  0  0  0  0  0  0  0  0
   15.8699   29.6893   -6.4048 C   0  0  0  0  0  0  0  0  0  0  0  0
   16.0655   30.4639   -7.5399 C   0  0  0  0  0  0  0  0  0  0  0  0
   16.3647   29.8932   -8.7664 C   0  0  0  0  0  0  0  0  0  0  0  0
   16.4636   28.5185   -8.8310 C   0  0  0  0  0  0  0  0  0  0  0  0
   16.2684   27.7514   -7.7035 C   0  0  0  0  0  0  0  0  0  0  0  0
 30 31  1  0  0  0
 31 24  1  0  0  0
 24 25  2  0  0  0
 25 26  1  0  0  0
 26 27  2  0  0  0
 27 28  1  0  0  0
 28 29  2  0  0  0
 26  1  1  0  0  0
  1  2  1  0  0  0
  2  3  2  0  0  0
  2  4  1  0  0  0
  4  5  1  0  0  0
  5  6  2  0  0  0
  5  7  1  0  0  0
  7  8  1  0  0  0
  8  9  1  0  0  0
  9 10  1  0  0  0
 10 11  1  0  0  0
 11 12  1  0  0  0
 10 13  1  0  0  0
 13 14  2  0  0  0
 14 15  1  0  0  0
 15 16  2  0  0  0
 16 17  1  0  0  0
 17 18  2  0  0  0
 18 19  1  0  0  0
 16 20  1  0  0  0
 20 21  1  0  0  0
 20 22  2  0  0  0
  4 32  1  0  0  0
 32 33  2  0  0  0
 33 34  1  0  0  0
 34 35  2  0  0  0
 35 36  1  0  0  0
 36 37  2  0  0  0
 35 38  1  0  0  0
 38 39  2  0  0  0
 39 40  1  0  0  0
 40 41  2  0  0  0
 41 42  1  0  0  0
 42 43  2  0  0  0
 29 24  1  0  0  0
  7  1  1  0  0  0
 12  7  1  0  0  0
 18 13  1  0  0  0
 37 32  1  0  0  0
 43 38  1  0  0  0
 21 23  1  0  0  0
M  END
> <minimizedAffinity>
29.64044

> <CNNscore>
0.5430212021

> <CNNaffinity>
7.4640665054

> <CNN_VS>
4.0531463623

> <CNNaffinity_variance>
0.3816947341

$$$$
[H]OC(=O)c1c([H])c([H])c(N2C([H])([H])C([H])([H])C3(C(=O)N(c4c([H])c([H])c(-c5c([H])c([H])c([H])c([H])c5[H])c([H])c4[H])C(=O)N3c3nc([H])nc(OC([H])([H])[H])c3[H])C([H])([H])C2([H])[H])c(C([H])([H])[H])c1[H]


 43 48  0  0  0  0  0  0  0  0999 V2000
   15.6532   23.3569   -0.3436 N   0  0  0  0  0  0  0  0  0  0  0  0
   16.2454   24.1899   -1.3330 C   0  0  0  0  0  0  0  0  0  0  0  0
   17.4729   24.4441   -1.4668 O   0  0  0  0  0  0  0  0  0  0  0  0
   15.1714   24.6655   -2.1260 N   0  0  0  0  0  0  0  0  0  0  0  0
   13.9457   24.1401   -1.6395 C   0  0  0  0  0  0  0  0  0  0  0  0
   12.8433   24.6206   -1.9948 O   0  0  0  0  0  0  0  0  0  0  0  0
   14.2885   23.0323   -0.7317 C   0  0  0  0  0  0  0  0  0  0  0  0
   13.4658   22.9862    0.5103 C   0  0  0  0  0  0  0  0  0  0  0  0
   12.0424   22.6890    0.1625 C   0  0  0  0  0  0  0  0  0  0  0  0
   11.9045   21.5830   -0.8028 N   0  0  0  0  0  0  0  0  0  0  0  0
   13.0384   20.9055   -1.3377 C   0  0  0  0  0  0  0  0  0  0  0  0
   14.2861   21.7403   -1.5012 C   0  0  0  0  0  0  0  0  0  0  0  0
   10.5575   21.2666   -1.1841 C   0  0  0  0  0  0  0  0  0  0  0  0
   10.2328   21.1462   -2.5386 C   0  0  0  0  0  0  0  0  0  0  0  0
    8.9830   20.8094   -2.9810 C   0  0  0  0  0  0  0  0  0  0  0  0
    7.9989   20.5781   -2.0451 C   0  0  0  0  0  0  0  0  0  0  0  0
    8.3102   20.6950   -0.7142 C   0  0  0  0  0  0  0  0  0  0  0  0
    9.5826   21.0390   -0.2386 C   0  0  0  0  0  0  0  0  0  0  0  0
    9.8243   21.1754    1.2081 C   0  0  0  0  0  0  0  0  0  0  0  0
    6.6753   20.2256   -2.4942 C   0  0  0  0  0  0  0  0  0  0  0  0
    5.6233   21.1165   -2.3489 O   0  0  0  0  0  0  0  0  0  0  0  0
    6.4400   19.1173   -3.0248 O   0  0  0  0  0  0  0  0  0  0  0  0
    5.6922   22.1069   -2.5354 H   0  0  0  0  0  0  0  0  0  0  0  0
   18.1782   23.3647    2.3856 C   0  0  0  0  0  0  0  0  0  0  0  0
   17.4512   23.7336    1.2835 C   0  0  0  0  0  0  0  0  0  0  0  0
   16.3921   22.9564    0.8165 C   0  0  0  0  0  0  0  0  0  0  0  0
   16.1115   21.8406    1.4825 N   0  0  0  0  0  0  0  0  0  0  0  0
   16.7984   21.4522    2.5591 C   0  0  0  0  0  0  0  0  0  0  0  0
   17.8264   22.2198    3.0006 N   0  0  0  0  0  0  0  0  0  0  0  0
   19.9726   24.8544    1.8363 C   0  0  0  0  0  0  0  0  0  0  0  0
   19.2397   24.1709    2.8290 O   0  0  0  0  0  0  0  0  0  0  0  0
   15.3795   25.5478   -3.2309 C   0  0  0  0  0  0  0  0  0  0  0  0
   14.8913   25.2382   -4.4843 C   0  0  0  0  0  0  0  0  0  0  0  0
   15.0809   26.0722   -5.5648 C   0  0  0  0  0  0  0  0  0  0  0  0
   15.7707   27.2493   -5.4143 C   0  0  0  0  0  0  0  0  0  0  0  0
   16.2709   27.5810   -4.1582 C   0  0  0  0  0  0  0  0  0  0  0  0
   16.0680   26.7256   -3.0898 C   0  0  0  0  0  0  0  0  0  0  0  0
   16.0074   28.1800   -6.5217 C   0  0  0  0  0  0  0  0  0  0  0  0
   16.3851   27.7444   -7.7716 C   0  0  0  0  0  0  0  0  0  0  0  0
   16.5981   28.6551   -8.7970 C   0  0  0  0  0  0  0  0  0  0  0  0
   16.4402   30.0179   -8.6032 C   0  0  0  0  0  0  0  0  0  0  0  0
   16.0620   30.4511   -7.3490 C   0  0  0  0  0  0  0  0  0  0  0  0
   15.8519   29.5457   -6.3322 C   0  0  0  0  0  0  0  0  0  0  0  0
 30 31  1  0  0  0
 31 24  1  0  0  0
 24 25  2  0  0  0
 25 26  1  0  0  0
 26 27  2  0  0  0
 27 28  1  0  0  0
 28 29  2  0  0  0
 26  1  1  0  0  0
  1  2  1  0  0  0
  2  3  2  0  0  0
  2  4  1  0  0  0
  4  5  1  0  0  0
  5  6  2  0  0  0
  5  7  1  0  0  0
  7  8  1  0  0  0
  8  9  1  0  0  0
  9 10  1  0  0  0
 10 11  1  0  0  0
 11 12  1  0  0  0
 10 13  1  0  0  0
 13 14  2  0  0  0
 14 15  1  0  0  0
 15 16  2  0  0  0
 16 17  1  0  0  0
 17 18  2  0  0  0
 18 19  1  0  0  0
 16 20  1  0  0  0
 20 21  1  0  0  0
 20 22  2  0  0  0
  4 32  1  0  0  0
 32 33  2  0  0  0
 33 34  1  0  0  0
 34 35  2  0  0  0
 35 36  1  0  0  0
 36 37  2  0  0  0
 35 38  1  0  0  0
 38 39  2  0  0  0
 39 40  1  0  0  0
 40 41  2  0  0  0
 41 42  1  0  0  0
 42 43  2  0  0  0
 29 24  1  0  0  0
  7  1  1  0  0  0
 12  7  1  0  0  0
 18 13  1  0  0  0
 37 32  1  0  0  0
 43 38  1  0  0  0
 21 23  1  0  0  0
M  END
> <minimizedAffinity>
25.88866

> <CNNscore>
0.5419265032

> <CNNaffinity>
7.6024613380

> <CNN_VS>
4.1199750900

> <CNNaffinity_variance>
0.3752951622

$$$$
[H]OC(=O)c1c([H])c([H])c(N2C([H])([H])C([H])([H])C3(C(=O)N(c4c([H])c([H])c(-c5c([H])c([H])c([H])c([H])c5[H])c([H])c4[H])C(=O)N3c3nc([H])nc(OC([H])([H])[H])c3[H])C([H])([H])C2([H])[H])c(C([H])([H])[H])c1[H]


 43 48  0  0  0  0  0  0  0  0999 V2000
   13.5561   22.6372    0.1954 N   0  0  0  0  0  0  0  0  0  0  0  0
   12.5741   22.9874    1.1632 C   0  0  0  0  0  0  0  0  0  0  0  0
   12.3447   22.3942    2.2517 O   0  0  0  0  0  0  0  0  0  0  0  0
   11.9184   24.1325    0.6464 N   0  0  0  0  0  0  0  0  0  0  0  0
   12.4805   24.4821   -0.6093 C   0  0  0  0  0  0  0  0  0  0  0  0
   11.9014   25.2806   -1.3836 O   0  0  0  0  0  0  0  0  0  0  0  0
   13.7513   23.7471   -0.7258 C   0  0  0  0  0  0  0  0  0  0  0  0
   14.0001   23.1717   -2.0780 C   0  0  0  0  0  0  0  0  0  0  0  0
   14.1739   24.2749   -3.0720 C   0  0  0  0  0  0  0  0  0  0  0  0
   15.0725   25.3426   -2.5960 N   0  0  0  0  0  0  0  0  0  0  0  0
   15.6783   25.2969   -1.3070 C   0  0  0  0  0  0  0  0  0  0  0  0
   14.8743   24.6138   -0.2266 C   0  0  0  0  0  0  0  0  0  0  0  0
   15.2615   26.4359   -3.5064 C   0  0  0  0  0  0  0  0  0  0  0  0
   14.3189   26.6684   -4.5125 C   0  0  0  0  0  0  0  0  0  0  0  0
   14.4072   27.7111   -5.3934 C   0  0  0  0  0  0  0  0  0  0  0  0
   15.4767   28.5722   -5.2817 C   0  0  0  0  0  0  0  0  0  0  0  0
   16.4058   28.3498   -4.2972 C   0  0  0  0  0  0  0  0  0  0  0  0
   16.3358   27.2887   -3.3848 C   0  0  0  0  0  0  0  0  0  0  0  0
   17.3945   27.1024   -2.3776 C   0  0  0  0  0  0  0  0  0  0  0  0
   15.5868   29.6743   -6.2042 C   0  0  0  0  0  0  0  0  0  0  0  0
   15.0229   30.9038   -5.9009 O   0  0  0  0  0  0  0  0  0  0  0  0
   16.1902   29.5554   -7.2938 O   0  0  0  0  0  0  0  0  0  0  0  0
   15.0711   31.3379   -4.9901 H   0  0  0  0  0  0  0  0  0  0  0  0
   14.3860   19.1064   -0.6226 C   0  0  0  0  0  0  0  0  0  0  0  0
   13.7957   20.3435   -0.6435 C   0  0  0  0  0  0  0  0  0  0  0  0
   14.1949   21.3554    0.2287 C   0  0  0  0  0  0  0  0  0  0  0  0
   15.1735   21.0756    1.0839 N   0  0  0  0  0  0  0  0  0  0  0  0
   15.7700   19.8824    1.1308 C   0  0  0  0  0  0  0  0  0  0  0  0
   15.3696   18.9083    0.2752 N   0  0  0  0  0  0  0  0  0  0  0  0
   12.8364   18.4130   -2.3133 C   0  0  0  0  0  0  0  0  0  0  0  0
   13.9590   18.1092   -1.5151 O   0  0  0  0  0  0  0  0  0  0  0  0
   10.8521   24.7751    1.3483 C   0  0  0  0  0  0  0  0  0  0  0  0
    9.5471   24.3538    1.1905 C   0  0  0  0  0  0  0  0  0  0  0  0
    8.5025   24.9589    1.8551 C   0  0  0  0  0  0  0  0  0  0  0  0
    8.7423   26.0111    2.7033 C   0  0  0  0  0  0  0  0  0  0  0  0
   10.0515   26.4512    2.8774 C   0  0  0  0  0  0  0  0  0  0  0  0
   11.0823   25.8274    2.1972 C   0  0  0  0  0  0  0  0  0  0  0  0
    7.6771   26.6982    3.4396 C   0  0  0  0  0  0  0  0  0  0  0  0
    7.2588   27.9654    3.1024 C   0  0  0  0  0  0  0  0  0  0  0  0
    6.2454   28.5839    3.8213 C   0  0  0  0  0  0  0  0  0  0  0  0
    5.6256   27.9569    4.8901 C   0  0  0  0  0  0  0  0  0  0  0  0
    6.0477   26.6869    5.2257 C   0  0  0  0  0  0  0  0  0  0  0  0
    7.0543   26.0750    4.5114 C   0  0  0  0  0  0  0  0  0  0  0  0
 30 31  1  0  0  0
 31 24  1  0  0  0
 24 25  2  0  0  0
 25 26  1  0  0  0
 26 27  2  0  0  0
 27 28  1  0  0  0
 28 29  2  0  0  0
 26  1  1  0  0  0
  1  2  1  0  0  0
  2  3  2  0  0  0
  2  4  1  0  0  0
  4  5  1  0  0  0
  5  6  2  0  0  0
  5  7  1  0  0  0
  7  8  1  0  0  0
  8  9  1  0  0  0
  9 10  1  0  0  0
 10 11  1  0  0  0
 11 12  1  0  0  0
 10 13  1  0  0  0
 13 14  2  0  0  0
 14 15  1  0  0  0
 15 16  2  0  0  0
 16 17  1  0  0  0
 17 18  2  0  0  0
 18 19  1  0  0  0
 16 20  1  0  0  0
 20 21  1  0  0  0
 20 22  2  0  0  0
  4 32  1  0  0  0
 32 33  2  0  0  0
 33 34  1  0  0  0
 34 35  2  0  0  0
 35 36  1  0  0  0
 36 37  2  0  0  0
 35 38  1  0  0  0
 38 39  2  0  0  0
 39 40  1  0  0  0
 40 41  2  0  0  0
 41 42  1  0  0  0
 42 43  2  0  0  0
 29 24  1  0  0  0
  7  1  1  0  0  0
 12  7  1  0  0  0
 18 13  1  0  0  0
 37 32  1  0  0  0
 43 38  1  0  0  0
 21 23  1  0  0  0
M  END
> <minimizedAffinity>
15.96866

> <CNNscore>
0.5387830138

> <CNNaffinity>
7.4913167953

> <CNN_VS>
4.0361943245

> <CNNaffinity_variance>
0.5220488906

$$$$
[H]OC(=O)c1c([H])c([H])c(N2C([H])([H])C([H])([H])C3(C(=O)N(c4c([H])c([H])c(-c5c([H])c([H])c([H])c([H])c5[H])c([H])c4[H])C(=O)N3c3nc([H])nc(OC([H])([H])[H])c3[H])C([H])([H])C2([H])[H])c(C([H])([H])[H])c1[H]


 43 48  0  0  0  0  0  0  0  0999 V2000
   15.4761   23.1718   -0.3847 N   0  0  0  0  0  0  0  0  0  0  0  0
   16.0866   24.0426   -1.3293 C   0  0  0  0  0  0  0  0  0  0  0  0
   17.3167   24.2989   -1.4319 O   0  0  0  0  0  0  0  0  0  0  0  0
   15.0272   24.5528   -2.1203 N   0  0  0  0  0  0  0  0  0  0  0  0
   13.7924   24.0113   -1.6764 C   0  0  0  0  0  0  0  0  0  0  0  0
   12.6971   24.5086   -2.0304 O   0  0  0  0  0  0  0  0  0  0  0  0
   14.1175   22.8667   -0.8086 C   0  0  0  0  0  0  0  0  0  0  0  0
   13.2738   22.7725    0.4164 C   0  0  0  0  0  0  0  0  0  0  0  0
   11.8559   22.4932    0.0328 C   0  0  0  0  0  0  0  0  0  0  0  0
   11.7323   21.4276   -0.9787 N   0  0  0  0  0  0  0  0  0  0  0  0
   12.8739   20.7695   -1.5215 C   0  0  0  0  0  0  0  0  0  0  0  0
   14.1258   21.6070   -1.6298 C   0  0  0  0  0  0  0  0  0  0  0  0
   10.3914   21.1305   -1.3953 C   0  0  0  0  0  0  0  0  0  0  0  0
   10.1020   21.0079   -2.7576 C   0  0  0  0  0  0  0  0  0  0  0  0
    8.8596   20.6885   -3.2324 C   0  0  0  0  0  0  0  0  0  0  0  0
    7.8467   20.4777   -2.3228 C   0  0  0  0  0  0  0  0  0  0  0  0
    8.1233   20.5969   -0.9844 C   0  0  0  0  0  0  0  0  0  0  0  0
    9.3875   20.9234   -0.4758 C   0  0  0  0  0  0  0  0  0  0  0  0
    9.5917   21.0638    0.9763 C   0  0  0  0  0  0  0  0  0  0  0  0
    6.5305   20.1438   -2.8063 C   0  0  0  0  0  0  0  0  0  0  0  0
    5.7682   19.1817   -2.1621 O   0  0  0  0  0  0  0  0  0  0  0  0
    6.0416   20.7080   -3.8103 O   0  0  0  0  0  0  0  0  0  0  0  0
    5.6905   19.1020   -1.1581 H   0  0  0  0  0  0  0  0  0  0  0  0
   17.9558   23.0612    2.3836 C   0  0  0  0  0  0  0  0  0  0  0  0
   17.2483   23.4764    1.2853 C   0  0  0  0  0  0  0  0  0  0  0  0
   16.1944   22.7227    0.7706 C   0  0  0  0  0  0  0  0  0  0  0  0
   15.8990   21.5825    1.3872 N   0  0  0  0  0  0  0  0  0  0  0  0
   16.5667   21.1490    2.4586 C   0  0  0  0  0  0  0  0  0  0  0  0
   17.5900   21.8943    2.9469 N   0  0  0  0  0  0  0  0  0  0  0  0
   19.4315   24.9221    2.0674 C   0  0  0  0  0  0  0  0  0  0  0  0
   19.0126   23.8448    2.8758 O   0  0  0  0  0  0  0  0  0  0  0  0
   15.2556   25.4787   -3.1848 C   0  0  0  0  0  0  0  0  0  0  0  0
   16.1815   26.4938   -3.0522 C   0  0  0  0  0  0  0  0  0  0  0  0
   16.4176   27.3992   -4.0639 C   0  0  0  0  0  0  0  0  0  0  0  0
   15.7253   27.3083   -5.2456 C   0  0  0  0  0  0  0  0  0  0  0  0
   14.7874   26.2913   -5.4004 C   0  0  0  0  0  0  0  0  0  0  0  0
   14.5681   25.3959   -4.3687 C   0  0  0  0  0  0  0  0  0  0  0  0
   15.9283   28.2385   -6.3602 C   0  0  0  0  0  0  0  0  0  0  0  0
   15.7655   29.5974   -6.2141 C   0  0  0  0  0  0  0  0  0  0  0  0
   15.9688   30.4481   -7.2918 C   0  0  0  0  0  0  0  0  0  0  0  0
   16.3385   29.9673   -8.5375 C   0  0  0  0  0  0  0  0  0  0  0  0
   16.5004   28.6046   -8.6806 C   0  0  0  0  0  0  0  0  0  0  0  0
   16.2974   27.7618   -7.6099 C   0  0  0  0  0  0  0  0  0  0  0  0
 30 31  1  0  0  0
 31 24  1  0  0  0
 24 25  2  0  0  0
 25 26  1  0  0  0
 26 27  2  0  0  0
 27 28  1  0  0  0
 28 29  2  0  0  0
 26  1  1  0  0  0
  1  2  1  0  0  0
  2  3  2  0  0  0
  2  4  1  0  0  0
  4  5  1  0  0  0
  5  6  2  0  0  0
  5  7  1  0  0  0
  7  8  1  0  0  0
  8  9  1  0  0  0
  9 10  1  0  0  0
 10 11  1  0  0  0
 11 12  1  0  0  0
 10 13  1  0  0  0
 13 14  2  0  0  0
 14 15  1  0  0  0
 15 16  2  0  0  0
 16 17  1  0  0  0
 17 18  2  0  0  0
 18 19  1  0  0  0
 16 20  1  0  0  0
 20 21  1  0  0  0
 20 22  2  0  0  0
  4 32  1  0  0  0
 32 33  2  0  0  0
 33 34  1  0  0  0
 34 35  2  0  0  0
 35 36  1  0  0  0
 36 37  2  0  0  0
 35 38  1  0  0  0
 38 39  2  0  0  0
 39 40  1  0  0  0
 40 41  2  0  0  0
 41 42  1  0  0  0
 42 43  2  0  0  0
 29 24  1  0  0  0
  7  1  1  0  0  0
 12  7  1  0  0  0
 18 13  1  0  0  0
 37 32  1  0  0  0
 43 38  1  0  0  0
 21 23  1  0  0  0
M  END
> <minimizedAffinity>
26.79769

> <CNNscore>
0.5223769546

> <CNNaffinity>
7.5184617043

> <CNN_VS>
3.9274711609

> <CNNaffinity_variance>
0.4084032178

$$$$
[H]OC(=O)c1c([H])c([H])c(N2C([H])([H])C([H])([H])C3(C(=O)N(c4c([H])c([H])c(-c5c([H])c([H])c([H])c([H])c5[H])c([H])c4[H])C(=O)N3c3nc([H])nc(OC([H])([H])[H])c3[H])C([H])([H])C2([H])[H])c(C([H])([H])[H])c1[H]


 43 48  0  0  0  0  0  0  0  0999 V2000
   16.7306   24.1263    0.4106 N   0  0  0  0  0  0  0  0  0  0  0  0
   15.6099   23.7987    1.2231 C   0  0  0  0  0  0  0  0  0  0  0  0
   15.5676   23.7991    2.4831 O   0  0  0  0  0  0  0  0  0  0  0  0
   14.5646   23.4767    0.3220 N   0  0  0  0  0  0  0  0  0  0  0  0
   15.0269   23.6019   -1.0144 C   0  0  0  0  0  0  0  0  0  0  0  0
   14.3841   23.1160   -1.9751 O   0  0  0  0  0  0  0  0  0  0  0  0
   16.2914   24.3547   -0.9581 C   0  0  0  0  0  0  0  0  0  0  0  0
   17.3522   23.8316   -1.8649 C   0  0  0  0  0  0  0  0  0  0  0  0
   16.9334   24.0117   -3.2888 C   0  0  0  0  0  0  0  0  0  0  0  0
   16.3856   25.3529   -3.5627 N   0  0  0  0  0  0  0  0  0  0  0  0
   16.2688   26.3406   -2.5420 C   0  0  0  0  0  0  0  0  0  0  0  0
   16.0070   25.8190   -1.1493 C   0  0  0  0  0  0  0  0  0  0  0  0
   15.9523   25.5741   -4.9129 C   0  0  0  0  0  0  0  0  0  0  0  0
   15.5653   24.4864   -5.7015 C   0  0  0  0  0  0  0  0  0  0  0  0
   15.1041   24.6181   -6.9826 C   0  0  0  0  0  0  0  0  0  0  0  0
   15.0174   25.8840   -7.5190 C   0  0  0  0  0  0  0  0  0  0  0  0
   15.3959   26.9559   -6.7511 C   0  0  0  0  0  0  0  0  0  0  0  0
   15.8714   26.8446   -5.4377 C   0  0  0  0  0  0  0  0  0  0  0  0
   16.2884   28.0453   -4.6932 C   0  0  0  0  0  0  0  0  0  0  0  0
   14.5367   26.0403   -8.8689 C   0  0  0  0  0  0  0  0  0  0  0  0
   13.1774   26.0066   -9.1394 O   0  0  0  0  0  0  0  0  0  0  0  0
   15.3239   26.2113   -9.8262 O   0  0  0  0  0  0  0  0  0  0  0  0
   12.4775   26.4644   -8.5729 H   0  0  0  0  0  0  0  0  0  0  0  0
   19.4758   24.5521    2.8819 C   0  0  0  0  0  0  0  0  0  0  0  0
   18.2252   24.4693    2.3266 C   0  0  0  0  0  0  0  0  0  0  0  0
   18.0473   24.1977    0.9707 C   0  0  0  0  0  0  0  0  0  0  0  0
   19.1393   24.0203    0.2335 N   0  0  0  0  0  0  0  0  0  0  0  0
   20.3713   24.0935    0.7419 C   0  0  0  0  0  0  0  0  0  0  0  0
   20.5272   24.3589    2.0633 N   0  0  0  0  0  0  0  0  0  0  0  0
   20.4912   23.9903    4.9781 C   0  0  0  0  0  0  0  0  0  0  0  0
   19.6193   24.8281    4.2518 O   0  0  0  0  0  0  0  0  0  0  0  0
   13.2673   23.0858    0.7765 C   0  0  0  0  0  0  0  0  0  0  0  0
   12.2205   23.9856    0.7849 C   0  0  0  0  0  0  0  0  0  0  0  0
   10.9617   23.6323    1.2202 C   0  0  0  0  0  0  0  0  0  0  0  0
   10.7181   22.3557    1.6616 C   0  0  0  0  0  0  0  0  0  0  0  0
   11.7598   21.4323    1.6606 C   0  0  0  0  0  0  0  0  0  0  0  0
   13.0149   21.8127    1.2198 C   0  0  0  0  0  0  0  0  0  0  0  0
    9.4032   21.9156    2.1375 C   0  0  0  0  0  0  0  0  0  0  0  0
    8.2963   21.9114    1.3195 C   0  0  0  0  0  0  0  0  0  0  0  0
    7.0675   21.4855    1.8044 C   0  0  0  0  0  0  0  0  0  0  0  0
    6.9120   21.0544    3.1119 C   0  0  0  0  0  0  0  0  0  0  0  0
    8.0236   21.0603    3.9293 C   0  0  0  0  0  0  0  0  0  0  0  0
    9.2422   21.4842    3.4463 C   0  0  0  0  0  0  0  0  0  0  0  0
 30 31  1  0  0  0
 31 24  1  0  0  0
 24 25  2  0  0  0
 25 26  1  0  0  0
 26 27  2  0  0  0
 27 28  1  0  0  0
 28 29  2  0  0  0
 26  1  1  0  0  0
  1  2  1  0  0  0
  2  3  2  0  0  0
  2  4  1  0  0  0
  4  5  1  0  0  0
  5  6  2  0  0  0
  5  7  1  0  0  0
  7  8  1  0  0  0
  8  9  1  0  0  0
  9 10  1  0  0  0
 10 11  1  0  0  0
 11 12  1  0  0  0
 10 13  1  0  0  0
 13 14  2  0  0  0
 14 15  1  0  0  0
 15 16  2  0  0  0
 16 17  1  0  0  0
 17 18  2  0  0  0
 18 19  1  0  0  0
 16 20  1  0  0  0
 20 21  1  0  0  0
 20 22  2  0  0  0
  4 32  1  0  0  0
 32 33  2  0  0  0
 33 34  1  0  0  0
 34 35  2  0  0  0
 35 36  1  0  0  0
 36 37  2  0  0  0
 35 38  1  0  0  0
 38 39  2  0  0  0
 39 40  1  0  0  0
 40 41  2  0  0  0
 41 42  1  0  0  0
 42 43  2  0  0  0
 29 24  1  0  0  0
  7  1  1  0  0  0
 12  7  1  0  0  0
 18 13  1  0  0  0
 37 32  1  0  0  0
 43 38  1  0  0  0
 21 23  1  0  0  0
M  END
> <minimizedAffinity>
31.64847

> <CNNscore>
0.5152817965

> <CNNaffinity>
7.6065964699

> <CNN_VS>
3.9195406437

> <CNNaffinity_variance>
0.4350599647

$$$$
[H]OC(=O)c1c([H])c([H])c(N2C([H])([H])C([H])([H])C3(C(=O)N(c4c([H])c([H])c(-c5c([H])c([H])c([H])c([H])c5[H])c([H])c4[H])C(=O)N3c3nc([H])nc(OC([H])([H])[H])c3[H])C([H])([H])C2([H])[H])c(C([H])([H])[H])c1[H]


 43 48  0  0  0  0  0  0  0  0999 V2000
   15.8421   23.2783    0.2490 N   0  0  0  0  0  0  0  0  0  0  0  0
   16.3483   23.7833   -0.9807 C   0  0  0  0  0  0  0  0  0  0  0  0
   17.5596   23.8609   -1.3212 O   0  0  0  0  0  0  0  0  0  0  0  0
   15.2114   24.1746   -1.7310 N   0  0  0  0  0  0  0  0  0  0  0  0
   14.0316   23.9181   -0.9844 C   0  0  0  0  0  0  0  0  0  0  0  0
   12.9304   24.4204   -1.3118 O   0  0  0  0  0  0  0  0  0  0  0  0
   14.4145   23.0248    0.1221 C   0  0  0  0  0  0  0  0  0  0  0  0
   13.7789   23.3646    1.4267 C   0  0  0  0  0  0  0  0  0  0  0  0
   12.3014   23.1535    1.3388 C   0  0  0  0  0  0  0  0  0  0  0  0
   11.9394   21.8733    0.7031 N   0  0  0  0  0  0  0  0  0  0  0  0
   12.9278   20.9673    0.2202 C   0  0  0  0  0  0  0  0  0  0  0  0
   14.2001   21.5961   -0.2956 C   0  0  0  0  0  0  0  0  0  0  0  0
   10.5310   21.6273    0.5784 C   0  0  0  0  0  0  0  0  0  0  0  0
    9.7392   21.5458    1.7279 C   0  0  0  0  0  0  0  0  0  0  0  0
    8.3855   21.3530    1.6913 C   0  0  0  0  0  0  0  0  0  0  0  0
    7.7753   21.2341    0.4619 C   0  0  0  0  0  0  0  0  0  0  0  0
    8.5461   21.3125   -0.6702 C   0  0  0  0  0  0  0  0  0  0  0  0
    9.9335   21.5090   -0.6565 C   0  0  0  0  0  0  0  0  0  0  0  0
   10.6917   21.5485   -1.9188 C   0  0  0  0  0  0  0  0  0  0  0  0
    6.3500   21.0270    0.4055 C   0  0  0  0  0  0  0  0  0  0  0  0
    5.7464   20.6088   -0.7703 O   0  0  0  0  0  0  0  0  0  0  0  0
    5.6232   21.2150    1.4064 O   0  0  0  0  0  0  0  0  0  0  0  0
    6.1244   19.8939   -1.3757 H   0  0  0  0  0  0  0  0  0  0  0  0
   18.6054   23.7927    2.6829 C   0  0  0  0  0  0  0  0  0  0  0  0
   17.7592   23.9654    1.6183 C   0  0  0  0  0  0  0  0  0  0  0  0
   16.7073   23.0834    1.3740 C   0  0  0  0  0  0  0  0  0  0  0  0
   16.5541   22.0655    2.2153 N   0  0  0  0  0  0  0  0  0  0  0  0
   17.3592   21.8681    3.2615 C   0  0  0  0  0  0  0  0  0  0  0  0
   18.3783   22.7355    3.4852 N   0  0  0  0  0  0  0  0  0  0  0  0
   20.3867   24.5476    4.0964 C   0  0  0  0  0  0  0  0  0  0  0  0
   19.6558   24.6999    2.8996 O   0  0  0  0  0  0  0  0  0  0  0  0
   15.3258   24.7425   -3.0374 C   0  0  0  0  0  0  0  0  0  0  0  0
   14.9160   26.0375   -3.2835 C   0  0  0  0  0  0  0  0  0  0  0  0
   15.0148   26.6058   -4.5350 C   0  0  0  0  0  0  0  0  0  0  0  0
   15.5326   25.8836   -5.5811 C   0  0  0  0  0  0  0  0  0  0  0  0
   15.9527   24.5759   -5.3543 C   0  0  0  0  0  0  0  0  0  0  0  0
   15.8413   24.0281   -4.0886 C   0  0  0  0  0  0  0  0  0  0  0  0
   15.6649   26.4282   -6.9356 C   0  0  0  0  0  0  0  0  0  0  0  0
   16.0908   27.7170   -7.1643 C   0  0  0  0  0  0  0  0  0  0  0  0
   16.2063   28.1977   -8.4612 C   0  0  0  0  0  0  0  0  0  0  0  0
   15.9017   27.4086   -9.5586 C   0  0  0  0  0  0  0  0  0  0  0  0
   15.4746   26.1175   -9.3257 C   0  0  0  0  0  0  0  0  0  0  0  0
   15.3599   25.6424   -8.0377 C   0  0  0  0  0  0  0  0  0  0  0  0
 30 31  1  0  0  0
 31 24  1  0  0  0
 24 25  2  0  0  0
 25 26  1  0  0  0
 26 27  2  0  0  0
 27 28  1  0  0  0
 28 29  2  0  0  0
 26  1  1  0  0  0
  1  2  1  0  0  0
  2  3  2  0  0  0
  2  4  1  0  0  0
  4  5  1  0  0  0
  5  6  2  0  0  0
  5  7  1  0  0  0
  7  8  1  0  0  0
  8  9  1  0  0  0
  9 10  1  0  0  0
 10 11  1  0  0  0
 11 12  1  0  0  0
 10 13  1  0  0  0
 13 14  2  0  0  0
 14 15  1  0  0  0
 15 16  2  0  0  0
 16 17  1  0  0  0
 17 18  2  0  0  0
 18 19  1  0  0  0
 16 20  1  0  0  0
 20 21  1  0  0  0
 20 22  2  0  0  0
  4 32  1  0  0  0
 32 33  2  0  0  0
 33 34  1  0  0  0
 34 35  2  0  0  0
 35 36  1  0  0  0
 36 37  2  0  0  0
 35 38  1  0  0  0
 38 39  2  0  0  0
 39 40  1  0  0  0
 40 41  2  0  0  0
 41 42  1  0  0  0
 42 43  2  0  0  0
 29 24  1  0  0  0
  7  1  1  0  0  0
 12  7  1  0  0  0
 18 13  1  0  0  0
 37 32  1  0  0  0
 43 38  1  0  0  0
 21 23  1  0  0  0
M  END
> <minimizedAffinity>
35.51558

> <CNNscore>
0.4877552092

> <CNNaffinity>
7.5270018578

> <CNN_VS>
3.6713342667

> <CNNaffinity_variance>
0.3367025554

$$$$
[H]OC(=O)c1c([H])c([H])c(N2C([H])([H])C([H])([H])C3(C(=O)N(c4c([H])c([H])c(-c5c([H])c([H])c([H])c([H])c5[H])c([H])c4[H])C(=O)N3c3nc([H])nc(OC([H])([H])[H])c3[H])C([H])([H])C2([H])[H])c(C([H])([H])[H])c1[H]


 43 48  0  0  0  0  0  0  0  0999 V2000
   13.4185   22.6660   -0.9703 N   0  0  0  0  0  0  0  0  0  0  0  0
   13.9797   23.3573   -2.0796 C   0  0  0  0  0  0  0  0  0  0  0  0
   14.6286   22.8490   -3.0335 O   0  0  0  0  0  0  0  0  0  0  0  0
   13.6555   24.7229   -1.8837 N   0  0  0  0  0  0  0  0  0  0  0  0
   12.9124   24.8728   -0.6835 C   0  0  0  0  0  0  0  0  0  0  0  0
   12.7453   25.9981   -0.1560 O   0  0  0  0  0  0  0  0  0  0  0  0
   12.4604   23.5269   -0.2924 C   0  0  0  0  0  0  0  0  0  0  0  0
   12.5622   23.2512    1.1688 C   0  0  0  0  0  0  0  0  0  0  0  0
   11.6189   24.1378    1.9169 C   0  0  0  0  0  0  0  0  0  0  0  0
   10.2751   24.1893    1.3123 N   0  0  0  0  0  0  0  0  0  0  0  0
    9.9556   23.4664    0.1264 C   0  0  0  0  0  0  0  0  0  0  0  0
   11.0879   23.2805   -0.8552 C   0  0  0  0  0  0  0  0  0  0  0  0
    9.3336   25.0401    1.9826 C   0  0  0  0  0  0  0  0  0  0  0  0
    9.7958   26.0321    2.8527 C   0  0  0  0  0  0  0  0  0  0  0  0
    8.9656   26.9068    3.4982 C   0  0  0  0  0  0  0  0  0  0  0  0
    7.6095   26.8035    3.2787 C   0  0  0  0  0  0  0  0  0  0  0  0
    7.1487   25.8321    2.4266 C   0  0  0  0  0  0  0  0  0  0  0  0
    7.9802   24.9256    1.7555 C   0  0  0  0  0  0  0  0  0  0  0  0
    7.4007   23.8904    0.8823 C   0  0  0  0  0  0  0  0  0  0  0  0
    6.7202   27.7152    3.9537 C   0  0  0  0  0  0  0  0  0  0  0  0
    6.2882   28.8719    3.3234 O   0  0  0  0  0  0  0  0  0  0  0  0
    6.3145   27.4906    5.1158 O   0  0  0  0  0  0  0  0  0  0  0  0
    5.9981   28.9135    2.3567 H   0  0  0  0  0  0  0  0  0  0  0  0
   15.2923   19.7953    0.4691 C   0  0  0  0  0  0  0  0  0  0  0  0
   14.8932   21.0732    0.1745 C   0  0  0  0  0  0  0  0  0  0  0  0
   13.8108   21.3217   -0.6685 C   0  0  0  0  0  0  0  0  0  0  0  0
   13.1770   20.2696   -1.1771 N   0  0  0  0  0  0  0  0  0  0  0  0
   13.5387   19.0126   -0.9109 C   0  0  0  0  0  0  0  0  0  0  0  0
   14.5945   18.7880   -0.0887 N   0  0  0  0  0  0  0  0  0  0  0  0
   17.0983   20.7251    1.7397 C   0  0  0  0  0  0  0  0  0  0  0  0
   16.3878   19.5805    1.3219 O   0  0  0  0  0  0  0  0  0  0  0  0
   14.0626   25.7370   -2.8048 C   0  0  0  0  0  0  0  0  0  0  0  0
   13.1300   26.4352   -3.5450 C   0  0  0  0  0  0  0  0  0  0  0  0
   13.4987   27.4157   -4.4404 C   0  0  0  0  0  0  0  0  0  0  0  0
   14.8244   27.7244   -4.6173 C   0  0  0  0  0  0  0  0  0  0  0  0
   15.7813   27.0326   -3.8800 C   0  0  0  0  0  0  0  0  0  0  0  0
   15.3850   26.0515   -2.9885 C   0  0  0  0  0  0  0  0  0  0  0  0
   15.2833   28.7554   -5.5529 C   0  0  0  0  0  0  0  0  0  0  0  0
   14.9851   30.0870   -5.3733 C   0  0  0  0  0  0  0  0  0  0  0  0
   15.4390   31.0357   -6.2790 C   0  0  0  0  0  0  0  0  0  0  0  0
   16.1992   30.6822   -7.3821 C   0  0  0  0  0  0  0  0  0  0  0  0
   16.4960   29.3464   -7.5592 C   0  0  0  0  0  0  0  0  0  0  0  0
   16.0438   28.4062   -6.6596 C   0  0  0  0  0  0  0  0  0  0  0  0
 30 31  1  0  0  0
 31 24  1  0  0  0
 24 25  2  0  0  0
 25 26  1  0  0  0
 26 27  2  0  0  0
 27 28  1  0  0  0
 28 29  2  0  0  0
 26  1  1  0  0  0
  1  2  1  0  0  0
  2  3  2  0  0  0
  2  4  1  0  0  0
  4  5  1  0  0  0
  5  6  2  0  0  0
  5  7  1  0  0  0
  7  8  1  0  0  0
  8  9  1  0  0  0
  9 10  1  0  0  0
 10 11  1  0  0  0
 11 12  1  0  0  0
 10 13  1  0  0  0
 13 14  2  0  0  0
 14 15  1  0  0  0
 15 16  2  0  0  0
 16 17  1  0  0  0
 17 18  2  0  0  0
 18 19  1  0  0  0
 16 20  1  0  0  0
 20 21  1  0  0  0
 20 22  2  0  0  0
  4 32  1  0  0  0
 32 33  2  0  0  0
 33 34  1  0  0  0
 34 35  2  0  0  0
 35 36  1  0  0  0
 36 37  2  0  0  0
 35 38  1  0  0  0
 38 39  2  0  0  0
 39 40  1  0  0  0
 40 41  2  0  0  0
 41 42  1  0  0  0
 42 43  2  0  0  0
 29 24  1  0  0  0
  7  1  1  0  0  0
 12  7  1  0  0  0
 18 13  1  0  0  0
 37 32  1  0  0  0
 43 38  1  0  0  0
 21 23  1  0  0  0
M  END
> <minimizedAffinity>
19.99619

> <CNNscore>
0.4807294607

> <CNNaffinity>
7.1083168983

> <CNN_VS>
3.4171774387

> <CNNaffinity_variance>
0.3838907778

$$$$
[H]OC(=O)c1c([H])c([H])c(N2C([H])([H])C([H])([H])C3(C(=O)N(c4c([H])c([H])c(-c5c([H])c([H])c([H])c([H])c5[H])c([H])c4[H])C(=O)N3c3nc([H])nc(OC([H])([H])[H])c3[H])C([H])([H])C2([H])[H])c(C([H])([H])[H])c1[H]


 43 48  0  0  0  0  0  0  0  0999 V2000
   15.1771   22.8095    0.1248 N   0  0  0  0  0  0  0  0  0  0  0  0
   13.9181   22.1996    0.3826 C   0  0  0  0  0  0  0  0  0  0  0  0
   13.4652   21.8539    1.5072 O   0  0  0  0  0  0  0  0  0  0  0  0
   13.2909   22.0669   -0.8813 N   0  0  0  0  0  0  0  0  0  0  0  0
   14.1403   22.5817   -1.8954 C   0  0  0  0  0  0  0  0  0  0  0  0
   13.9334   22.3345   -3.1072 O   0  0  0  0  0  0  0  0  0  0  0  0
   15.1812   23.3726   -1.2173 C   0  0  0  0  0  0  0  0  0  0  0  0
   16.5492   23.1877   -1.7793 C   0  0  0  0  0  0  0  0  0  0  0  0
   16.5980   23.7207   -3.1753 C   0  0  0  0  0  0  0  0  0  0  0  0
   15.9667   25.0465   -3.3079 N   0  0  0  0  0  0  0  0  0  0  0  0
   15.3677   25.7088   -2.1973 C   0  0  0  0  0  0  0  0  0  0  0  0
   14.7488   24.8114   -1.1524 C   0  0  0  0  0  0  0  0  0  0  0  0
   15.9714   25.5980   -4.6329 C   0  0  0  0  0  0  0  0  0  0  0  0
   15.6512   24.7821   -5.7222 C   0  0  0  0  0  0  0  0  0  0  0  0
   15.5956   25.2413   -7.0095 C   0  0  0  0  0  0  0  0  0  0  0  0
   15.8684   26.5716   -7.2412 C   0  0  0  0  0  0  0  0  0  0  0  0
   16.1838   27.3779   -6.1771 C   0  0  0  0  0  0  0  0  0  0  0  0
   16.2471   26.9293   -4.8511 C   0  0  0  0  0  0  0  0  0  0  0  0
   16.6263   27.8551   -3.7698 C   0  0  0  0  0  0  0  0  0  0  0  0
   15.8177   27.0712   -8.5923 C   0  0  0  0  0  0  0  0  0  0  0  0
   15.3228   26.2788   -9.6166 O   0  0  0  0  0  0  0  0  0  0  0  0
   16.2130   28.2235   -8.8772 O   0  0  0  0  0  0  0  0  0  0  0  0
   14.4982   25.7009   -9.5354 H   0  0  0  0  0  0  0  0  0  0  0  0
   18.1337   23.8734    2.1126 C   0  0  0  0  0  0  0  0  0  0  0  0
   17.1328   23.8548    1.1761 C   0  0  0  0  0  0  0  0  0  0  0  0
   16.2085   22.8125    1.1191 C   0  0  0  0  0  0  0  0  0  0  0  0
   16.3334   21.8342    2.0105 N   0  0  0  0  0  0  0  0  0  0  0  0
   17.2955   21.8211    2.9357 C   0  0  0  0  0  0  0  0  0  0  0  0
   18.1872   22.8429    2.9775 N   0  0  0  0  0  0  0  0  0  0  0  0
   20.1063   24.8395    3.0698 C   0  0  0  0  0  0  0  0  0  0  0  0
   19.0489   24.9387    2.1415 O   0  0  0  0  0  0  0  0  0  0  0  0
   11.9949   21.4821   -1.0251 C   0  0  0  0  0  0  0  0  0  0  0  0
   10.9960   22.1384   -1.7157 C   0  0  0  0  0  0  0  0  0  0  0  0
    9.7384   21.5953   -1.8658 C   0  0  0  0  0  0  0  0  0  0  0  0
    9.4480   20.3685   -1.3230 C   0  0  0  0  0  0  0  0  0  0  0  0
   10.4415   19.6893   -0.6232 C   0  0  0  0  0  0  0  0  0  0  0  0
   11.6956   20.2571   -0.4855 C   0  0  0  0  0  0  0  0  0  0  0  0
    8.1316   19.7354   -1.4460 C   0  0  0  0  0  0  0  0  0  0  0  0
    7.2744   20.0320   -2.4813 C   0  0  0  0  0  0  0  0  0  0  0  0
    6.0362   19.4107   -2.5665 C   0  0  0  0  0  0  0  0  0  0  0  0
    5.6233   18.4811   -1.6257 C   0  0  0  0  0  0  0  0  0  0  0  0
    6.4849   18.1865   -0.5891 C   0  0  0  0  0  0  0  0  0  0  0  0
    7.7130   18.8049   -0.5058 C   0  0  0  0  0  0  0  0  0  0  0  0
 30 31  1  0  0  0
 31 24  1  0  0  0
 24 25  2  0  0  0
 25 26  1  0  0  0
 26 27  2  0  0  0
 27 28  1  0  0  0
 28 29  2  0  0  0
 26  1  1  0  0  0
  1  2  1  0  0  0
  2  3  2  0  0  0
  2  4  1  0  0  0
  4  5  1  0  0  0
  5  6  2  0  0  0
  5  7  1  0  0  0
  7  8  1  0  0  0
  8  9  1  0  0  0
  9 10  1  0  0  0
 10 11  1  0  0  0
 11 12  1  0  0  0
 10 13  1  0  0  0
 13 14  2  0  0  0
 14 15  1  0  0  0
 15 16  2  0  0  0
 16 17  1  0  0  0
 17 18  2  0  0  0
 18 19  1  0  0  0
 16 20  1  0  0  0
 20 21  1  0  0  0
 20 22  2  0  0  0
  4 32  1  0  0  0
 32 33  2  0  0  0
 33 34  1  0  0  0
 34 35  2  0  0  0
 35 36  1  0  0  0
 36 37  2  0  0  0
 35 38  1  0  0  0
 38 39  2  0  0  0
 39 40  1  0  0  0
 40 41  2  0  0  0
 41 42  1  0  0  0
 42 43  2  0  0  0
 29 24  1  0  0  0
  7  1  1  0  0  0
 12  7  1  0  0  0
 18 13  1  0  0  0
 37 32  1  0  0  0
 43 38  1  0  0  0
 21 23  1  0  0  0
M  END
> <minimizedAffinity>
22.86463

> <CNNscore>
0.4706983566

> <CNNaffinity>
7.5149488449

> <CNN_VS>
3.5372741222

> <CNNaffinity_variance>
0.2315145433

$$$$
[H]OC(=O)c1c([H])c([H])c(N2C([H])([H])C([H])([H])C3(C(=O)N(c4c([H])c([H])c(-c5c([H])c([H])c([H])c([H])c5[H])c([H])c4[H])C(=O)N3c3nc([H])nc(OC([H])([H])[H])c3[H])C([H])([H])C2([H])[H])c(C([H])([H])[H])c1[H]


 43 48  0  0  0  0  0  0  0  0999 V2000
   13.4053   22.5234    0.0611 N   0  0  0  0  0  0  0  0  0  0  0  0
   12.4326   22.8667    1.0407 C   0  0  0  0  0  0  0  0  0  0  0  0
   12.1959   22.2506    2.1149 O   0  0  0  0  0  0  0  0  0  0  0  0
   11.7961   24.0359    0.5550 N   0  0  0  0  0  0  0  0  0  0  0  0
   12.3606   24.4068   -0.6936 C   0  0  0  0  0  0  0  0  0  0  0  0
   11.7936   25.2346   -1.4456 O   0  0  0  0  0  0  0  0  0  0  0  0
   13.6176   23.6522   -0.8327 C   0  0  0  0  0  0  0  0  0  0  0  0
   13.8520   23.1066   -2.1997 C   0  0  0  0  0  0  0  0  0  0  0  0
   14.0426   24.2310   -3.1665 C   0  0  0  0  0  0  0  0  0  0  0  0
   14.9616   25.2702   -2.6671 N   0  0  0  0  0  0  0  0  0  0  0  0
   15.5704   25.1814   -1.3817 C   0  0  0  0  0  0  0  0  0  0  0  0
   14.7575   24.4859   -0.3160 C   0  0  0  0  0  0  0  0  0  0  0  0
   15.1675   26.3824   -3.5506 C   0  0  0  0  0  0  0  0  0  0  0  0
   14.1725   26.7283   -4.4698 C   0  0  0  0  0  0  0  0  0  0  0  0
   14.2765   27.7967   -5.3176 C   0  0  0  0  0  0  0  0  0  0  0  0
   15.4170   28.5674   -5.2610 C   0  0  0  0  0  0  0  0  0  0  0  0
   16.3977   28.2334   -4.3618 C   0  0  0  0  0  0  0  0  0  0  0  0
   16.3129   27.1440   -3.4847 C   0  0  0  0  0  0  0  0  0  0  0  0
   17.4271   26.8351   -2.5720 C   0  0  0  0  0  0  0  0  0  0  0  0
   15.5442   29.6949   -6.1499 C   0  0  0  0  0  0  0  0  0  0  0  0
   14.9954   30.9221   -5.8116 O   0  0  0  0  0  0  0  0  0  0  0  0
   16.1493   29.6006   -7.2409 O   0  0  0  0  0  0  0  0  0  0  0  0
   15.0464   31.3282   -4.8881 H   0  0  0  0  0  0  0  0  0  0  0  0
   15.9034   19.8243    0.6079 C   0  0  0  0  0  0  0  0  0  0  0  0
   15.2910   21.0508    0.6068 C   0  0  0  0  0  0  0  0  0  0  0  0
   14.0210   21.2298    0.0601 C   0  0  0  0  0  0  0  0  0  0  0  0
   13.4231   20.1631   -0.4612 N   0  0  0  0  0  0  0  0  0  0  0  0
   13.9902   18.9549   -0.4764 C   0  0  0  0  0  0  0  0  0  0  0  0
   15.2267   18.7975    0.0595 N   0  0  0  0  0  0  0  0  0  0  0  0
   18.1213   20.6913    0.8721 C   0  0  0  0  0  0  0  0  0  0  0  0
   17.1841   19.6791    1.1665 O   0  0  0  0  0  0  0  0  0  0  0  0
   10.7436   24.6797    1.2763 C   0  0  0  0  0  0  0  0  0  0  0  0
    9.4410   24.2345    1.1735 C   0  0  0  0  0  0  0  0  0  0  0  0
    8.4096   24.8402    1.8579 C   0  0  0  0  0  0  0  0  0  0  0  0
    8.6606   25.9173    2.6708 C   0  0  0  0  0  0  0  0  0  0  0  0
    9.9675   26.3818    2.7893 C   0  0  0  0  0  0  0  0  0  0  0  0
   10.9850   25.7568    2.0904 C   0  0  0  0  0  0  0  0  0  0  0  0
    7.6097   26.6065    3.4255 C   0  0  0  0  0  0  0  0  0  0  0  0
    6.6915   25.9210    4.1881 C   0  0  0  0  0  0  0  0  0  0  0  0
    5.7115   26.6078    4.8913 C   0  0  0  0  0  0  0  0  0  0  0  0
    5.6230   27.9900    4.8525 C   0  0  0  0  0  0  0  0  0  0  0  0
    6.5448   28.6738    4.0868 C   0  0  0  0  0  0  0  0  0  0  0  0
    7.5161   27.9903    3.3888 C   0  0  0  0  0  0  0  0  0  0  0  0
 30 31  1  0  0  0
 31 24  1  0  0  0
 24 25  2  0  0  0
 25 26  1  0  0  0
 26 27  2  0  0  0
 27 28  1  0  0  0
 28 29  2  0  0  0
 26  1  1  0  0  0
  1  2  1  0  0  0
  2  3  2  0  0  0
  2  4  1  0  0  0
  4  5  1  0  0  0
  5  6  2  0  0  0
  5  7  1  0  0  0
  7  8  1  0  0  0
  8  9  1  0  0  0
  9 10  1  0  0  0
 10 11  1  0  0  0
 11 12  1  0  0  0
 10 13  1  0  0  0
 13 14  2  0  0  0
 14 15  1  0  0  0
 15 16  2  0  0  0
 16 17  1  0  0  0
 17 18  2  0  0  0
 18 19  1  0  0  0
 16 20  1  0  0  0
 20 21  1  0  0  0
 20 22  2  0  0  0
  4 32  1  0  0  0
 32 33  2  0  0  0
 33 34  1  0  0  0
 34 35  2  0  0  0
 35 36  1  0  0  0
 36 37  2  0  0  0
 35 38  1  0  0  0
 38 39  2  0  0  0
 39 40  1  0  0  0
 40 41  2  0  0  0
 41 42  1  0  0  0
 42 43  2  0  0  0
 29 24  1  0  0  0
  7  1  1  0  0  0
 12  7  1  0  0  0
 18 13  1  0  0  0
 37 32  1  0  0  0
 43 38  1  0  0  0
 21 23  1  0  0  0
M  END
> <minimizedAffinity>
15.70681

> <CNNscore>
0.4593104720

> <CNNaffinity>
7.3355650902

> <CNN_VS>
3.3693017960

> <CNNaffinity_variance>
0.3244244158

$$$$
[H]OC(=O)c1c([H])c([H])c(-c2c([H])c([H])c(N3C(=O)N(c4c([H])c([H])c(-c5c([H])c([H])c([H])c([H])c5[H])c([H])c4[H])C4(C3=O)C([H])([H])C([H])([H])N(C([H])([H])c3nc([H])c([H])c([H])c3C([H])([H])[H])C([H])([H])C4([H])[H])c([H])c2[H])c([H])c1[H]


 48 54  0  0  0  0  0  0  0  0999 V2000
   10.2869   20.3587    3.0481 N   0  0  0  0  0  0  0  0  0  0  0  0
    9.8809   20.7839    1.7157 C   0  0  0  0  0  0  0  0  0  0  0  0
    9.4349   22.1907    1.6074 C   0  0  0  0  0  0  0  0  0  0  0  0
   10.5603   23.1459    1.9719 C   0  0  0  0  0  0  0  0  0  0  0  0
   11.3831   22.5922    3.0747 C   0  0  0  0  0  0  0  0  0  0  0  0
   10.7819   21.4541    3.8353 C   0  0  0  0  0  0  0  0  0  0  0  0
   10.0733   24.4764    2.1252 N   0  0  0  0  0  0  0  0  0  0  0  0
   10.7680   25.3404    1.1954 C   0  0  0  0  0  0  0  0  0  0  0  0
   10.6759   26.5920    1.1119 O   0  0  0  0  0  0  0  0  0  0  0  0
   11.5940   24.5740    0.3609 N   0  0  0  0  0  0  0  0  0  0  0  0
   11.4332   23.2196    0.7582 C   0  0  0  0  0  0  0  0  0  0  0  0
   11.9854   22.2895    0.1173 O   0  0  0  0  0  0  0  0  0  0  0  0
   12.4151   25.0760   -0.7019 C   0  0  0  0  0  0  0  0  0  0  0  0
   11.8287   25.3824   -1.9311 C   0  0  0  0  0  0  0  0  0  0  0  0
   12.5760   25.8559   -2.9892 C   0  0  0  0  0  0  0  0  0  0  0  0
   13.9394   26.0483   -2.8788 C   0  0  0  0  0  0  0  0  0  0  0  0
   14.5231   25.7491   -1.6711 C   0  0  0  0  0  0  0  0  0  0  0  0
   13.7677   25.2692   -0.5982 C   0  0  0  0  0  0  0  0  0  0  0  0
   14.6637   26.5600   -4.0437 C   0  0  0  0  0  0  0  0  0  0  0  0
   14.2043   26.2154   -5.3069 C   0  0  0  0  0  0  0  0  0  0  0  0
   14.8314   26.6393   -6.4481 C   0  0  0  0  0  0  0  0  0  0  0  0
   15.9545   27.4330   -6.3730 C   0  0  0  0  0  0  0  0  0  0  0  0
   16.3995   27.7689   -5.1134 C   0  0  0  0  0  0  0  0  0  0  0  0
   15.7805   27.3506   -3.9604 C   0  0  0  0  0  0  0  0  0  0  0  0
   16.6388   27.8937   -7.5940 C   0  0  0  0  0  0  0  0  0  0  0  0
   16.7770   29.2603   -7.7788 O   0  0  0  0  0  0  0  0  0  0  0  0
   17.0716   27.0589   -8.4204 O   0  0  0  0  0  0  0  0  0  0  0  0
   17.3708   29.6850   -8.4720 H   0  0  0  0  0  0  0  0  0  0  0  0
    9.0659   25.0410    2.9592 C   0  0  0  0  0  0  0  0  0  0  0  0
    9.2484   26.1339    3.7498 C   0  0  0  0  0  0  0  0  0  0  0  0
    8.2190   26.6580    4.5402 C   0  0  0  0  0  0  0  0  0  0  0  0
    6.9728   26.0884    4.5533 C   0  0  0  0  0  0  0  0  0  0  0  0
    6.7822   24.9619    3.7399 C   0  0  0  0  0  0  0  0  0  0  0  0
    7.8003   24.4624    2.9724 C   0  0  0  0  0  0  0  0  0  0  0  0
    5.8741   26.5922    5.3608 C   0  0  0  0  0  0  0  0  0  0  0  0
    5.9222   27.8615    5.8712 C   0  0  0  0  0  0  0  0  0  0  0  0
    4.8881   28.3545    6.6510 C   0  0  0  0  0  0  0  0  0  0  0  0
    3.7841   27.5634    6.9247 C   0  0  0  0  0  0  0  0  0  0  0  0
    3.7377   26.2946    6.4127 C   0  0  0  0  0  0  0  0  0  0  0  0
    4.7771   25.8113    5.6350 C   0  0  0  0  0  0  0  0  0  0  0  0
   11.2467   19.3101    2.9077 C   0  0  0  0  0  0  0  0  0  0  0  0
   10.7609   19.1157    0.1637 C   0  0  0  0  0  0  0  0  0  0  0  0
   12.1406   19.4302    0.6397 C   0  0  0  0  0  0  0  0  0  0  0  0
   13.1607   19.6058   -0.2715 C   0  0  0  0  0  0  0  0  0  0  0  0
   14.4371   19.9022    0.1567 C   0  0  0  0  0  0  0  0  0  0  0  0
   14.6514   20.0141    1.5209 C   0  0  0  0  0  0  0  0  0  0  0  0
   13.6286   19.8343    2.3595 N   0  0  0  0  0  0  0  0  0  0  0  0
   12.3695   19.5459    2.0100 C   0  0  0  0  0  0  0  0  0  0  0  0
 42 43  1  0  0  0
 43 44  2  0  0  0
 44 45  1  0  0  0
 45 46  2  0  0  0
 46 47  1  0  0  0
 47 48  2  0  0  0
 48 41  1  0  0  0
 41  1  1  0  0  0
  1  2  1  0  0  0
  2  3  1  0  0  0
  3  4  1  0  0  0
  4  5  1  0  0  0
  5  6  1  0  0  0
  4  7  1  0  0  0
  7  8  1  0  0  0
  8  9  2  0  0  0
  8 10  1  0  0  0
 10 11  1  0  0  0
 11 12  2  0  0  0
 10 13  1  0  0  0
 13 14  2  0  0  0
 14 15  1  0  0  0
 15 16  2  0  0  0
 16 17  1  0  0  0
 17 18  2  0  0  0
 16 19  1  0  0  0
 19 20  2  0  0  0
 20 21  1  0  0  0
 21 22  2  0  0  0
 22 23  1  0  0  0
 23 24  2  0  0  0
 22 25  1  0  0  0
 25 26  1  0  0  0
 25 27  2  0  0  0
  7 29  1  0  0  0
 29 30  2  0  0  0
 30 31  1  0  0  0
 31 32  2  0  0  0
 32 33  1  0  0  0
 33 34  2  0  0  0
 32 35  1  0  0  0
 35 36  2  0  0  0
 36 37  1  0  0  0
 37 38  2  0  0  0
 38 39  1  0  0  0
 39 40  2  0  0  0
 48 43  1  0  0  0
  6  1  1  0  0  0
 18 13  1  0  0  0
 24 19  1  0  0  0
 34 29  1  0  0  0
 40 35  1  0  0  0
 11  4  1  0  0  0
 26 28  1  0  0  0
M  END
> <minimizedAffinity>
10.01065

> <CNNscore>
0.5989491940

> <CNNaffinity>
7.7136168480

> <CNN_VS>
4.6200647354

> <CNNaffinity_variance>
0.6617522836

$$$$
[H]OC(=O)c1c([H])c([H])c(-c2c([H])c([H])c(N3C(=O)N(c4c([H])c([H])c(-c5c([H])c([H])c([H])c([H])c5[H])c([H])c4[H])C4(C3=O)C([H])([H])C([H])([H])N(C([H])([H])c3nc([H])c([H])c([H])c3C([H])([H])[H])C([H])([H])C4([H])[H])c([H])c2[H])c([H])c1[H]


 48 54  0  0  0  0  0  0  0  0999 V2000
   15.1058   21.0969   -1.2100 N   0  0  0  0  0  0  0  0  0  0  0  0
   15.2204   22.0426   -0.1083 C   0  0  0  0  0  0  0  0  0  0  0  0
   14.9510   23.4557   -0.4551 C   0  0  0  0  0  0  0  0  0  0  0  0
   13.5221   23.6312   -0.9439 C   0  0  0  0  0  0  0  0  0  0  0  0
   13.0922   22.4578   -1.7428 C   0  0  0  0  0  0  0  0  0  0  0  0
   14.1817   21.5486   -2.2132 C   0  0  0  0  0  0  0  0  0  0  0  0
   13.3334   24.9196   -1.5227 N   0  0  0  0  0  0  0  0  0  0  0  0
   12.2842   25.6085   -0.8028 C   0  0  0  0  0  0  0  0  0  0  0  0
   11.7760   26.7229   -1.0886 O   0  0  0  0  0  0  0  0  0  0  0  0
   11.8865   24.8444    0.3036 N   0  0  0  0  0  0  0  0  0  0  0  0
   12.6766   23.6638    0.2907 C   0  0  0  0  0  0  0  0  0  0  0  0
   12.6037   22.8287    1.2278 O   0  0  0  0  0  0  0  0  0  0  0  0
   10.8909   25.2131    1.2672 C   0  0  0  0  0  0  0  0  0  0  0  0
    9.6609   24.5531    1.2647 C   0  0  0  0  0  0  0  0  0  0  0  0
    8.6652   24.8786    2.1619 C   0  0  0  0  0  0  0  0  0  0  0  0
    8.8419   25.8732    3.1040 C   0  0  0  0  0  0  0  0  0  0  0  0
   10.0509   26.5268    3.1124 C   0  0  0  0  0  0  0  0  0  0  0  0
   11.0606   26.1985    2.2043 C   0  0  0  0  0  0  0  0  0  0  0  0
    7.7412   26.1573    4.0267 C   0  0  0  0  0  0  0  0  0  0  0  0
    6.4441   25.9171    3.5963 C   0  0  0  0  0  0  0  0  0  0  0  0
    5.3574   26.1689    4.3906 C   0  0  0  0  0  0  0  0  0  0  0  0
    5.5241   26.6759    5.6603 C   0  0  0  0  0  0  0  0  0  0  0  0
    6.8166   26.9086    6.0758 C   0  0  0  0  0  0  0  0  0  0  0  0
    7.9157   26.6610    5.2896 C   0  0  0  0  0  0  0  0  0  0  0  0
    4.3622   26.9525    6.5235 C   0  0  0  0  0  0  0  0  0  0  0  0
    3.5762   25.8785    6.9100 O   0  0  0  0  0  0  0  0  0  0  0  0
    4.1153   28.1264    6.8815 O   0  0  0  0  0  0  0  0  0  0  0  0
    2.8728   25.9161    7.6293 H   0  0  0  0  0  0  0  0  0  0  0  0
   13.9858   25.5978   -2.5922 C   0  0  0  0  0  0  0  0  0  0  0  0
   15.2433   26.1137   -2.5196 C   0  0  0  0  0  0  0  0  0  0  0  0
   15.8444   26.7589   -3.6067 C   0  0  0  0  0  0  0  0  0  0  0  0
   15.1873   26.9010   -4.8007 C   0  0  0  0  0  0  0  0  0  0  0  0
   13.8913   26.3707   -4.8781 C   0  0  0  0  0  0  0  0  0  0  0  0
   13.3183   25.7421   -3.8049 C   0  0  0  0  0  0  0  0  0  0  0  0
   15.7667   27.5673   -5.9554 C   0  0  0  0  0  0  0  0  0  0  0  0
   16.0695   26.8508   -7.0819 C   0  0  0  0  0  0  0  0  0  0  0  0
   16.6311   27.4680   -8.1882 C   0  0  0  0  0  0  0  0  0  0  0  0
   16.8940   28.8282   -8.1682 C   0  0  0  0  0  0  0  0  0  0  0  0
   16.5897   29.5429   -7.0410 C   0  0  0  0  0  0  0  0  0  0  0  0
   16.0292   28.9161   -5.9403 C   0  0  0  0  0  0  0  0  0  0  0  0
   14.7455   19.8248   -0.6691 C   0  0  0  0  0  0  0  0  0  0  0  0
   14.9438   20.1674    2.0962 C   0  0  0  0  0  0  0  0  0  0  0  0
   13.6066   19.9000    1.4883 C   0  0  0  0  0  0  0  0  0  0  0  0
   12.4898   19.8094    2.2923 C   0  0  0  0  0  0  0  0  0  0  0  0
   11.2494   19.5687    1.7412 C   0  0  0  0  0  0  0  0  0  0  0  0
   11.1708   19.4223    0.3657 C   0  0  0  0  0  0  0  0  0  0  0  0
   12.2831   19.5192   -0.3660 N   0  0  0  0  0  0  0  0  0  0  0  0
   13.5138   19.7512    0.1053 C   0  0  0  0  0  0  0  0  0  0  0  0
 42 43  1  0  0  0
 43 44  2  0  0  0
 44 45  1  0  0  0
 45 46  2  0  0  0
 46 47  1  0  0  0
 47 48  2  0  0  0
 48 41  1  0  0  0
 41  1  1  0  0  0
  1  2  1  0  0  0
  2  3  1  0  0  0
  3  4  1  0  0  0
  4  5  1  0  0  0
  5  6  1  0  0  0
  4  7  1  0  0  0
  7  8  1  0  0  0
  8  9  2  0  0  0
  8 10  1  0  0  0
 10 11  1  0  0  0
 11 12  2  0  0  0
 10 13  1  0  0  0
 13 14  2  0  0  0
 14 15  1  0  0  0
 15 16  2  0  0  0
 16 17  1  0  0  0
 17 18  2  0  0  0
 16 19  1  0  0  0
 19 20  2  0  0  0
 20 21  1  0  0  0
 21 22  2  0  0  0
 22 23  1  0  0  0
 23 24  2  0  0  0
 22 25  1  0  0  0
 25 26  1  0  0  0
 25 27  2  0  0  0
  7 29  1  0  0  0
 29 30  2  0  0  0
 30 31  1  0  0  0
 31 32  2  0  0  0
 32 33  1  0  0  0
 33 34  2  0  0  0
 32 35  1  0  0  0
 35 36  2  0  0  0
 36 37  1  0  0  0
 37 38  2  0  0  0
 38 39  1  0  0  0
 39 40  2  0  0  0
 48 43  1  0  0  0
  6  1  1  0  0  0
 18 13  1  0  0  0
 24 19  1  0  0  0
 34 29  1  0  0  0
 40 35  1  0  0  0
 11  4  1  0  0  0
 26 28  1  0  0  0
M  END
> <minimizedAffinity>
15.83438

> <CNNscore>
0.5737928152

> <CNNaffinity>
7.6138639450

> <CNN_VS>
4.3687806129

> <CNNaffinity_variance>
0.6045237780

$$$$
[H]OC(=O)c1c([H])c([H])c(-c2c([H])c([H])c(N3C(=O)N(c4c([H])c([H])c(-c5c([H])c([H])c([H])c([H])c5[H])c([H])c4[H])C4(C3=O)C([H])([H])C([H])([H])N(C([H])([H])c3nc([H])c([H])c([H])c3C([H])([H])[H])C([H])([H])C4([H])[H])c([H])c2[H])c([H])c1[H]


 48 54  0  0  0  0  0  0  0  0999 V2000
   17.3330   24.5486    0.5148 N   0  0  0  0  0  0  0  0  0  0  0  0
   16.1031   25.1597    0.9995 C   0  0  0  0  0  0  0  0  0  0  0  0
   15.1574   25.6002   -0.0501 C   0  0  0  0  0  0  0  0  0  0  0  0
   14.6797   24.4192   -0.8798 C   0  0  0  0  0  0  0  0  0  0  0  0
   15.7729   23.4355   -1.0720 C   0  0  0  0  0  0  0  0  0  0  0  0
   17.1537   23.9194   -0.7644 C   0  0  0  0  0  0  0  0  0  0  0  0
   13.9847   24.8586   -2.0437 N   0  0  0  0  0  0  0  0  0  0  0  0
   12.6447   24.3132   -2.0241 C   0  0  0  0  0  0  0  0  0  0  0  0
   11.7780   24.4023   -2.9312 O   0  0  0  0  0  0  0  0  0  0  0  0
   12.4223   23.6426   -0.8129 N   0  0  0  0  0  0  0  0  0  0  0  0
   13.6206   23.7534   -0.0579 C   0  0  0  0  0  0  0  0  0  0  0  0
   13.6815   23.3236    1.1221 O   0  0  0  0  0  0  0  0  0  0  0  0
   11.2035   22.9983   -0.4188 C   0  0  0  0  0  0  0  0  0  0  0  0
   11.1337   21.6042   -0.4301 C   0  0  0  0  0  0  0  0  0  0  0  0
    9.9812   20.9363   -0.0725 C   0  0  0  0  0  0  0  0  0  0  0  0
    8.8439   21.6186    0.3134 C   0  0  0  0  0  0  0  0  0  0  0  0
    8.9058   22.9915    0.3272 C   0  0  0  0  0  0  0  0  0  0  0  0
   10.0724   23.6698   -0.0348 C   0  0  0  0  0  0  0  0  0  0  0  0
    7.6611   20.8399    0.6849 C   0  0  0  0  0  0  0  0  0  0  0  0
    7.2206   19.8561   -0.1889 C   0  0  0  0  0  0  0  0  0  0  0  0
    6.1149   19.0926    0.0752 C   0  0  0  0  0  0  0  0  0  0  0  0
    5.3969   19.2828    1.2350 C   0  0  0  0  0  0  0  0  0  0  0  0
    5.8453   20.2614    2.0945 C   0  0  0  0  0  0  0  0  0  0  0  0
    6.9525   21.0348    1.8421 C   0  0  0  0  0  0  0  0  0  0  0  0
    4.2044   18.4686    1.5292 C   0  0  0  0  0  0  0  0  0  0  0  0
    3.8161   17.5301    0.5863 O   0  0  0  0  0  0  0  0  0  0  0  0
    3.5809   18.6384    2.6014 O   0  0  0  0  0  0  0  0  0  0  0  0
    3.1361   16.8057    0.7489 H   0  0  0  0  0  0  0  0  0  0  0  0
   14.3589   25.7108   -3.1221 C   0  0  0  0  0  0  0  0  0  0  0  0
   13.5615   26.6826   -3.6440 C   0  0  0  0  0  0  0  0  0  0  0  0
   13.9842   27.5037   -4.6959 C   0  0  0  0  0  0  0  0  0  0  0  0
   15.2290   27.3630   -5.2511 C   0  0  0  0  0  0  0  0  0  0  0  0
   16.0526   26.3621   -4.7155 C   0  0  0  0  0  0  0  0  0  0  0  0
   15.6233   25.5678   -3.6859 C   0  0  0  0  0  0  0  0  0  0  0  0
   15.7111   28.1869   -6.3474 C   0  0  0  0  0  0  0  0  0  0  0  0
   16.1760   27.6013   -7.4941 C   0  0  0  0  0  0  0  0  0  0  0  0
   16.6481   28.3711   -8.5452 C   0  0  0  0  0  0  0  0  0  0  0  0
   16.6545   29.7532   -8.4483 C   0  0  0  0  0  0  0  0  0  0  0  0
   16.1884   30.3367   -7.3010 C   0  0  0  0  0  0  0  0  0  0  0  0
   15.7193   29.5580   -6.2559 C   0  0  0  0  0  0  0  0  0  0  0  0
   17.7997   23.6370    1.5107 C   0  0  0  0  0  0  0  0  0  0  0  0
   20.0008   24.2178   -0.1083 C   0  0  0  0  0  0  0  0  0  0  0  0
   20.1638   24.2282    1.3757 C   0  0  0  0  0  0  0  0  0  0  0  0
   21.3946   24.5072    1.9318 C   0  0  0  0  0  0  0  0  0  0  0  0
   21.5552   24.5254    3.3008 C   0  0  0  0  0  0  0  0  0  0  0  0
   20.4457   24.2546    4.0853 C   0  0  0  0  0  0  0  0  0  0  0  0
   19.2777   23.9907    3.4955 N   0  0  0  0  0  0  0  0  0  0  0  0
   19.0551   23.9578    2.1763 C   0  0  0  0  0  0  0  0  0  0  0  0
 42 43  1  0  0  0
 43 44  2  0  0  0
 44 45  1  0  0  0
 45 46  2  0  0  0
 46 47  1  0  0  0
 47 48  2  0  0  0
 48 41  1  0  0  0
 41  1  1  0  0  0
  1  2  1  0  0  0
  2  3  1  0  0  0
  3  4  1  0  0  0
  4  5  1  0  0  0
  5  6  1  0  0  0
  4  7  1  0  0  0
  7  8  1  0  0  0
  8  9  2  0  0  0
  8 10  1  0  0  0
 10 11  1  0  0  0
 11 12  2  0  0  0
 10 13  1  0  0  0
 13 14  2  0  0  0
 14 15  1  0  0  0
 15 16  2  0  0  0
 16 17  1  0  0  0
 17 18  2  0  0  0
 16 19  1  0  0  0
 19 20  2  0  0  0
 20 21  1  0  0  0
 21 22  2  0  0  0
 22 23  1  0  0  0
 23 24  2  0  0  0
 22 25  1  0  0  0
 25 26  1  0  0  0
 25 27  2  0  0  0
  7 29  1  0  0  0
 29 30  2  0  0  0
 30 31  1  0  0  0
 31 32  2  0  0  0
 32 33  1  0  0  0
 33 34  2  0  0  0
 32 35  1  0  0  0
 35 36  2  0  0  0
 36 37  1  0  0  0
 37 38  2  0  0  0
 38 39  1  0  0  0
 39 40  2  0  0  0
 48 43  1  0  0  0
  6  1  1  0  0  0
 18 13  1  0  0  0
 24 19  1  0  0  0
 34 29  1  0  0  0
 40 35  1  0  0  0
 11  4  1  0  0  0
 26 28  1  0  0  0
M  END
> <minimizedAffinity>
33.92607

> <CNNscore>
0.5611460805

> <CNNaffinity>
8.0591993332

> <CNN_VS>
4.5223879814

> <CNNaffinity_variance>
0.4811789393

$$$$
[H]OC(=O)c1c([H])c([H])c(-c2c([H])c([H])c(N3C(=O)N(c4c([H])c([H])c(-c5c([H])c([H])c([H])c([H])c5[H])c([H])c4[H])C4(C3=O)C([H])([H])C([H])([H])N(C([H])([H])c3nc([H])c([H])c([H])c3C([H])([H])[H])C([H])([H])C4([H])[H])c([H])c2[H])c([H])c1[H]


 48 54  0  0  0  0  0  0  0  0999 V2000
   16.9421   26.8652   -3.9009 N   0  0  0  0  0  0  0  0  0  0  0  0
   16.5905   25.4669   -4.1067 C   0  0  0  0  0  0  0  0  0  0  0  0
   16.7026   24.6024   -2.9110 C   0  0  0  0  0  0  0  0  0  0  0  0
   15.7526   25.0638   -1.8173 C   0  0  0  0  0  0  0  0  0  0  0  0
   15.6545   26.5436   -1.7963 C   0  0  0  0  0  0  0  0  0  0  0  0
   16.7166   27.2830   -2.5448 C   0  0  0  0  0  0  0  0  0  0  0  0
   16.0368   24.4108   -0.5830 N   0  0  0  0  0  0  0  0  0  0  0  0
   14.8564   23.6963   -0.1473 C   0  0  0  0  0  0  0  0  0  0  0  0
   14.6987   23.0888    0.9426 O   0  0  0  0  0  0  0  0  0  0  0  0
   13.8651   23.7688   -1.1363 N   0  0  0  0  0  0  0  0  0  0  0  0
   14.4074   24.5334   -2.2038 C   0  0  0  0  0  0  0  0  0  0  0  0
   13.7710   24.6838   -3.2777 O   0  0  0  0  0  0  0  0  0  0  0  0
   12.5691   23.1586   -1.0755 C   0  0  0  0  0  0  0  0  0  0  0  0
   12.4457   21.7913   -1.3281 C   0  0  0  0  0  0  0  0  0  0  0  0
   11.2205   21.1588   -1.2949 C   0  0  0  0  0  0  0  0  0  0  0  0
   10.0601   21.8515   -1.0094 C   0  0  0  0  0  0  0  0  0  0  0  0
   10.1744   23.1981   -0.7591 C   0  0  0  0  0  0  0  0  0  0  0  0
   11.4146   23.8405   -0.7924 C   0  0  0  0  0  0  0  0  0  0  0  0
    8.7980   21.1098   -0.9862 C   0  0  0  0  0  0  0  0  0  0  0  0
    7.9356   21.3131    0.0817 C   0  0  0  0  0  0  0  0  0  0  0  0
    6.7426   20.6493    0.1879 C   0  0  0  0  0  0  0  0  0  0  0  0
    6.3586   19.7462   -0.7785 C   0  0  0  0  0  0  0  0  0  0  0  0
    7.2229   19.5545   -1.8338 C   0  0  0  0  0  0  0  0  0  0  0  0
    8.4227   20.2132   -1.9528 C   0  0  0  0  0  0  0  0  0  0  0  0
    5.0780   19.0246   -0.6740 C   0  0  0  0  0  0  0  0  0  0  0  0
    3.9232   19.7074   -1.0219 O   0  0  0  0  0  0  0  0  0  0  0  0
    5.0609   17.8359   -0.2819 O   0  0  0  0  0  0  0  0  0  0  0  0
    3.0245   19.2750   -1.1594 H   0  0  0  0  0  0  0  0  0  0  0  0
   17.2165   24.3279    0.2112 C   0  0  0  0  0  0  0  0  0  0  0  0
   18.4685   24.1475   -0.2916 C   0  0  0  0  0  0  0  0  0  0  0  0
   19.5977   24.0878    0.5332 C   0  0  0  0  0  0  0  0  0  0  0  0
   19.4910   24.2085    1.8940 C   0  0  0  0  0  0  0  0  0  0  0  0
   18.2021   24.3941    2.4147 C   0  0  0  0  0  0  0  0  0  0  0  0
   17.1080   24.4505    1.5933 C   0  0  0  0  0  0  0  0  0  0  0  0
   20.6325   24.1477    2.7920 C   0  0  0  0  0  0  0  0  0  0  0  0
   21.9024   24.0787    2.2854 C   0  0  0  0  0  0  0  0  0  0  0  0
   23.0013   24.0104    3.1268 C   0  0  0  0  0  0  0  0  0  0  0  0
   22.8272   24.0122    4.5014 C   0  0  0  0  0  0  0  0  0  0  0  0
   21.5564   24.0820    5.0058 C   0  0  0  0  0  0  0  0  0  0  0  0
   20.4647   24.1492    4.1560 C   0  0  0  0  0  0  0  0  0  0  0  0
   16.2106   27.6514   -4.8430 C   0  0  0  0  0  0  0  0  0  0  0  0
   13.5123   27.0055   -5.1671 C   0  0  0  0  0  0  0  0  0  0  0  0
   14.4794   26.6646   -6.2523 C   0  0  0  0  0  0  0  0  0  0  0  0
   14.0391   26.0242   -7.3916 C   0  0  0  0  0  0  0  0  0  0  0  0
   14.9223   25.7100   -8.4023 C   0  0  0  0  0  0  0  0  0  0  0  0
   16.2523   26.0578   -8.2297 C   0  0  0  0  0  0  0  0  0  0  0  0
   16.6251   26.6765   -7.1072 N   0  0  0  0  0  0  0  0  0  0  0  0
   15.8205   27.0095   -6.0911 C   0  0  0  0  0  0  0  0  0  0  0  0
 42 43  1  0  0  0
 43 44  2  0  0  0
 44 45  1  0  0  0
 45 46  2  0  0  0
 46 47  1  0  0  0
 47 48  2  0  0  0
 48 41  1  0  0  0
 41  1  1  0  0  0
  1  2  1  0  0  0
  2  3  1  0  0  0
  3  4  1  0  0  0
  4  5  1  0  0  0
  5  6  1  0  0  0
  4  7  1  0  0  0
  7  8  1  0  0  0
  8  9  2  0  0  0
  8 10  1  0  0  0
 10 11  1  0  0  0
 11 12  2  0  0  0
 10 13  1  0  0  0
 13 14  2  0  0  0
 14 15  1  0  0  0
 15 16  2  0  0  0
 16 17  1  0  0  0
 17 18  2  0  0  0
 16 19  1  0  0  0
 19 20  2  0  0  0
 20 21  1  0  0  0
 21 22  2  0  0  0
 22 23  1  0  0  0
 23 24  2  0  0  0
 22 25  1  0  0  0
 25 26  1  0  0  0
 25 27  2  0  0  0
  7 29  1  0  0  0
 29 30  2  0  0  0
 30 31  1  0  0  0
 31 32  2  0  0  0
 32 33  1  0  0  0
 33 34  2  0  0  0
 32 35  1  0  0  0
 35 36  2  0  0  0
 36 37  1  0  0  0
 37 38  2  0  0  0
 38 39  1  0  0  0
 39 40  2  0  0  0
 48 43  1  0  0  0
  6  1  1  0  0  0
 18 13  1  0  0  0
 24 19  1  0  0  0
 34 29  1  0  0  0
 40 35  1  0  0  0
 11  4  1  0  0  0
 26 28  1  0  0  0
M  END
> <minimizedAffinity>
27.41774

> <CNNscore>
0.5596984625

> <CNNaffinity>
8.1964902878

> <CNN_VS>
4.5875630379

> <CNNaffinity_variance>
0.5359579921

$$$$
[H]OC(=O)c1c([H])c([H])c(-c2c([H])c([H])c(N3C(=O)N(c4c([H])c([H])c(-c5c([H])c([H])c([H])c([H])c5[H])c([H])c4[H])C4(C3=O)C([H])([H])C([H])([H])N(C([H])([H])c3nc([H])c([H])c([H])c3C([H])([H])[H])C([H])([H])C4([H])[H])c([H])c2[H])c([H])c1[H]


 48 54  0  0  0  0  0  0  0  0999 V2000
   17.1212   24.3013    1.0472 N   0  0  0  0  0  0  0  0  0  0  0  0
   15.9243   25.0660    1.3689 C   0  0  0  0  0  0  0  0  0  0  0  0
   14.9648   25.2401    0.2559 C   0  0  0  0  0  0  0  0  0  0  0  0
   14.4286   23.8969   -0.2129 C   0  0  0  0  0  0  0  0  0  0  0  0
   15.4853   22.8581   -0.1495 C   0  0  0  0  0  0  0  0  0  0  0  0
   16.8881   23.3558   -0.0093 C   0  0  0  0  0  0  0  0  0  0  0  0
   13.7165   24.0297   -1.4400 N   0  0  0  0  0  0  0  0  0  0  0  0
   12.3612   23.5601   -1.2494 C   0  0  0  0  0  0  0  0  0  0  0  0
   11.4735   23.4320   -2.1312 O   0  0  0  0  0  0  0  0  0  0  0  0
   12.1509   23.2518    0.1022 N   0  0  0  0  0  0  0  0  0  0  0  0
   13.3719   23.5187    0.7775 C   0  0  0  0  0  0  0  0  0  0  0  0
   13.4513   23.4230    2.0286 O   0  0  0  0  0  0  0  0  0  0  0  0
   10.9239   22.7842    0.6779 C   0  0  0  0  0  0  0  0  0  0  0  0
   10.9589   21.7430    1.6070 C   0  0  0  0  0  0  0  0  0  0  0  0
    9.8062   21.2481    2.1803 C   0  0  0  0  0  0  0  0  0  0  0  0
    8.5647   21.7621    1.8601 C   0  0  0  0  0  0  0  0  0  0  0  0
    8.5230   22.7878    0.9463 C   0  0  0  0  0  0  0  0  0  0  0  0
    9.6896   23.2903    0.3645 C   0  0  0  0  0  0  0  0  0  0  0  0
    7.3874   21.1889    2.5151 C   0  0  0  0  0  0  0  0  0  0  0  0
    7.2323   21.3878    3.8796 C   0  0  0  0  0  0  0  0  0  0  0  0
    6.1682   20.8741    4.5717 C   0  0  0  0  0  0  0  0  0  0  0  0
    5.2058   20.1333    3.9221 C   0  0  0  0  0  0  0  0  0  0  0  0
    5.3708   19.9443    2.5677 C   0  0  0  0  0  0  0  0  0  0  0  0
    6.4333   20.4535    1.8609 C   0  0  0  0  0  0  0  0  0  0  0  0
    4.0573   19.5739    4.6566 C   0  0  0  0  0  0  0  0  0  0  0  0
    3.5662   18.3448    4.2457 O   0  0  0  0  0  0  0  0  0  0  0  0
    3.5604   20.2072    5.6154 O   0  0  0  0  0  0  0  0  0  0  0  0
    2.9114   17.7880    4.7700 H   0  0  0  0  0  0  0  0  0  0  0  0
   14.0877   24.5430   -2.7160 C   0  0  0  0  0  0  0  0  0  0  0  0
   13.5827   25.6839   -3.2603 C   0  0  0  0  0  0  0  0  0  0  0  0
   13.9932   26.1527   -4.5136 C   0  0  0  0  0  0  0  0  0  0  0  0
   14.9283   25.4777   -5.2535 C   0  0  0  0  0  0  0  0  0  0  0  0
   15.4499   24.3016   -4.6952 C   0  0  0  0  0  0  0  0  0  0  0  0
   15.0374   23.8572   -3.4674 C   0  0  0  0  0  0  0  0  0  0  0  0
   15.3823   25.9211   -6.5613 C   0  0  0  0  0  0  0  0  0  0  0  0
   15.8714   27.1892   -6.7253 C   0  0  0  0  0  0  0  0  0  0  0  0
   16.2994   27.6317   -7.9667 C   0  0  0  0  0  0  0  0  0  0  0  0
   16.2385   26.7896   -9.0653 C   0  0  0  0  0  0  0  0  0  0  0  0
   15.7498   25.5217   -8.8989 C   0  0  0  0  0  0  0  0  0  0  0  0
   15.3237   25.0895   -7.6538 C   0  0  0  0  0  0  0  0  0  0  0  0
   17.5862   23.6773    2.2452 C   0  0  0  0  0  0  0  0  0  0  0  0
   19.4861   24.0923    0.2398 C   0  0  0  0  0  0  0  0  0  0  0  0
   19.9097   24.1541    1.6702 C   0  0  0  0  0  0  0  0  0  0  0  0
   21.2292   24.3985    1.9881 C   0  0  0  0  0  0  0  0  0  0  0  0
   21.6303   24.4636    3.3054 C   0  0  0  0  0  0  0  0  0  0  0  0
   20.6678   24.2751    4.2840 C   0  0  0  0  0  0  0  0  0  0  0  0
   19.4046   24.0416    3.9212 N   0  0  0  0  0  0  0  0  0  0  0  0
   18.9509   23.9666    2.6646 C   0  0  0  0  0  0  0  0  0  0  0  0
 42 43  1  0  0  0
 43 44  2  0  0  0
 44 45  1  0  0  0
 45 46  2  0  0  0
 46 47  1  0  0  0
 47 48  2  0  0  0
 48 41  1  0  0  0
 41  1  1  0  0  0
  1  2  1  0  0  0
  2  3  1  0  0  0
  3  4  1  0  0  0
  4  5  1  0  0  0
  5  6  1  0  0  0
  4  7  1  0  0  0
  7  8  1  0  0  0
  8  9  2  0  0  0
  8 10  1  0  0  0
 10 11  1  0  0  0
 11 12  2  0  0  0
 10 13  1  0  0  0
 13 14  2  0  0  0
 14 15  1  0  0  0
 15 16  2  0  0  0
 16 17  1  0  0  0
 17 18  2  0  0  0
 16 19  1  0  0  0
 19 20  2  0  0  0
 20 21  1  0  0  0
 21 22  2  0  0  0
 22 23  1  0  0  0
 23 24  2  0  0  0
 22 25  1  0  0  0
 25 26  1  0  0  0
 25 27  2  0  0  0
  7 29  1  0  0  0
 29 30  2  0  0  0
 30 31  1  0  0  0
 31 32  2  0  0  0
 32 33  1  0  0  0
 33 34  2  0  0  0
 32 35  1  0  0  0
 35 36  2  0  0  0
 36 37  1  0  0  0
 37 38  2  0  0  0
 38 39  1  0  0  0
 39 40  2  0  0  0
 48 43  1  0  0  0
  6  1  1  0  0  0
 18 13  1  0  0  0
 24 19  1  0  0  0
 34 29  1  0  0  0
 40 35  1  0  0  0
 11  4  1  0  0  0
 26 28  1  0  0  0
M  END
> <minimizedAffinity>
28.57210

> <CNNscore>
0.5028484464

> <CNNaffinity>
7.8532247543

> <CNN_VS>
3.9489817619

> <CNNaffinity_variance>
0.2079343051

$$$$
[H]OC(=O)c1c([H])c([H])c(-c2c([H])c([H])c(N3C(=O)N(c4c([H])c([H])c(-c5c([H])c([H])c([H])c([H])c5[H])c([H])c4[H])C4(C3=O)C([H])([H])C([H])([H])N(C([H])([H])c3nc([H])c([H])c([H])c3C([H])([H])[H])C([H])([H])C4([H])[H])c([H])c2[H])c([H])c1[H]


 48 54  0  0  0  0  0  0  0  0999 V2000
    9.0625   20.5646    2.8920 N   0  0  0  0  0  0  0  0  0  0  0  0
    8.7473   21.1131    1.5802 C   0  0  0  0  0  0  0  0  0  0  0  0
    8.5913   22.5838    1.5285 C   0  0  0  0  0  0  0  0  0  0  0  0
    9.8855   23.2803    1.9177 C   0  0  0  0  0  0  0  0  0  0  0  0
   10.5830   22.5316    2.9913 C   0  0  0  0  0  0  0  0  0  0  0  0
    9.7678   21.5081    3.7147 C   0  0  0  0  0  0  0  0  0  0  0  0
    9.6747   24.6743    2.1249 N   0  0  0  0  0  0  0  0  0  0  0  0
   10.5263   25.4173    1.2214 C   0  0  0  0  0  0  0  0  0  0  0  0
   10.6861   26.6643    1.1854 O   0  0  0  0  0  0  0  0  0  0  0  0
   11.1809   24.5339    0.3512 N   0  0  0  0  0  0  0  0  0  0  0  0
   10.7534   23.2247    0.6994 C   0  0  0  0  0  0  0  0  0  0  0  0
   11.1074   22.2283    0.0191 O   0  0  0  0  0  0  0  0  0  0  0  0
   12.0839   24.9022   -0.6999 C   0  0  0  0  0  0  0  0  0  0  0  0
   11.5680   25.3313   -1.9239 C   0  0  0  0  0  0  0  0  0  0  0  0
   12.3933   25.6845   -2.9710 C   0  0  0  0  0  0  0  0  0  0  0  0
   13.7685   25.6295   -2.8541 C   0  0  0  0  0  0  0  0  0  0  0  0
   14.2832   25.2085   -1.6514 C   0  0  0  0  0  0  0  0  0  0  0  0
   13.4488   24.8501   -0.5896 C   0  0  0  0  0  0  0  0  0  0  0  0
   14.5785   26.0266   -4.0073 C   0  0  0  0  0  0  0  0  0  0  0  0
   14.1081   25.7228   -5.2769 C   0  0  0  0  0  0  0  0  0  0  0  0
   14.8100   26.0454   -6.4076 C   0  0  0  0  0  0  0  0  0  0  0  0
   16.0228   26.6914   -6.3150 C   0  0  0  0  0  0  0  0  0  0  0  0
   16.4779   26.9884   -5.0492 C   0  0  0  0  0  0  0  0  0  0  0  0
   15.7845   26.6704   -3.9066 C   0  0  0  0  0  0  0  0  0  0  0  0
   16.7880   27.0420   -7.5246 C   0  0  0  0  0  0  0  0  0  0  0  0
   16.9980   28.3865   -7.7872 O   0  0  0  0  0  0  0  0  0  0  0  0
   17.2227   26.1374   -8.2729 O   0  0  0  0  0  0  0  0  0  0  0  0
   17.6448   28.7393   -8.4734 H   0  0  0  0  0  0  0  0  0  0  0  0
    8.8019   25.3963    2.9888 C   0  0  0  0  0  0  0  0  0  0  0  0
    9.1640   25.8951    4.2024 C   0  0  0  0  0  0  0  0  0  0  0  0
    8.2700   26.6114    5.0068 C   0  0  0  0  0  0  0  0  0  0  0  0
    6.9807   26.8428    4.6045 C   0  0  0  0  0  0  0  0  0  0  0  0
    6.6050   26.3296    3.3545 C   0  0  0  0  0  0  0  0  0  0  0  0
    7.4925   25.6313    2.5801 C   0  0  0  0  0  0  0  0  0  0  0  0
    6.0145   27.5757    5.4060 C   0  0  0  0  0  0  0  0  0  0  0  0
    4.7655   27.0578    5.6200 C   0  0  0  0  0  0  0  0  0  0  0  0
    3.8289   27.7473    6.3734 C   0  0  0  0  0  0  0  0  0  0  0  0
    4.1477   28.9778    6.9245 C   0  0  0  0  0  0  0  0  0  0  0  0
    5.3976   29.4935    6.7100 C   0  0  0  0  0  0  0  0  0  0  0  0
    6.3261   28.7965    5.9546 C   0  0  0  0  0  0  0  0  0  0  0  0
    9.7931   19.3516    2.7036 C   0  0  0  0  0  0  0  0  0  0  0  0
   12.5276   19.5435    2.1662 C   0  0  0  0  0  0  0  0  0  0  0  0
   12.0795   19.0258    3.4930 C   0  0  0  0  0  0  0  0  0  0  0  0
   13.0119   18.6346    4.4308 C   0  0  0  0  0  0  0  0  0  0  0  0
   12.6094   18.1607    5.6611 C   0  0  0  0  0  0  0  0  0  0  0  0
   11.2489   18.0932    5.9141 C   0  0  0  0  0  0  0  0  0  0  0  0
   10.3891   18.4847    4.9711 N   0  0  0  0  0  0  0  0  0  0  0  0
   10.7132   18.9532    3.7603 C   0  0  0  0  0  0  0  0  0  0  0  0
 42 43  1  0  0  0
 43 44  2  0  0  0
 44 45  1  0  0  0
 45 46  2  0  0  0
 46 47  1  0  0  0
 47 48  2  0  0  0
 48 41  1  0  0  0
 41  1  1  0  0  0
  1  2  1  0  0  0
  2  3  1  0  0  0
  3  4  1  0  0  0
  4  5  1  0  0  0
  5  6  1  0  0  0
  4  7  1  0  0  0
  7  8  1  0  0  0
  8  9  2  0  0  0
  8 10  1  0  0  0
 10 11  1  0  0  0
 11 12  2  0  0  0
 10 13  1  0  0  0
 13 14  2  0  0  0
 14 15  1  0  0  0
 15 16  2  0  0  0
 16 17  1  0  0  0
 17 18  2  0  0  0
 16 19  1  0  0  0
 19 20  2  0  0  0
 20 21  1  0  0  0
 21 22  2  0  0  0
 22 23  1  0  0  0
 23 24  2  0  0  0
 22 25  1  0  0  0
 25 26  1  0  0  0
 25 27  2  0  0  0
  7 29  1  0  0  0
 29 30  2  0  0  0
 30 31  1  0  0  0
 31 32  2  0  0  0
 32 33  1  0  0  0
 33 34  2  0  0  0
 32 35  1  0  0  0
 35 36  2  0  0  0
 36 37  1  0  0  0
 37 38  2  0  0  0
 38 39  1  0  0  0
 39 40  2  0  0  0
 48 43  1  0  0  0
  6  1  1  0  0  0
 18 13  1  0  0  0
 24 19  1  0  0  0
 34 29  1  0  0  0
 40 35  1  0  0  0
 11  4  1  0  0  0
 26 28  1  0  0  0
M  END
> <minimizedAffinity>
19.34837

> <CNNscore>
0.4983868301

> <CNNaffinity>
7.0368204117

> <CNN_VS>
3.5070586205

> <CNNaffinity_variance>
0.4076332152

$$$$
[H]OC(=O)c1c([H])c([H])c(-c2c([H])c([H])c(N3C(=O)N(c4c([H])c([H])c(-c5c([H])c([H])c([H])c([H])c5[H])c([H])c4[H])C4(C3=O)C([H])([H])C([H])([H])N(C([H])([H])c3nc([H])c([H])c([H])c3C([H])([H])[H])C([H])([H])C4([H])[H])c([H])c2[H])c([H])c1[H]


 48 54  0  0  0  0  0  0  0  0999 V2000
   15.9931   21.6813   -2.3149 N   0  0  0  0  0  0  0  0  0  0  0  0
   15.8395   22.5470   -1.1539 C   0  0  0  0  0  0  0  0  0  0  0  0
   15.3026   23.8968   -1.4359 C   0  0  0  0  0  0  0  0  0  0  0  0
   13.9014   23.8118   -2.0198 C   0  0  0  0  0  0  0  0  0  0  0  0
   13.7761   22.6372   -2.9166 C   0  0  0  0  0  0  0  0  0  0  0  0
   15.0584   22.0068   -3.3565 C   0  0  0  0  0  0  0  0  0  0  0  0
   13.4834   25.0734   -2.5341 N   0  0  0  0  0  0  0  0  0  0  0  0
   12.2712   25.4785   -1.8558 C   0  0  0  0  0  0  0  0  0  0  0  0
   11.5599   26.4834   -2.1128 O   0  0  0  0  0  0  0  0  0  0  0  0
   11.9748   24.5701   -0.8295 N   0  0  0  0  0  0  0  0  0  0  0  0
   12.9935   23.5802   -0.8525 C   0  0  0  0  0  0  0  0  0  0  0  0
   13.0393   22.6814    0.0255 O   0  0  0  0  0  0  0  0  0  0  0  0
   10.8669   24.6558    0.0765 C   0  0  0  0  0  0  0  0  0  0  0  0
   11.0811   24.4412    1.4391 C   0  0  0  0  0  0  0  0  0  0  0  0
   10.0473   24.4994    2.3502 C   0  0  0  0  0  0  0  0  0  0  0  0
    8.7528   24.7736    1.9539 C   0  0  0  0  0  0  0  0  0  0  0  0
    8.5349   24.9865    0.6138 C   0  0  0  0  0  0  0  0  0  0  0  0
    9.5808   24.9278   -0.3107 C   0  0  0  0  0  0  0  0  0  0  0  0
    7.7100   24.8250    2.9803 C   0  0  0  0  0  0  0  0  0  0  0  0
    7.9238   24.1426    4.1694 C   0  0  0  0  0  0  0  0  0  0  0  0
    6.9943   24.1272    5.1749 C   0  0  0  0  0  0  0  0  0  0  0  0
    5.8011   24.8001    5.0318 C   0  0  0  0  0  0  0  0  0  0  0  0
    5.6017   25.4745    3.8474 C   0  0  0  0  0  0  0  0  0  0  0  0
    6.5252   25.4981    2.8304 C   0  0  0  0  0  0  0  0  0  0  0  0
    4.7924   24.7893    6.1061 C   0  0  0  0  0  0  0  0  0  0  0  0
    4.5166   23.5773    6.7190 O   0  0  0  0  0  0  0  0  0  0  0  0
    4.2187   25.8521    6.4351 O   0  0  0  0  0  0  0  0  0  0  0  0
    3.9871   23.4755    7.5692 H   0  0  0  0  0  0  0  0  0  0  0  0
   14.0441   25.9471   -3.5095 C   0  0  0  0  0  0  0  0  0  0  0  0
   13.8416   25.8306   -4.8505 C   0  0  0  0  0  0  0  0  0  0  0  0
   14.4050   26.7265   -5.7665 C   0  0  0  0  0  0  0  0  0  0  0  0
   15.1921   27.7678   -5.3498 C   0  0  0  0  0  0  0  0  0  0  0  0
   15.4027   27.8900   -3.9686 C   0  0  0  0  0  0  0  0  0  0  0  0
   14.8435   27.0047   -3.0861 C   0  0  0  0  0  0  0  0  0  0  0  0
   15.8035   28.7202   -6.2620 C   0  0  0  0  0  0  0  0  0  0  0  0
   15.4733   30.0470   -6.1929 C   0  0  0  0  0  0  0  0  0  0  0  0
   16.0391   30.9671   -7.0610 C   0  0  0  0  0  0  0  0  0  0  0  0
   16.9536   30.5528   -8.0158 C   0  0  0  0  0  0  0  0  0  0  0  0
   17.2829   29.2257   -8.0826 C   0  0  0  0  0  0  0  0  0  0  0  0
   16.7109   28.3140   -7.2107 C   0  0  0  0  0  0  0  0  0  0  0  0
   15.8741   20.3263   -1.8787 C   0  0  0  0  0  0  0  0  0  0  0  0
   13.0878   20.1485   -1.9711 C   0  0  0  0  0  0  0  0  0  0  0  0
   13.7840   20.0169   -0.6569 C   0  0  0  0  0  0  0  0  0  0  0  0
   13.0507   19.8255    0.4953 C   0  0  0  0  0  0  0  0  0  0  0  0
   13.6834   19.6968    1.7132 C   0  0  0  0  0  0  0  0  0  0  0  0
   15.0670   19.7676    1.7334 C   0  0  0  0  0  0  0  0  0  0  0  0
   15.7280   19.9543    0.5889 N   0  0  0  0  0  0  0  0  0  0  0  0
   15.1759   20.0860   -0.6230 C   0  0  0  0  0  0  0  0  0  0  0  0
 42 43  1  0  0  0
 43 44  2  0  0  0
 44 45  1  0  0  0
 45 46  2  0  0  0
 46 47  1  0  0  0
 47 48  2  0  0  0
 48 41  1  0  0  0
 41  1  1  0  0  0
  1  2  1  0  0  0
  2  3  1  0  0  0
  3  4  1  0  0  0
  4  5  1  0  0  0
  5  6  1  0  0  0
  4  7  1  0  0  0
  7  8  1  0  0  0
  8  9  2  0  0  0
  8 10  1  0  0  0
 10 11  1  0  0  0
 11 12  2  0  0  0
 10 13  1  0  0  0
 13 14  2  0  0  0
 14 15  1  0  0  0
 15 16  2  0  0  0
 16 17  1  0  0  0
 17 18  2  0  0  0
 16 19  1  0  0  0
 19 20  2  0  0  0
 20 21  1  0  0  0
 21 22  2  0  0  0
 22 23  1  0  0  0
 23 24  2  0  0  0
 22 25  1  0  0  0
 25 26  1  0  0  0
 25 27  2  0  0  0
  7 29  1  0  0  0
 29 30  2  0  0  0
 30 31  1  0  0  0
 31 32  2  0  0  0
 32 33  1  0  0  0
 33 34  2  0  0  0
 32 35  1  0  0  0
 35 36  2  0  0  0
 36 37  1  0  0  0
 37 38  2  0  0  0
 38 39  1  0  0  0
 39 40  2  0  0  0
 48 43  1  0  0  0
  6  1  1  0  0  0
 18 13  1  0  0  0
 24 19  1  0  0  0
 34 29  1  0  0  0
 40 35  1  0  0  0
 11  4  1  0  0  0
 26 28  1  0  0  0
M  END
> <minimizedAffinity>
33.25015

> <CNNscore>
0.4874250889

> <CNNaffinity>
7.4778380394

> <CNN_VS>
3.6448857784

> <CNNaffinity_variance>
0.8712347150

$$$$
[H]OC(=O)c1c([H])c([H])c(-c2c([H])c([H])c(N3C(=O)N(c4c([H])c([H])c(-c5c([H])c([H])c([H])c([H])c5[H])c([H])c4[H])C4(C3=O)C([H])([H])C([H])([H])N(C([H])([H])c3nc([H])c([H])c([H])c3C([H])([H])[H])C([H])([H])C4([H])[H])c([H])c2[H])c([H])c1[H]


 48 54  0  0  0  0  0  0  0  0999 V2000
   15.2589   25.3617   -3.8840 N   0  0  0  0  0  0  0  0  0  0  0  0
   14.9931   23.9298   -3.8826 C   0  0  0  0  0  0  0  0  0  0  0  0
   15.1853   23.2505   -2.5820 C   0  0  0  0  0  0  0  0  0  0  0  0
   14.2310   23.8032   -1.5354 C   0  0  0  0  0  0  0  0  0  0  0  0
   14.0390   25.2626   -1.7177 C   0  0  0  0  0  0  0  0  0  0  0  0
   15.0358   25.9520   -2.5932 C   0  0  0  0  0  0  0  0  0  0  0  0
   14.5823   23.3489   -0.2312 N   0  0  0  0  0  0  0  0  0  0  0  0
   13.4594   22.6330    0.3346 C   0  0  0  0  0  0  0  0  0  0  0  0
   13.3638   22.1765    1.5027 O   0  0  0  0  0  0  0  0  0  0  0  0
   12.4449   22.5055   -0.6249 N   0  0  0  0  0  0  0  0  0  0  0  0
   12.9146   23.1435   -1.8041 C   0  0  0  0  0  0  0  0  0  0  0  0
   12.2474   23.1026   -2.8690 O   0  0  0  0  0  0  0  0  0  0  0  0
   11.1920   21.8330   -0.4411 C   0  0  0  0  0  0  0  0  0  0  0  0
   11.1233   20.4524   -0.6357 C   0  0  0  0  0  0  0  0  0  0  0  0
    9.9401   19.7601   -0.4843 C   0  0  0  0  0  0  0  0  0  0  0  0
    8.7695   20.4034   -0.1325 C   0  0  0  0  0  0  0  0  0  0  0  0
    8.8301   21.7627    0.0612 C   0  0  0  0  0  0  0  0  0  0  0  0
   10.0277   22.4656   -0.0919 C   0  0  0  0  0  0  0  0  0  0  0  0
    7.5546   19.5998    0.0157 C   0  0  0  0  0  0  0  0  0  0  0  0
    7.4280   18.4518   -0.7535 C   0  0  0  0  0  0  0  0  0  0  0  0
    6.3185   17.6519   -0.6867 C   0  0  0  0  0  0  0  0  0  0  0  0
    5.2797   17.9697    0.1600 C   0  0  0  0  0  0  0  0  0  0  0  0
    5.4183   19.1109    0.9188 C   0  0  0  0  0  0  0  0  0  0  0  0
    6.5254   19.9225    0.8617 C   0  0  0  0  0  0  0  0  0  0  0  0
    4.0799   17.1176    0.2390 C   0  0  0  0  0  0  0  0  0  0  0  0
    3.5605   16.6242   -0.9473 O   0  0  0  0  0  0  0  0  0  0  0  0
    3.5667   16.8631    1.3521 O   0  0  0  0  0  0  0  0  0  0  0  0
    2.8629   15.9008   -1.0073 H   0  0  0  0  0  0  0  0  0  0  0  0
   15.7813   23.4499    0.5312 C   0  0  0  0  0  0  0  0  0  0  0  0
   16.2853   22.4493    1.3043 C   0  0  0  0  0  0  0  0  0  0  0  0
   17.4774   22.5958    2.0230 C   0  0  0  0  0  0  0  0  0  0  0  0
   18.1943   23.7627    1.9800 C   0  0  0  0  0  0  0  0  0  0  0  0
   17.6771   24.7955    1.1845 C   0  0  0  0  0  0  0  0  0  0  0  0
   16.5094   24.6352    0.4874 C   0  0  0  0  0  0  0  0  0  0  0  0
   19.4337   23.9649    2.7123 C   0  0  0  0  0  0  0  0  0  0  0  0
   20.6162   24.1032    2.0368 C   0  0  0  0  0  0  0  0  0  0  0  0
   21.8082   24.2869    2.7192 C   0  0  0  0  0  0  0  0  0  0  0  0
   21.8178   24.3344    4.1039 C   0  0  0  0  0  0  0  0  0  0  0  0
   20.6339   24.1966    4.7774 C   0  0  0  0  0  0  0  0  0  0  0  0
   19.4481   24.0126    4.0856 C   0  0  0  0  0  0  0  0  0  0  0  0
   14.4590   25.9619   -4.9042 C   0  0  0  0  0  0  0  0  0  0  0  0
   16.1024   28.1846   -5.3072 C   0  0  0  0  0  0  0  0  0  0  0  0
   15.8660   27.2377   -6.4371 C   0  0  0  0  0  0  0  0  0  0  0  0
   16.4440   27.4740   -7.6667 C   0  0  0  0  0  0  0  0  0  0  0  0
   16.2372   26.6033   -8.7152 C   0  0  0  0  0  0  0  0  0  0  0  0
   15.4353   25.4966   -8.4876 C   0  0  0  0  0  0  0  0  0  0  0  0
   14.9003   25.3154   -7.2782 N   0  0  0  0  0  0  0  0  0  0  0  0
   15.0614   26.1199   -6.2211 C   0  0  0  0  0  0  0  0  0  0  0  0
 42 43  1  0  0  0
 43 44  2  0  0  0
 44 45  1  0  0  0
 45 46  2  0  0  0
 46 47  1  0  0  0
 47 48  2  0  0  0
 48 41  1  0  0  0
 41  1  1  0  0  0
  1  2  1  0  0  0
  2  3  1  0  0  0
  3  4  1  0  0  0
  4  5  1  0  0  0
  5  6  1  0  0  0
  4  7  1  0  0  0
  7  8  1  0  0  0
  8  9  2  0  0  0
  8 10  1  0  0  0
 10 11  1  0  0  0
 11 12  2  0  0  0
 10 13  1  0  0  0
 13 14  2  0  0  0
 14 15  1  0  0  0
 15 16  2  0  0  0
 16 17  1  0  0  0
 17 18  2  0  0  0
 16 19  1  0  0  0
 19 20  2  0  0  0
 20 21  1  0  0  0
 21 22  2  0  0  0
 22 23  1  0  0  0
 23 24  2  0  0  0
 22 25  1  0  0  0
 25 26  1  0  0  0
 25 27  2  0  0  0
  7 29  1  0  0  0
 29 30  2  0  0  0
 30 31  1  0  0  0
 31 32  2  0  0  0
 32 33  1  0  0  0
 33 34  2  0  0  0
 32 35  1  0  0  0
 35 36  2  0  0  0
 36 37  1  0  0  0
 37 38  2  0  0  0
 38 39  1  0  0  0
 39 40  2  0  0  0
 48 43  1  0  0  0
  6  1  1  0  0  0
 18 13  1  0  0  0
 24 19  1  0  0  0
 34 29  1  0  0  0
 40 35  1  0  0  0
 11  4  1  0  0  0
 26 28  1  0  0  0
M  END
> <minimizedAffinity>
25.36453

> <CNNscore>
0.4708742499

> <CNNaffinity>
8.0106782913

> <CNN_VS>
3.7720222473

> <CNNaffinity_variance>
0.3685556054

$$$$
[H]OC(=O)c1c([H])c([H])c(-c2c([H])c([H])c(N3C(=O)N(c4c([H])c([H])c(-c5c([H])c([H])c([H])c([H])c5[H])c([H])c4[H])C4(C3=O)C([H])([H])C([H])([H])N(C([H])([H])c3nc([H])c([H])c([H])c3C([H])([H])[H])C([H])([H])C4([H])[H])c([H])c2[H])c([H])c1[H]


 48 54  0  0  0  0  0  0  0  0999 V2000
   15.3128   25.7217   -3.9852 N   0  0  0  0  0  0  0  0  0  0  0  0
   15.0262   24.2958   -3.9101 C   0  0  0  0  0  0  0  0  0  0  0  0
   15.2443   23.6742   -2.5850 C   0  0  0  0  0  0  0  0  0  0  0  0
   14.3275   24.2897   -1.5399 C   0  0  0  0  0  0  0  0  0  0  0  0
   14.1520   25.7419   -1.7846 C   0  0  0  0  0  0  0  0  0  0  0  0
   15.1342   26.3743   -2.7177 C   0  0  0  0  0  0  0  0  0  0  0  0
   14.7079   23.8904   -0.2259 N   0  0  0  0  0  0  0  0  0  0  0  0
   13.5907   23.2193    0.4026 C   0  0  0  0  0  0  0  0  0  0  0  0
   13.5207   22.8187    1.5928 O   0  0  0  0  0  0  0  0  0  0  0  0
   12.5483   23.0640   -0.5223 N   0  0  0  0  0  0  0  0  0  0  0  0
   12.9946   23.6394   -1.7421 C   0  0  0  0  0  0  0  0  0  0  0  0
   12.2977   23.5601   -2.7856 O   0  0  0  0  0  0  0  0  0  0  0  0
   11.2913   22.4207   -0.2738 C   0  0  0  0  0  0  0  0  0  0  0  0
   11.1420   21.0690   -0.5889 C   0  0  0  0  0  0  0  0  0  0  0  0
    9.9501   20.4069   -0.3815 C   0  0  0  0  0  0  0  0  0  0  0  0
    8.8502   21.0529    0.1484 C   0  0  0  0  0  0  0  0  0  0  0  0
    8.9904   22.3838    0.4615 C   0  0  0  0  0  0  0  0  0  0  0  0
   10.1969   23.0562    0.2519 C   0  0  0  0  0  0  0  0  0  0  0  0
    7.6216   20.2814    0.3454 C   0  0  0  0  0  0  0  0  0  0  0  0
    7.4026   19.1760   -0.4642 C   0  0  0  0  0  0  0  0  0  0  0  0
    6.2734   18.4089   -0.3556 C   0  0  0  0  0  0  0  0  0  0  0  0
    5.3072   18.7181    0.5759 C   0  0  0  0  0  0  0  0  0  0  0  0
    5.5373   19.8169    1.3742 C   0  0  0  0  0  0  0  0  0  0  0  0
    6.6651   20.5953    1.2758 C   0  0  0  0  0  0  0  0  0  0  0  0
    4.0872   17.9011    0.7008 C   0  0  0  0  0  0  0  0  0  0  0  0
    3.5617   17.3465   -0.4555 O   0  0  0  0  0  0  0  0  0  0  0  0
    3.5628   17.7291    1.8245 O   0  0  0  0  0  0  0  0  0  0  0  0
    2.8474   16.6373   -0.4743 H   0  0  0  0  0  0  0  0  0  0  0  0
   15.9289   24.0073    0.4985 C   0  0  0  0  0  0  0  0  0  0  0  0
   16.5571   25.1867    0.7577 C   0  0  0  0  0  0  0  0  0  0  0  0
   17.7495   25.2472    1.4882 C   0  0  0  0  0  0  0  0  0  0  0  0
   18.3416   24.1125    1.9774 C   0  0  0  0  0  0  0  0  0  0  0  0
   17.6966   22.8959    1.7115 C   0  0  0  0  0  0  0  0  0  0  0  0
   16.5302   22.8546    0.9953 C   0  0  0  0  0  0  0  0  0  0  0  0
   19.5815   24.1235    2.7361 C   0  0  0  0  0  0  0  0  0  0  0  0
   19.5496   24.1305    4.1046 C   0  0  0  0  0  0  0  0  0  0  0  0
   20.7218   24.1507    4.8435 C   0  0  0  0  0  0  0  0  0  0  0  0
   21.9496   24.1630    4.2017 C   0  0  0  0  0  0  0  0  0  0  0  0
   21.9791   24.1552    2.8330 C   0  0  0  0  0  0  0  0  0  0  0  0
   20.8016   24.1358    2.1039 C   0  0  0  0  0  0  0  0  0  0  0  0
   14.4940   26.2869   -5.0103 C   0  0  0  0  0  0  0  0  0  0  0  0
   16.7221   27.8529   -5.6323 C   0  0  0  0  0  0  0  0  0  0  0  0
   16.0937   27.0212   -6.7011 C   0  0  0  0  0  0  0  0  0  0  0  0
   16.6048   27.0439   -7.9818 C   0  0  0  0  0  0  0  0  0  0  0  0
   16.0361   26.2754   -8.9750 C   0  0  0  0  0  0  0  0  0  0  0  0
   14.9446   25.4906   -8.6399 C   0  0  0  0  0  0  0  0  0  0  0  0
   14.4900   25.5060   -7.3849 N   0  0  0  0  0  0  0  0  0  0  0  0
   14.9951   26.2267   -6.3768 C   0  0  0  0  0  0  0  0  0  0  0  0
 42 43  1  0  0  0
 43 44  2  0  0  0
 44 45  1  0  0  0
 45 46  2  0  0  0
 46 47  1  0  0  0
 47 48  2  0  0  0
 48 41  1  0  0  0
 41  1  1  0  0  0
  1  2  1  0  0  0
  2  3  1  0  0  0
  3  4  1  0  0  0
  4  5  1  0  0  0
  5  6  1  0  0  0
  4  7  1  0  0  0
  7  8  1  0  0  0
  8  9  2  0  0  0
  8 10  1  0  0  0
 10 11  1  0  0  0
 11 12  2  0  0  0
 10 13  1  0  0  0
 13 14  2  0  0  0
 14 15  1  0  0  0
 15 16  2  0  0  0
 16 17  1  0  0  0
 17 18  2  0  0  0
 16 19  1  0  0  0
 19 20  2  0  0  0
 20 21  1  0  0  0
 21 22  2  0  0  0
 22 23  1  0  0  0
 23 24  2  0  0  0
 22 25  1  0  0  0
 25 26  1  0  0  0
 25 27  2  0  0  0
  7 29  1  0  0  0
 29 30  2  0  0  0
 30 31  1  0  0  0
 31 32  2  0  0  0
 32 33  1  0  0  0
 33 34  2  0  0  0
 32 35  1  0  0  0
 35 36  2  0  0  0
 36 37  1  0  0  0
 37 38  2  0  0  0
 38 39  1  0  0  0
 39 40  2  0  0  0
 48 43  1  0  0  0
  6  1  1  0  0  0
 18 13  1  0  0  0
 24 19  1  0  0  0
 34 29  1  0  0  0
 40 35  1  0  0  0
 11  4  1  0  0  0
 26 28  1  0  0  0
M  END
> <minimizedAffinity>
27.30476

> <CNNscore>
0.4663167000

> <CNNaffinity>
7.9669446945

> <CNN_VS>
3.7151193619

> <CNNaffinity_variance>
0.4852062166

$$$$
[H]OC(=O)c1c([H])c([H])c(-c2c([H])c([H])c(N3C(=O)N(c4c([H])c([H])c(C#N)c([H])c4[H])C4(C3=O)C([H])([H])C([H])([H])N(C([H])([H])c3nc([H])c([H])c([H])c3C([H])([H])[H])C([H])([H])C4([H])[H])c([H])c2[H])c([H])c1[H]


 44 49  0  0  0  0  0  0  0  0999 V2000
    9.2503   25.0514    2.1137 N   0  0  0  0  0  0  0  0  0  0  0  0
    9.3657   23.7341    1.4770 C   0  0  0  0  0  0  0  0  0  0  0  0
    9.9193   23.7716    0.0970 C   0  0  0  0  0  0  0  0  0  0  0  0
   11.2844   24.4142    0.0221 C   0  0  0  0  0  0  0  0  0  0  0  0
   11.4343   25.4989    1.0459 C   0  0  0  0  0  0  0  0  0  0  0  0
   10.0394   26.0150    1.3621 C   0  0  0  0  0  0  0  0  0  0  0  0
   12.3743   23.4735    0.1315 N   0  0  0  0  0  0  0  0  0  0  0  0
   13.3663   23.8655   -0.8334 C   0  0  0  0  0  0  0  0  0  0  0  0
   14.5655   23.5037   -0.8901 O   0  0  0  0  0  0  0  0  0  0  0  0
   12.7910   24.7778   -1.7878 N   0  0  0  0  0  0  0  0  0  0  0  0
   11.4379   24.9324   -1.3842 C   0  0  0  0  0  0  0  0  0  0  0  0
   10.4871   25.4093   -2.0367 O   0  0  0  0  0  0  0  0  0  0  0  0
   13.4623   25.3669   -2.8926 C   0  0  0  0  0  0  0  0  0  0  0  0
   14.5917   26.1657   -2.6944 C   0  0  0  0  0  0  0  0  0  0  0  0
   15.2890   26.7584   -3.6965 C   0  0  0  0  0  0  0  0  0  0  0  0
   14.8891   26.5844   -5.0070 C   0  0  0  0  0  0  0  0  0  0  0  0
   13.7847   25.8080   -5.2498 C   0  0  0  0  0  0  0  0  0  0  0  0
   13.0783   25.2055   -4.2016 C   0  0  0  0  0  0  0  0  0  0  0  0
   15.5893   27.1932   -6.1222 C   0  0  0  0  0  0  0  0  0  0  0  0
   15.1080   27.1215   -7.4084 C   0  0  0  0  0  0  0  0  0  0  0  0
   15.7875   27.7109   -8.4675 C   0  0  0  0  0  0  0  0  0  0  0  0
   16.9686   28.3908   -8.2834 C   0  0  0  0  0  0  0  0  0  0  0  0
   17.4539   28.4604   -6.9748 C   0  0  0  0  0  0  0  0  0  0  0  0
   16.7828   27.8786   -5.9263 C   0  0  0  0  0  0  0  0  0  0  0  0
   17.6818   29.0087   -9.3777 C   0  0  0  0  0  0  0  0  0  0  0  0
   17.7748   30.3798   -9.4425 O   0  0  0  0  0  0  0  0  0  0  0  0
   18.2167   28.3149  -10.2688 O   0  0  0  0  0  0  0  0  0  0  0  0
   17.8705   30.9832   -8.6352 H   0  0  0  0  0  0  0  0  0  0  0  0
   12.5022   22.3545    0.9865 C   0  0  0  0  0  0  0  0  0  0  0  0
   12.8485   21.1183    0.4433 C   0  0  0  0  0  0  0  0  0  0  0  0
   12.9993   19.9808    1.1834 C   0  0  0  0  0  0  0  0  0  0  0  0
   12.7971   20.0412    2.5672 C   0  0  0  0  0  0  0  0  0  0  0  0
   12.4528   21.2524    3.1366 C   0  0  0  0  0  0  0  0  0  0  0  0
   12.3084   22.3951    2.3476 C   0  0  0  0  0  0  0  0  0  0  0  0
   12.9579   18.8380    3.3313 C   0  0  0  0  0  0  0  0  0  0  0  0
   13.0779   17.8640    3.9708 N   0  0  0  0  0  0  0  0  0  0  0  0
    9.6269   24.9408    3.4903 C   0  0  0  0  0  0  0  0  0  0  0  0
    8.3121   22.8646    4.8871 C   0  0  0  0  0  0  0  0  0  0  0  0
    7.9500   24.2736    5.1658 C   0  0  0  0  0  0  0  0  0  0  0  0
    6.9838   24.6175    6.0747 C   0  0  0  0  0  0  0  0  0  0  0  0
    6.6270   25.9207    6.3573 C   0  0  0  0  0  0  0  0  0  0  0  0
    7.3039   26.9093    5.6646 C   0  0  0  0  0  0  0  0  0  0  0  0
    8.2498   26.5742    4.7746 N   0  0  0  0  0  0  0  0  0  0  0  0
    8.6112   25.3144    4.4856 C   0  0  0  0  0  0  0  0  0  0  0  0
 38 39  1  0  0  0
 39 40  2  0  0  0
 40 41  1  0  0  0
 41 42  2  0  0  0
 42 43  1  0  0  0
 43 44  2  0  0  0
 44 37  1  0  0  0
 37  1  1  0  0  0
  1  2  1  0  0  0
  2  3  1  0  0  0
  3  4  1  0  0  0
  4  5  1  0  0  0
  5  6  1  0  0  0
  4  7  1  0  0  0
  7  8  1  0  0  0
  8  9  2  0  0  0
  8 10  1  0  0  0
 10 11  1  0  0  0
 11 12  2  0  0  0
 10 13  1  0  0  0
 13 14  2  0  0  0
 14 15  1  0  0  0
 15 16  2  0  0  0
 16 17  1  0  0  0
 17 18  2  0  0  0
 16 19  1  0  0  0
 19 20  2  0  0  0
 20 21  1  0  0  0
 21 22  2  0  0  0
 22 23  1  0  0  0
 23 24  2  0  0  0
 22 25  1  0  0  0
 25 26  1  0  0  0
 25 27  2  0  0  0
  7 29  1  0  0  0
 29 30  2  0  0  0
 30 31  1  0  0  0
 31 32  2  0  0  0
 32 33  1  0  0  0
 33 34  2  0  0  0
 32 35  1  0  0  0
 35 36  3  0  0  0
 44 39  1  0  0  0
  6  1  1  0  0  0
 18 13  1  0  0  0
 24 19  1  0  0  0
 34 29  1  0  0  0
 11  4  1  0  0  0
 26 28  1  0  0  0
M  END
> <minimizedAffinity>
34.63802

> <CNNscore>
0.5344601274

> <CNNaffinity>
7.3060369492

> <CNN_VS>
3.9047853947

> <CNNaffinity_variance>
0.6249512434

$$$$
[H]OC(=O)c1c([H])c([H])c(-c2c([H])c([H])c(N3C(=O)N(c4c([H])c([H])c(C#N)c([H])c4[H])C4(C3=O)C([H])([H])C([H])([H])N(C([H])([H])c3nc([H])c([H])c([H])c3C([H])([H])[H])C([H])([H])C4([H])[H])c([H])c2[H])c([H])c1[H]


 44 49  0  0  0  0  0  0  0  0999 V2000
   17.6846   25.0978   -1.0029 N   0  0  0  0  0  0  0  0  0  0  0  0
   17.1922   24.2055   -2.0590 C   0  0  0  0  0  0  0  0  0  0  0  0
   15.9980   23.4071   -1.6734 C   0  0  0  0  0  0  0  0  0  0  0  0
   14.8282   24.2594   -1.2411 C   0  0  0  0  0  0  0  0  0  0  0  0
   15.2882   25.5141   -0.5619 C   0  0  0  0  0  0  0  0  0  0  0  0
   16.6626   25.2308    0.0237 C   0  0  0  0  0  0  0  0  0  0  0  0
   13.9175   24.5807   -2.3146 N   0  0  0  0  0  0  0  0  0  0  0  0
   12.5853   24.4539   -1.7876 C   0  0  0  0  0  0  0  0  0  0  0  0
   11.5206   24.8957   -2.2810 O   0  0  0  0  0  0  0  0  0  0  0  0
   12.6131   23.7156   -0.5513 N   0  0  0  0  0  0  0  0  0  0  0  0
   13.9816   23.4000   -0.3386 C   0  0  0  0  0  0  0  0  0  0  0  0
   14.4676   22.5621    0.4482 O   0  0  0  0  0  0  0  0  0  0  0  0
   11.4886   23.3820    0.2502 C   0  0  0  0  0  0  0  0  0  0  0  0
   10.9546   22.0909    0.2232 C   0  0  0  0  0  0  0  0  0  0  0  0
    9.8872   21.6942    0.9615 C   0  0  0  0  0  0  0  0  0  0  0  0
    9.2633   22.5933    1.8040 C   0  0  0  0  0  0  0  0  0  0  0  0
    9.7531   23.8732    1.8631 C   0  0  0  0  0  0  0  0  0  0  0  0
   10.8554   24.2630    1.0927 C   0  0  0  0  0  0  0  0  0  0  0  0
    8.1167   22.2327    2.6164 C   0  0  0  0  0  0  0  0  0  0  0  0
    7.2237   21.2638    2.2230 C   0  0  0  0  0  0  0  0  0  0  0  0
    6.1305   20.9265    3.0116 C   0  0  0  0  0  0  0  0  0  0  0  0
    5.8882   21.5417    4.2175 C   0  0  0  0  0  0  0  0  0  0  0  0
    6.7980   22.5260    4.6126 C   0  0  0  0  0  0  0  0  0  0  0  0
    7.8799   22.8603    3.8341 C   0  0  0  0  0  0  0  0  0  0  0  0
    4.7554   21.1968    5.0457 C   0  0  0  0  0  0  0  0  0  0  0  0
    4.1340   22.1725    5.7905 O   0  0  0  0  0  0  0  0  0  0  0  0
    4.3305   20.0227    5.0961 O   0  0  0  0  0  0  0  0  0  0  0  0
    4.0102   23.1299    5.4857 H   0  0  0  0  0  0  0  0  0  0  0  0
   14.2080   24.9429   -3.6502 C   0  0  0  0  0  0  0  0  0  0  0  0
   15.2113   24.2616   -4.3377 C   0  0  0  0  0  0  0  0  0  0  0  0
   15.5645   24.5336   -5.6284 C   0  0  0  0  0  0  0  0  0  0  0  0
   14.8922   25.5519   -6.3144 C   0  0  0  0  0  0  0  0  0  0  0  0
   13.8923   26.2463   -5.6605 C   0  0  0  0  0  0  0  0  0  0  0  0
   13.5580   25.9393   -4.3402 C   0  0  0  0  0  0  0  0  0  0  0  0
   15.2750   25.8269   -7.6691 C   0  0  0  0  0  0  0  0  0  0  0  0
   15.6026   26.0368   -8.7740 N   0  0  0  0  0  0  0  0  0  0  0  0
   18.0836   26.3413   -1.5889 C   0  0  0  0  0  0  0  0  0  0  0  0
   19.1648   27.7044   -3.8167 C   0  0  0  0  0  0  0  0  0  0  0  0
   17.6951   27.6427   -3.6431 C   0  0  0  0  0  0  0  0  0  0  0  0
   16.8263   28.2362   -4.5212 C   0  0  0  0  0  0  0  0  0  0  0  0
   15.4532   28.1933   -4.3871 C   0  0  0  0  0  0  0  0  0  0  0  0
   14.9618   27.5035   -3.2923 C   0  0  0  0  0  0  0  0  0  0  0  0
   15.8109   26.9222   -2.4321 N   0  0  0  0  0  0  0  0  0  0  0  0
   17.1480   26.9523   -2.5444 C   0  0  0  0  0  0  0  0  0  0  0  0
 38 39  1  0  0  0
 39 40  2  0  0  0
 40 41  1  0  0  0
 41 42  2  0  0  0
 42 43  1  0  0  0
 43 44  2  0  0  0
 44 37  1  0  0  0
 37  1  1  0  0  0
  1  2  1  0  0  0
  2  3  1  0  0  0
  3  4  1  0  0  0
  4  5  1  0  0  0
  5  6  1  0  0  0
  4  7  1  0  0  0
  7  8  1  0  0  0
  8  9  2  0  0  0
  8 10  1  0  0  0
 10 11  1  0  0  0
 11 12  2  0  0  0
 10 13  1  0  0  0
 13 14  2  0  0  0
 14 15  1  0  0  0
 15 16  2  0  0  0
 16 17  1  0  0  0
 17 18  2  0  0  0
 16 19  1  0  0  0
 19 20  2  0  0  0
 20 21  1  0  0  0
 21 22  2  0  0  0
 22 23  1  0  0  0
 23 24  2  0  0  0
 22 25  1  0  0  0
 25 26  1  0  0  0
 25 27  2  0  0  0
  7 29  1  0  0  0
 29 30  2  0  0  0
 30 31  1  0  0  0
 31 32  2  0  0  0
 32 33  1  0  0  0
 33 34  2  0  0  0
 32 35  1  0  0  0
 35 36  3  0  0  0
 44 39  1  0  0  0
  6  1  1  0  0  0
 18 13  1  0  0  0
 24 19  1  0  0  0
 34 29  1  0  0  0
 11  4  1  0  0  0
 26 28  1  0  0  0
M  END
> <minimizedAffinity>
2.72668

> <CNNscore>
0.5010126233

> <CNNaffinity>
7.7726478577

> <CNN_VS>
3.8941946030

> <CNNaffinity_variance>
0.5881851912

$$$$
[H]OC(=O)c1c([H])c([H])c(-c2c([H])c([H])c(N3C(=O)N(c4c([H])c([H])c(C#N)c([H])c4[H])C4(C3=O)C([H])([H])C([H])([H])N(C([H])([H])c3nc([H])c([H])c([H])c3C([H])([H])[H])C([H])([H])C4([H])[H])c([H])c2[H])c([H])c1[H]


 44 49  0  0  0  0  0  0  0  0999 V2000
   12.7381   20.3361    1.9152 N   0  0  0  0  0  0  0  0  0  0  0  0
   12.5183   21.6279    2.5762 C   0  0  0  0  0  0  0  0  0  0  0  0
   13.1324   22.7846    1.8712 C   0  0  0  0  0  0  0  0  0  0  0  0
   12.6518   22.9353    0.4470 C   0  0  0  0  0  0  0  0  0  0  0  0
   12.3512   21.6034   -0.1716 C   0  0  0  0  0  0  0  0  0  0  0  0
   13.1966   20.5689    0.5545 C   0  0  0  0  0  0  0  0  0  0  0  0
   11.5154   23.8152    0.3091 N   0  0  0  0  0  0  0  0  0  0  0  0
   11.7452   24.6181   -0.8620 C   0  0  0  0  0  0  0  0  0  0  0  0
   10.9097   25.3046   -1.4966 O   0  0  0  0  0  0  0  0  0  0  0  0
   13.1305   24.5401   -1.2481 N   0  0  0  0  0  0  0  0  0  0  0  0
   13.7334   23.6772   -0.2944 C   0  0  0  0  0  0  0  0  0  0  0  0
   14.9481   23.5142   -0.0597 O   0  0  0  0  0  0  0  0  0  0  0  0
   13.7320   25.2089   -2.3477 C   0  0  0  0  0  0  0  0  0  0  0  0
   12.9951   25.4813   -3.5034 C   0  0  0  0  0  0  0  0  0  0  0  0
   13.4960   26.1188   -4.5917 C   0  0  0  0  0  0  0  0  0  0  0  0
   14.8112   26.5405   -4.5951 C   0  0  0  0  0  0  0  0  0  0  0  0
   15.5735   26.2944   -3.4816 C   0  0  0  0  0  0  0  0  0  0  0  0
   15.0379   25.6344   -2.3688 C   0  0  0  0  0  0  0  0  0  0  0  0
   15.4070   27.2239   -5.7276 C   0  0  0  0  0  0  0  0  0  0  0  0
   15.9042   28.5019   -5.6252 C   0  0  0  0  0  0  0  0  0  0  0  0
   16.4744   29.1445   -6.7174 C   0  0  0  0  0  0  0  0  0  0  0  0
   16.5687   28.5381   -7.9481 C   0  0  0  0  0  0  0  0  0  0  0  0
   16.0615   27.2397   -8.0473 C   0  0  0  0  0  0  0  0  0  0  0  0
   15.4979   26.6028   -6.9680 C   0  0  0  0  0  0  0  0  0  0  0  0
   17.1614   29.1970   -9.0894 C   0  0  0  0  0  0  0  0  0  0  0  0
   16.3512   29.7847  -10.0334 O   0  0  0  0  0  0  0  0  0  0  0  0
   18.4020   29.2411   -9.2328 O   0  0  0  0  0  0  0  0  0  0  0  0
   15.4826   30.2600   -9.8224 H   0  0  0  0  0  0  0  0  0  0  0  0
   10.3727   23.9296    1.1341 C   0  0  0  0  0  0  0  0  0  0  0  0
   10.5344   23.9876    2.5175 C   0  0  0  0  0  0  0  0  0  0  0  0
    9.4968   24.1008    3.3977 C   0  0  0  0  0  0  0  0  0  0  0  0
    8.1899   24.1622    2.8999 C   0  0  0  0  0  0  0  0  0  0  0  0
    7.9958   24.1071    1.5328 C   0  0  0  0  0  0  0  0  0  0  0  0
    9.0819   23.9921    0.6632 C   0  0  0  0  0  0  0  0  0  0  0  0
    7.1101   24.2798    3.8367 C   0  0  0  0  0  0  0  0  0  0  0  0
    6.2344   24.3956    4.6061 N   0  0  0  0  0  0  0  0  0  0  0  0
   11.5399   19.5575    1.9986 C   0  0  0  0  0  0  0  0  0  0  0  0
    9.1991   20.9292    1.2052 C   0  0  0  0  0  0  0  0  0  0  0  0
    9.4200   20.6341    2.6398 C   0  0  0  0  0  0  0  0  0  0  0  0
    8.5324   21.0132    3.6126 C   0  0  0  0  0  0  0  0  0  0  0  0
    8.7097   20.7501    4.9561 C   0  0  0  0  0  0  0  0  0  0  0  0
    9.8599   20.0631    5.3032 C   0  0  0  0  0  0  0  0  0  0  0  0
   10.7295   19.6914    4.3521 N   0  0  0  0  0  0  0  0  0  0  0  0
   10.5759   19.9374    3.0417 C   0  0  0  0  0  0  0  0  0  0  0  0
 38 39  1  0  0  0
 39 40  2  0  0  0
 40 41  1  0  0  0
 41 42  2  0  0  0
 42 43  1  0  0  0
 43 44  2  0  0  0
 44 37  1  0  0  0
 37  1  1  0  0  0
  1  2  1  0  0  0
  2  3  1  0  0  0
  3  4  1  0  0  0
  4  5  1  0  0  0
  5  6  1  0  0  0
  4  7  1  0  0  0
  7  8  1  0  0  0
  8  9  2  0  0  0
  8 10  1  0  0  0
 10 11  1  0  0  0
 11 12  2  0  0  0
 10 13  1  0  0  0
 13 14  2  0  0  0
 14 15  1  0  0  0
 15 16  2  0  0  0
 16 17  1  0  0  0
 17 18  2  0  0  0
 16 19  1  0  0  0
 19 20  2  0  0  0
 20 21  1  0  0  0
 21 22  2  0  0  0
 22 23  1  0  0  0
 23 24  2  0  0  0
 22 25  1  0  0  0
 25 26  1  0  0  0
 25 27  2  0  0  0
  7 29  1  0  0  0
 29 30  2  0  0  0
 30 31  1  0  0  0
 31 32  2  0  0  0
 32 33  1  0  0  0
 33 34  2  0  0  0
 32 35  1  0  0  0
 35 36  3  0  0  0
 44 39  1  0  0  0
  6  1  1  0  0  0
 18 13  1  0  0  0
 24 19  1  0  0  0
 34 29  1  0  0  0
 11  4  1  0  0  0
 26 28  1  0  0  0
M  END
> <minimizedAffinity>
13.71757

> <CNNscore>
0.4892847538

> <CNNaffinity>
7.5702195168

> <CNN_VS>
3.7039930820

> <CNNaffinity_variance>
0.2275446653

$$$$
[H]OC(=O)c1c([H])c([H])c(-c2c([H])c([H])c(N3C(=O)N(c4c([H])c([H])c(C#N)c([H])c4[H])C4(C3=O)C([H])([H])C([H])([H])N(C([H])([H])c3nc([H])c([H])c([H])c3C([H])([H])[H])C([H])([H])C4([H])[H])c([H])c2[H])c([H])c1[H]


 44 49  0  0  0  0  0  0  0  0999 V2000
    7.6283   23.7274    2.1426 N   0  0  0  0  0  0  0  0  0  0  0  0
    8.1581   22.4859    1.5665 C   0  0  0  0  0  0  0  0  0  0  0  0
    8.9388   22.6801    0.3154 C   0  0  0  0  0  0  0  0  0  0  0  0
   10.1110   23.6175    0.4864 C   0  0  0  0  0  0  0  0  0  0  0  0
    9.8145   24.6838    1.4975 C   0  0  0  0  0  0  0  0  0  0  0  0
    8.3049   24.8621    1.5338 C   0  0  0  0  0  0  0  0  0  0  0  0
   11.3455   22.9466    0.8191 N   0  0  0  0  0  0  0  0  0  0  0  0
   12.3860   23.5759    0.0511 C   0  0  0  0  0  0  0  0  0  0  0  0
   13.6246   23.4974    0.2294 O   0  0  0  0  0  0  0  0  0  0  0  0
   11.8090   24.3557   -1.0135 N   0  0  0  0  0  0  0  0  0  0  0  0
   10.4051   24.1896   -0.8760 C   0  0  0  0  0  0  0  0  0  0  0  0
    9.5113   24.4531   -1.7061 O   0  0  0  0  0  0  0  0  0  0  0  0
   12.5247   25.1074   -1.9835 C   0  0  0  0  0  0  0  0  0  0  0  0
   13.0593   26.3577   -1.6611 C   0  0  0  0  0  0  0  0  0  0  0  0
   13.7578   27.1325   -2.5291 C   0  0  0  0  0  0  0  0  0  0  0  0
   13.9752   26.6922   -3.8200 C   0  0  0  0  0  0  0  0  0  0  0  0
   13.4684   25.4701   -4.1819 C   0  0  0  0  0  0  0  0  0  0  0  0
   12.7497   24.6858   -3.2713 C   0  0  0  0  0  0  0  0  0  0  0  0
   14.7106   27.4741   -4.7961 C   0  0  0  0  0  0  0  0  0  0  0  0
   15.1844   26.9204   -5.9623 C   0  0  0  0  0  0  0  0  0  0  0  0
   15.8856   27.6810   -6.8898 C   0  0  0  0  0  0  0  0  0  0  0  0
   16.1398   29.0176   -6.6888 C   0  0  0  0  0  0  0  0  0  0  0  0
   15.6569   29.5754   -5.5020 C   0  0  0  0  0  0  0  0  0  0  0  0
   14.9628   28.8246   -4.5840 C   0  0  0  0  0  0  0  0  0  0  0  0
   16.8664   29.8175   -7.6480 C   0  0  0  0  0  0  0  0  0  0  0  0
   16.9453   31.1805   -7.4777 O   0  0  0  0  0  0  0  0  0  0  0  0
   17.4255   29.2890   -8.6326 O   0  0  0  0  0  0  0  0  0  0  0  0
   17.0191   31.6390   -6.5782 H   0  0  0  0  0  0  0  0  0  0  0  0
   11.5608   21.8664    1.7058 C   0  0  0  0  0  0  0  0  0  0  0  0
   11.8138   20.5981    1.1855 C   0  0  0  0  0  0  0  0  0  0  0  0
   12.0370   19.4934    1.9563 C   0  0  0  0  0  0  0  0  0  0  0  0
   12.0126   19.6236    3.3498 C   0  0  0  0  0  0  0  0  0  0  0  0
   11.7644   20.8680    3.8972 C   0  0  0  0  0  0  0  0  0  0  0  0
   11.5415   21.9755    3.0767 C   0  0  0  0  0  0  0  0  0  0  0  0
   12.2475   18.4542    4.1465 C   0  0  0  0  0  0  0  0  0  0  0  0
   12.4305   17.5088    4.8135 N   0  0  0  0  0  0  0  0  0  0  0  0
    7.7536   23.6732    3.5675 C   0  0  0  0  0  0  0  0  0  0  0  0
    6.7012   25.8503    2.1037 C   0  0  0  0  0  0  0  0  0  0  0  0
    6.7336   25.9146    3.5832 C   0  0  0  0  0  0  0  0  0  0  0  0
    6.2806   27.0035    4.2811 C   0  0  0  0  0  0  0  0  0  0  0  0
    6.2955   27.0909    5.6586 C   0  0  0  0  0  0  0  0  0  0  0  0
    6.8039   25.9988    6.3402 C   0  0  0  0  0  0  0  0  0  0  0  0
    7.2476   24.9324    5.6584 N   0  0  0  0  0  0  0  0  0  0  0  0
    7.2419   24.8277    4.3204 C   0  0  0  0  0  0  0  0  0  0  0  0
 38 39  1  0  0  0
 39 40  2  0  0  0
 40 41  1  0  0  0
 41 42  2  0  0  0
 42 43  1  0  0  0
 43 44  2  0  0  0
 44 37  1  0  0  0
 37  1  1  0  0  0
  1  2  1  0  0  0
  2  3  1  0  0  0
  3  4  1  0  0  0
  4  5  1  0  0  0
  5  6  1  0  0  0
  4  7  1  0  0  0
  7  8  1  0  0  0
  8  9  2  0  0  0
  8 10  1  0  0  0
 10 11  1  0  0  0
 11 12  2  0  0  0
 10 13  1  0  0  0
 13 14  2  0  0  0
 14 15  1  0  0  0
 15 16  2  0  0  0
 16 17  1  0  0  0
 17 18  2  0  0  0
 16 19  1  0  0  0
 19 20  2  0  0  0
 20 21  1  0  0  0
 21 22  2  0  0  0
 22 23  1  0  0  0
 23 24  2  0  0  0
 22 25  1  0  0  0
 25 26  1  0  0  0
 25 27  2  0  0  0
  7 29  1  0  0  0
 29 30  2  0  0  0
 30 31  1  0  0  0
 31 32  2  0  0  0
 32 33  1  0  0  0
 33 34  2  0  0  0
 32 35  1  0  0  0
 35 36  3  0  0  0
 44 39  1  0  0  0
  6  1  1  0  0  0
 18 13  1  0  0  0
 24 19  1  0  0  0
 34 29  1  0  0  0
 11  4  1  0  0  0
 26 28  1  0  0  0
M  END
> <minimizedAffinity>
14.63959

> <CNNscore>
0.4798042774

> <CNNaffinity>
7.3514275551

> <CNN_VS>
3.5272464752

> <CNNaffinity_variance>
0.8600777388

$$$$
[H]OC(=O)c1c([H])c([H])c(-c2c([H])c([H])c(N3C(=O)N(c4c([H])c([H])c(C#N)c([H])c4[H])C4(C3=O)C([H])([H])C([H])([H])N(C([H])([H])c3nc([H])c([H])c([H])c3C([H])([H])[H])C([H])([H])C4([H])[H])c([H])c2[H])c([H])c1[H]


 44 49  0  0  0  0  0  0  0  0999 V2000
   13.7810   27.3937   -5.2394 N   0  0  0  0  0  0  0  0  0  0  0  0
   14.4475   27.8838   -4.0272 C   0  0  0  0  0  0  0  0  0  0  0  0
   13.7557   27.5183   -2.7623 C   0  0  0  0  0  0  0  0  0  0  0  0
   13.5789   26.0278   -2.5914 C   0  0  0  0  0  0  0  0  0  0  0  0
   13.3873   25.3457   -3.9125 C   0  0  0  0  0  0  0  0  0  0  0  0
   12.8099   26.3753   -4.8710 C   0  0  0  0  0  0  0  0  0  0  0  0
   14.6508   25.3976   -1.8575 N   0  0  0  0  0  0  0  0  0  0  0  0
   14.0460   24.4457   -0.9649 C   0  0  0  0  0  0  0  0  0  0  0  0
   14.6058   23.5040   -0.3549 O   0  0  0  0  0  0  0  0  0  0  0  0
   12.6361   24.7125   -0.8424 N   0  0  0  0  0  0  0  0  0  0  0  0
   12.3979   25.8382   -1.6753 C   0  0  0  0  0  0  0  0  0  0  0  0
   11.3997   26.5868   -1.6951 O   0  0  0  0  0  0  0  0  0  0  0  0
   11.7139   23.9897   -0.0391 C   0  0  0  0  0  0  0  0  0  0  0  0
   11.0640   22.8604   -0.5444 C   0  0  0  0  0  0  0  0  0  0  0  0
   10.1751   22.1158    0.1606 C   0  0  0  0  0  0  0  0  0  0  0  0
    9.8682   22.4632    1.4616 C   0  0  0  0  0  0  0  0  0  0  0  0
   10.4821   23.5654    2.0000 C   0  0  0  0  0  0  0  0  0  0  0  0
   11.3962   24.3211    1.2556 C   0  0  0  0  0  0  0  0  0  0  0  0
    8.9246   21.7109    2.2668 C   0  0  0  0  0  0  0  0  0  0  0  0
    7.7150   21.2910    1.7654 C   0  0  0  0  0  0  0  0  0  0  0  0
    6.8210   20.5691    2.5468 C   0  0  0  0  0  0  0  0  0  0  0  0
    7.0996   20.2410    3.8530 C   0  0  0  0  0  0  0  0  0  0  0  0
    8.3297   20.6705    4.3580 C   0  0  0  0  0  0  0  0  0  0  0  0
    9.2150   21.3840    3.5864 C   0  0  0  0  0  0  0  0  0  0  0  0
    6.1775   19.4893    4.6731 C   0  0  0  0  0  0  0  0  0  0  0  0
    4.9074   19.9724    4.8883 O   0  0  0  0  0  0  0  0  0  0  0  0
    6.5170   18.4041    5.1915 O   0  0  0  0  0  0  0  0  0  0  0  0
    4.3636   20.4735    4.1969 H   0  0  0  0  0  0  0  0  0  0  0  0
   16.0430   25.6315   -1.9385 C   0  0  0  0  0  0  0  0  0  0  0  0
   16.9215   24.7241   -1.3484 C   0  0  0  0  0  0  0  0  0  0  0  0
   18.2801   24.8586   -1.3740 C   0  0  0  0  0  0  0  0  0  0  0  0
   18.8391   25.9651   -2.0240 C   0  0  0  0  0  0  0  0  0  0  0  0
   17.9949   26.8832   -2.6191 C   0  0  0  0  0  0  0  0  0  0  0  0
   16.6101   26.7118   -2.5733 C   0  0  0  0  0  0  0  0  0  0  0  0
   20.2676   26.0935   -2.0415 C   0  0  0  0  0  0  0  0  0  0  0  0
   21.4345   26.1894   -2.0748 N   0  0  0  0  0  0  0  0  0  0  0  0
   14.7718   26.9417   -6.1684 C   0  0  0  0  0  0  0  0  0  0  0  0
   15.7275   25.5356   -8.4266 C   0  0  0  0  0  0  0  0  0  0  0  0
   15.7598   24.8856   -7.0961 C   0  0  0  0  0  0  0  0  0  0  0  0
   16.2280   23.6108   -6.9127 C   0  0  0  0  0  0  0  0  0  0  0  0
   16.2729   22.9803   -5.6855 C   0  0  0  0  0  0  0  0  0  0  0  0
   15.8107   23.7068   -4.6018 C   0  0  0  0  0  0  0  0  0  0  0  0
   15.3521   24.9546   -4.7799 N   0  0  0  0  0  0  0  0  0  0  0  0
   15.3000   25.5850   -5.9635 C   0  0  0  0  0  0  0  0  0  0  0  0
 38 39  1  0  0  0
 39 40  2  0  0  0
 40 41  1  0  0  0
 41 42  2  0  0  0
 42 43  1  0  0  0
 43 44  2  0  0  0
 44 37  1  0  0  0
 37  1  1  0  0  0
  1  2  1  0  0  0
  2  3  1  0  0  0
  3  4  1  0  0  0
  4  5  1  0  0  0
  5  6  1  0  0  0
  4  7  1  0  0  0
  7  8  1  0  0  0
  8  9  2  0  0  0
  8 10  1  0  0  0
 10 11  1  0  0  0
 11 12  2  0  0  0
 10 13  1  0  0  0
 13 14  2  0  0  0
 14 15  1  0  0  0
 15 16  2  0  0  0
 16 17  1  0  0  0
 17 18  2  0  0  0
 16 19  1  0  0  0
 19 20  2  0  0  0
 20 21  1  0  0  0
 21 22  2  0  0  0
 22 23  1  0  0  0
 23 24  2  0  0  0
 22 25  1  0  0  0
 25 26  1  0  0  0
 25 27  2  0  0  0
  7 29  1  0  0  0
 29 30  2  0  0  0
 30 31  1  0  0  0
 31 32  2  0  0  0
 32 33  1  0  0  0
 33 34  2  0  0  0
 32 35  1  0  0  0
 35 36  3  0  0  0
 44 39  1  0  0  0
  6  1  1  0  0  0
 18 13  1  0  0  0
 24 19  1  0  0  0
 34 29  1  0  0  0
 11  4  1  0  0  0
 26 28  1  0  0  0
M  END
> <minimizedAffinity>
23.97231

> <CNNscore>
0.4738841355

> <CNNaffinity>
7.7330474854

> <CNN_VS>
3.6645684242

> <CNNaffinity_variance>
1.2265974283

$$$$
[H]OC(=O)c1c([H])c([H])c(-c2c([H])c([H])c(N3C(=O)N(c4c([H])c([H])c(C#N)c([H])c4[H])C4(C3=O)C([H])([H])C([H])([H])N(C([H])([H])c3nc([H])c([H])c([H])c3C([H])([H])[H])C([H])([H])C4([H])[H])c([H])c2[H])c([H])c1[H]


 44 49  0  0  0  0  0  0  0  0999 V2000
   14.5606   27.0102   -4.4144 N   0  0  0  0  0  0  0  0  0  0  0  0
   14.7792   27.1667   -2.9716 C   0  0  0  0  0  0  0  0  0  0  0  0
   13.7381   26.5250   -2.1252 C   0  0  0  0  0  0  0  0  0  0  0  0
   13.5897   25.0446   -2.3865 C   0  0  0  0  0  0  0  0  0  0  0  0
   13.8647   24.7133   -3.8224 C   0  0  0  0  0  0  0  0  0  0  0  0
   13.5742   25.9644   -4.6364 C   0  0  0  0  0  0  0  0  0  0  0  0
   14.4002   24.2196   -1.5221 N   0  0  0  0  0  0  0  0  0  0  0  0
   13.5895   23.0981   -1.1303 C   0  0  0  0  0  0  0  0  0  0  0  0
   13.9705   22.0181   -0.6197 O   0  0  0  0  0  0  0  0  0  0  0  0
   12.2031   23.3721   -1.4077 N   0  0  0  0  0  0  0  0  0  0  0  0
   12.1886   24.6746   -1.9742 C   0  0  0  0  0  0  0  0  0  0  0  0
   11.2135   25.4370   -2.1326 O   0  0  0  0  0  0  0  0  0  0  0  0
   11.1092   22.5047   -1.1444 C   0  0  0  0  0  0  0  0  0  0  0  0
   11.1232   21.1843   -1.6018 C   0  0  0  0  0  0  0  0  0  0  0  0
   10.1208   20.2949   -1.3874 C   0  0  0  0  0  0  0  0  0  0  0  0
    9.0012   20.6809   -0.6768 C   0  0  0  0  0  0  0  0  0  0  0  0
    8.9433   21.9688   -0.2081 C   0  0  0  0  0  0  0  0  0  0  0  0
    9.9881   22.8716   -0.4406 C   0  0  0  0  0  0  0  0  0  0  0  0
    7.8948   19.7794   -0.4166 C   0  0  0  0  0  0  0  0  0  0  0  0
    6.6233   20.2420   -0.1709 C   0  0  0  0  0  0  0  0  0  0  0  0
    5.5718   19.3675    0.0748 C   0  0  0  0  0  0  0  0  0  0  0  0
    5.7494   18.0038    0.0850 C   0  0  0  0  0  0  0  0  0  0  0  0
    7.0432   17.5386   -0.1645 C   0  0  0  0  0  0  0  0  0  0  0  0
    8.0840   18.4022   -0.4082 C   0  0  0  0  0  0  0  0  0  0  0  0
    4.6622   17.0861    0.3377 C   0  0  0  0  0  0  0  0  0  0  0  0
    4.1401   16.9811    1.6063 O   0  0  0  0  0  0  0  0  0  0  0  0
    4.1877   16.3842   -0.5809 O   0  0  0  0  0  0  0  0  0  0  0  0
    4.0401   17.7582    2.2474 H   0  0  0  0  0  0  0  0  0  0  0  0
   15.7318   24.4211   -1.0913 C   0  0  0  0  0  0  0  0  0  0  0  0
   16.2404   23.6339   -0.0593 C   0  0  0  0  0  0  0  0  0  0  0  0
   17.5117   23.7486    0.4255 C   0  0  0  0  0  0  0  0  0  0  0  0
   18.3656   24.7069   -0.1330 C   0  0  0  0  0  0  0  0  0  0  0  0
   17.8915   25.5035   -1.1579 C   0  0  0  0  0  0  0  0  0  0  0  0
   16.5853   25.3565   -1.6283 C   0  0  0  0  0  0  0  0  0  0  0  0
   19.6978   24.8167    0.3875 C   0  0  0  0  0  0  0  0  0  0  0  0
   20.7886   24.8858    0.8087 N   0  0  0  0  0  0  0  0  0  0  0  0
   15.8175   26.7678   -5.0550 C   0  0  0  0  0  0  0  0  0  0  0  0
   15.7345   29.5868   -4.8649 C   0  0  0  0  0  0  0  0  0  0  0  0
   16.9458   28.8616   -4.4168 C   0  0  0  0  0  0  0  0  0  0  0  0
   18.0467   29.5081   -3.9190 C   0  0  0  0  0  0  0  0  0  0  0  0
   19.1878   28.8595   -3.4914 C   0  0  0  0  0  0  0  0  0  0  0  0
   19.1842   27.4787   -3.5858 C   0  0  0  0  0  0  0  0  0  0  0  0
   18.1073   26.8446   -4.0729 N   0  0  0  0  0  0  0  0  0  0  0  0
   16.9892   27.4561   -4.4936 C   0  0  0  0  0  0  0  0  0  0  0  0
 38 39  1  0  0  0
 39 40  2  0  0  0
 40 41  1  0  0  0
 41 42  2  0  0  0
 42 43  1  0  0  0
 43 44  2  0  0  0
 44 37  1  0  0  0
 37  1  1  0  0  0
  1  2  1  0  0  0
  2  3  1  0  0  0
  3  4  1  0  0  0
  4  5  1  0  0  0
  5  6  1  0  0  0
  4  7  1  0  0  0
  7  8  1  0  0  0
  8  9  2  0  0  0
  8 10  1  0  0  0
 10 11  1  0  0  0
 11 12  2  0  0  0
 10 13  1  0  0  0
 13 14  2  0  0  0
 14 15  1  0  0  0
 15 16  2  0  0  0
 16 17  1  0  0  0
 17 18  2  0  0  0
 16 19  1  0  0  0
 19 20  2  0  0  0
 20 21  1  0  0  0
 21 22  2  0  0  0
 22 23  1  0  0  0
 23 24  2  0  0  0
 22 25  1  0  0  0
 25 26  1  0  0  0
 25 27  2  0  0  0
  7 29  1  0  0  0
 29 30  2  0  0  0
 30 31  1  0  0  0
 31 32  2  0  0  0
 32 33  1  0  0  0
 33 34  2  0  0  0
 32 35  1  0  0  0
 35 36  3  0  0  0
 44 39  1  0  0  0
  6  1  1  0  0  0
 18 13  1  0  0  0
 24 19  1  0  0  0
 34 29  1  0  0  0
 11  4  1  0  0  0
 26 28  1  0  0  0
M  END
> <minimizedAffinity>
18.38075

> <CNNscore>
0.4724025726

> <CNNaffinity>
7.7186193466

> <CNN_VS>
3.6462955475

> <CNNaffinity_variance>
0.9969015121

$$$$
[H]OC(=O)c1c([H])c([H])c(-c2c([H])c([H])c(N3C(=O)N(c4c([H])c([H])c(C#N)c([H])c4[H])C4(C3=O)C([H])([H])C([H])([H])N(C([H])([H])c3nc([H])c([H])c([H])c3C([H])([H])[H])C([H])([H])C4([H])[H])c([H])c2[H])c([H])c1[H]


 44 49  0  0  0  0  0  0  0  0999 V2000
   17.0141   26.3145   -0.6200 N   0  0  0  0  0  0  0  0  0  0  0  0
   16.8870   25.2622   -1.6351 C   0  0  0  0  0  0  0  0  0  0  0  0
   15.9265   24.1843   -1.2773 C   0  0  0  0  0  0  0  0  0  0  0  0
   14.5326   24.6979   -1.0036 C   0  0  0  0  0  0  0  0  0  0  0  0
   14.5650   26.0673   -0.3945 C   0  0  0  0  0  0  0  0  0  0  0  0
   15.9028   26.2134    0.3132 C   0  0  0  0  0  0  0  0  0  0  0  0
   13.6741   24.6905   -2.1645 N   0  0  0  0  0  0  0  0  0  0  0  0
   12.3841   24.2256   -1.7303 C   0  0  0  0  0  0  0  0  0  0  0  0
   11.2905   24.3232   -2.3358 O   0  0  0  0  0  0  0  0  0  0  0  0
   12.4966   23.5953   -0.4403 N   0  0  0  0  0  0  0  0  0  0  0  0
   13.8728   23.6879   -0.1010 C   0  0  0  0  0  0  0  0  0  0  0  0
   14.4935   23.0652    0.7846 O   0  0  0  0  0  0  0  0  0  0  0  0
   11.4363   23.0057    0.2989 C   0  0  0  0  0  0  0  0  0  0  0  0
   10.8356   23.6971    1.3545 C   0  0  0  0  0  0  0  0  0  0  0  0
    9.8166   23.2046    2.1035 C   0  0  0  0  0  0  0  0  0  0  0  0
    9.3145   21.9460    1.8362 C   0  0  0  0  0  0  0  0  0  0  0  0
    9.8738   21.2299    0.8087 C   0  0  0  0  0  0  0  0  0  0  0  0
   10.9251   21.7558    0.0478 C   0  0  0  0  0  0  0  0  0  0  0  0
    8.2294   21.3618    2.6017 C   0  0  0  0  0  0  0  0  0  0  0  0
    8.3760   21.0207    3.9258 C   0  0  0  0  0  0  0  0  0  0  0  0
    7.3278   20.4636    4.6481 C   0  0  0  0  0  0  0  0  0  0  0  0
    6.0989   20.2266    4.0781 C   0  0  0  0  0  0  0  0  0  0  0  0
    5.9550   20.5744    2.7323 C   0  0  0  0  0  0  0  0  0  0  0  0
    6.9905   21.1258    2.0168 C   0  0  0  0  0  0  0  0  0  0  0  0
    5.0022   19.6496    4.8211 C   0  0  0  0  0  0  0  0  0  0  0  0
    4.9090   18.2827    4.9469 O   0  0  0  0  0  0  0  0  0  0  0  0
    4.1344   20.3750    5.3525 O   0  0  0  0  0  0  0  0  0  0  0  0
    5.7043   17.6640    5.0450 H   0  0  0  0  0  0  0  0  0  0  0  0
   13.9787   25.0440   -3.4993 C   0  0  0  0  0  0  0  0  0  0  0  0
   14.9232   24.2981   -4.2027 C   0  0  0  0  0  0  0  0  0  0  0  0
   15.2841   24.5565   -5.4940 C   0  0  0  0  0  0  0  0  0  0  0  0
   14.6824   25.6282   -6.1639 C   0  0  0  0  0  0  0  0  0  0  0  0
   13.7418   26.3874   -5.4941 C   0  0  0  0  0  0  0  0  0  0  0  0
   13.3974   26.0923   -4.1737 C   0  0  0  0  0  0  0  0  0  0  0  0
   15.0725   25.8882   -7.5195 C   0  0  0  0  0  0  0  0  0  0  0  0
   15.3884   26.0801   -8.6310 N   0  0  0  0  0  0  0  0  0  0  0  0
   17.1104   27.5851   -1.2722 C   0  0  0  0  0  0  0  0  0  0  0  0
   19.4481   27.5513   -2.8609 C   0  0  0  0  0  0  0  0  0  0  0  0
   18.1211   27.5903   -3.5178 C   0  0  0  0  0  0  0  0  0  0  0  0
   17.9768   27.6235   -4.8801 C   0  0  0  0  0  0  0  0  0  0  0  0
   16.7543   27.6575   -5.5203 C   0  0  0  0  0  0  0  0  0  0  0  0
   15.6331   27.6572   -4.7089 C   0  0  0  0  0  0  0  0  0  0  0  0
   15.7729   27.6248   -3.3753 N   0  0  0  0  0  0  0  0  0  0  0  0
   16.9513   27.5916   -2.7338 C   0  0  0  0  0  0  0  0  0  0  0  0
 38 39  1  0  0  0
 39 40  2  0  0  0
 40 41  1  0  0  0
 41 42  2  0  0  0
 42 43  1  0  0  0
 43 44  2  0  0  0
 44 37  1  0  0  0
 37  1  1  0  0  0
  1  2  1  0  0  0
  2  3  1  0  0  0
  3  4  1  0  0  0
  4  5  1  0  0  0
  5  6  1  0  0  0
  4  7  1  0  0  0
  7  8  1  0  0  0
  8  9  2  0  0  0
  8 10  1  0  0  0
 10 11  1  0  0  0
 11 12  2  0  0  0
 10 13  1  0  0  0
 13 14  2  0  0  0
 14 15  1  0  0  0
 15 16  2  0  0  0
 16 17  1  0  0  0
 17 18  2  0  0  0
 16 19  1  0  0  0
 19 20  2  0  0  0
 20 21  1  0  0  0
 21 22  2  0  0  0
 22 23  1  0  0  0
 23 24  2  0  0  0
 22 25  1  0  0  0
 25 26  1  0  0  0
 25 27  2  0  0  0
  7 29  1  0  0  0
 29 30  2  0  0  0
 30 31  1  0  0  0
 31 32  2  0  0  0
 32 33  1  0  0  0
 33 34  2  0  0  0
 32 35  1  0  0  0
 35 36  3  0  0  0
 44 39  1  0  0  0
  6  1  1  0  0  0
 18 13  1  0  0  0
 24 19  1  0  0  0
 34 29  1  0  0  0
 11  4  1  0  0  0
 26 28  1  0  0  0
M  END
> <minimizedAffinity>
6.64849

> <CNNscore>
0.4689051509

> <CNNaffinity>
7.7548971176

> <CNN_VS>
3.6363112926

> <CNNaffinity_variance>
0.7708355188

$$$$
[H]OC(=O)c1c([H])c([H])c(-c2c([H])c([H])c(N3C(=O)N(c4c([H])c([H])c(C#N)c([H])c4[H])C4(C3=O)C([H])([H])C([H])([H])N(C([H])([H])c3nc([H])c([H])c([H])c3C([H])([H])[H])C([H])([H])C4([H])[H])c([H])c2[H])c([H])c1[H]


 44 49  0  0  0  0  0  0  0  0999 V2000
   14.0061   25.5034   -6.5229 N   0  0  0  0  0  0  0  0  0  0  0  0
   14.1227   26.6328   -5.5930 C   0  0  0  0  0  0  0  0  0  0  0  0
   13.4706   26.4063   -4.2755 C   0  0  0  0  0  0  0  0  0  0  0  0
   13.9986   25.1893   -3.5531 C   0  0  0  0  0  0  0  0  0  0  0  0
   14.4018   24.1143   -4.5169 C   0  0  0  0  0  0  0  0  0  0  0  0
   13.5900   24.3202   -5.7861 C   0  0  0  0  0  0  0  0  0  0  0  0
   15.0860   25.4790   -2.6484 N   0  0  0  0  0  0  0  0  0  0  0  0
   14.8568   24.7086   -1.4556 C   0  0  0  0  0  0  0  0  0  0  0  0
   15.6754   24.4484   -0.5421 O   0  0  0  0  0  0  0  0  0  0  0  0
   13.4953   24.2402   -1.4261 N   0  0  0  0  0  0  0  0  0  0  0  0
   12.9061   24.7372   -2.6192 C   0  0  0  0  0  0  0  0  0  0  0  0
   11.6946   24.8146   -2.9081 O   0  0  0  0  0  0  0  0  0  0  0  0
   12.9003   23.4600   -0.3987 C   0  0  0  0  0  0  0  0  0  0  0  0
   12.0175   24.0422    0.5149 C   0  0  0  0  0  0  0  0  0  0  0  0
   11.4064   23.3642    1.5192 C   0  0  0  0  0  0  0  0  0  0  0  0
   11.6459   22.0136    1.6805 C   0  0  0  0  0  0  0  0  0  0  0  0
   12.5064   21.3992    0.8066 C   0  0  0  0  0  0  0  0  0  0  0  0
   13.1275   22.1167   -0.2230 C   0  0  0  0  0  0  0  0  0  0  0  0
   11.0269   21.2334    2.7353 C   0  0  0  0  0  0  0  0  0  0  0  0
    9.6788   20.9620    2.7424 C   0  0  0  0  0  0  0  0  0  0  0  0
    9.0988   20.2115    3.7579 C   0  0  0  0  0  0  0  0  0  0  0  0
    9.8396   19.7062    4.8006 C   0  0  0  0  0  0  0  0  0  0  0  0
   11.2088   19.9852    4.7893 C   0  0  0  0  0  0  0  0  0  0  0  0
   11.7840   20.7267    3.7855 C   0  0  0  0  0  0  0  0  0  0  0  0
    9.2462   18.9233    5.8603 C   0  0  0  0  0  0  0  0  0  0  0  0
    9.8972   17.8049    6.3274 O   0  0  0  0  0  0  0  0  0  0  0  0
    8.1477   19.2472    6.3602 O   0  0  0  0  0  0  0  0  0  0  0  0
   10.9027   17.7255    6.4143 H   0  0  0  0  0  0  0  0  0  0  0  0
   16.1857   26.3494   -2.8280 C   0  0  0  0  0  0  0  0  0  0  0  0
   16.0652   27.4273   -3.7038 C   0  0  0  0  0  0  0  0  0  0  0  0
   17.0661   28.3246   -3.9436 C   0  0  0  0  0  0  0  0  0  0  0  0
   18.2896   28.1673   -3.2819 C   0  0  0  0  0  0  0  0  0  0  0  0
   18.4411   27.1084   -2.4069 C   0  0  0  0  0  0  0  0  0  0  0  0
   17.3944   26.2113   -2.1864 C   0  0  0  0  0  0  0  0  0  0  0  0
   19.3321   29.1168   -3.5448 C   0  0  0  0  0  0  0  0  0  0  0  0
   20.1881   29.8924   -3.7390 N   0  0  0  0  0  0  0  0  0  0  0  0
   15.2437   25.3448   -7.2244 C   0  0  0  0  0  0  0  0  0  0  0  0
   17.3064   25.1625   -9.1485 C   0  0  0  0  0  0  0  0  0  0  0  0
   16.9987   26.4737   -8.5320 C   0  0  0  0  0  0  0  0  0  0  0  0
   17.6883   27.6145   -8.8497 C   0  0  0  0  0  0  0  0  0  0  0  0
   17.4227   28.8500   -8.2943 C   0  0  0  0  0  0  0  0  0  0  0  0
   16.3955   28.9016   -7.3680 C   0  0  0  0  0  0  0  0  0  0  0  0
   15.7198   27.7858   -7.0561 N   0  0  0  0  0  0  0  0  0  0  0  0
   15.9623   26.5760   -7.5841 C   0  0  0  0  0  0  0  0  0  0  0  0
 38 39  1  0  0  0
 39 40  2  0  0  0
 40 41  1  0  0  0
 41 42  2  0  0  0
 42 43  1  0  0  0
 43 44  2  0  0  0
 44 37  1  0  0  0
 37  1  1  0  0  0
  1  2  1  0  0  0
  2  3  1  0  0  0
  3  4  1  0  0  0
  4  5  1  0  0  0
  5  6  1  0  0  0
  4  7  1  0  0  0
  7  8  1  0  0  0
  8  9  2  0  0  0
  8 10  1  0  0  0
 10 11  1  0  0  0
 11 12  2  0  0  0
 10 13  1  0  0  0
 13 14  2  0  0  0
 14 15  1  0  0  0
 15 16  2  0  0  0
 16 17  1  0  0  0
 17 18  2  0  0  0
 16 19  1  0  0  0
 19 20  2  0  0  0
 20 21  1  0  0  0
 21 22  2  0  0  0
 22 23  1  0  0  0
 23 24  2  0  0  0
 22 25  1  0  0  0
 25 26  1  0  0  0
 25 27  2  0  0  0
  7 29  1  0  0  0
 29 30  2  0  0  0
 30 31  1  0  0  0
 31 32  2  0  0  0
 32 33  1  0  0  0
 33 34  2  0  0  0
 32 35  1  0  0  0
 35 36  3  0  0  0
 44 39  1  0  0  0
  6  1  1  0  0  0
 18 13  1  0  0  0
 24 19  1  0  0  0
 34 29  1  0  0  0
 11  4  1  0  0  0
 26 28  1  0  0  0
M  END
> <minimizedAffinity>
31.09905

> <CNNscore>
0.4401678443

> <CNNaffinity>
7.4236555099

> <CNN_VS>
3.2676544189

> <CNNaffinity_variance>
0.5202947855

$$$$
[H]OC(=O)c1c([H])c([H])c(-c2c([H])c([H])c(N3C(=O)N(c4c([H])c([H])c(C#N)c([H])c4[H])C4(C3=O)C([H])([H])C([H])([H])N(C([H])([H])c3nc([H])c([H])c([H])c3C([H])([H])[H])C([H])([H])C4([H])[H])c([H])c2[H])c([H])c1[H]


 44 49  0  0  0  0  0  0  0  0999 V2000
   14.5868   27.2936   -2.5763 N   0  0  0  0  0  0  0  0  0  0  0  0
   14.8942   27.0251   -1.1666 C   0  0  0  0  0  0  0  0  0  0  0  0
   13.9176   26.1298   -0.4905 C   0  0  0  0  0  0  0  0  0  0  0  0
   13.7733   24.7881   -1.1694 C   0  0  0  0  0  0  0  0  0  0  0  0
   13.9614   24.9034   -2.6521 C   0  0  0  0  0  0  0  0  0  0  0  0
   13.6027   26.3287   -3.0418 C   0  0  0  0  0  0  0  0  0  0  0  0
   14.6482   23.7714   -0.6350 N   0  0  0  0  0  0  0  0  0  0  0  0
   13.8793   22.5590   -0.5476 C   0  0  0  0  0  0  0  0  0  0  0  0
   14.3067   21.3892   -0.4017 O   0  0  0  0  0  0  0  0  0  0  0  0
   12.4745   22.8583   -0.6527 N   0  0  0  0  0  0  0  0  0  0  0  0
   12.4063   24.2687   -0.8067 C   0  0  0  0  0  0  0  0  0  0  0  0
   11.4128   25.0126   -0.6771 O   0  0  0  0  0  0  0  0  0  0  0  0
   11.4115   21.9175   -0.5966 C   0  0  0  0  0  0  0  0  0  0  0  0
   10.1059   22.3005   -0.9157 C   0  0  0  0  0  0  0  0  0  0  0  0
    9.0399   21.4610   -0.8905 C   0  0  0  0  0  0  0  0  0  0  0  0
    9.2160   20.1386   -0.5331 C   0  0  0  0  0  0  0  0  0  0  0  0
   10.4811   19.7173   -0.2112 C   0  0  0  0  0  0  0  0  0  0  0  0
   11.5681   20.5995   -0.2428 C   0  0  0  0  0  0  0  0  0  0  0  0
    8.1175   19.1923   -0.4836 C   0  0  0  0  0  0  0  0  0  0  0  0
    8.2934   17.8595   -0.7728 C   0  0  0  0  0  0  0  0  0  0  0  0
    7.2330   16.9631   -0.7196 C   0  0  0  0  0  0  0  0  0  0  0  0
    5.9621   17.3619   -0.3776 C   0  0  0  0  0  0  0  0  0  0  0  0
    5.7883   18.7173   -0.0852 C   0  0  0  0  0  0  0  0  0  0  0  0
    6.8361   19.6049   -0.1368 C   0  0  0  0  0  0  0  0  0  0  0  0
    4.8533   16.4374   -0.3176 C   0  0  0  0  0  0  0  0  0  0  0  0
    4.5950   15.7582    0.8507 O   0  0  0  0  0  0  0  0  0  0  0  0
    4.1234   16.2445   -1.3133 O   0  0  0  0  0  0  0  0  0  0  0  0
    4.7179   16.1494    1.7763 H   0  0  0  0  0  0  0  0  0  0  0  0
   16.0015   23.8793   -0.2397 C   0  0  0  0  0  0  0  0  0  0  0  0
   16.9497   24.3085   -1.1671 C   0  0  0  0  0  0  0  0  0  0  0  0
   18.2781   24.4482   -0.8834 C   0  0  0  0  0  0  0  0  0  0  0  0
   18.7306   24.1464    0.4064 C   0  0  0  0  0  0  0  0  0  0  0  0
   17.8153   23.7182    1.3490 C   0  0  0  0  0  0  0  0  0  0  0  0
   16.4642   23.5882    1.0223 C   0  0  0  0  0  0  0  0  0  0  0  0
   20.1288   24.2967    0.6891 C   0  0  0  0  0  0  0  0  0  0  0  0
   21.2748   24.4033    0.9072 N   0  0  0  0  0  0  0  0  0  0  0  0
   15.8038   27.2907   -3.3298 C   0  0  0  0  0  0  0  0  0  0  0  0
   15.8547   28.9720   -5.6015 C   0  0  0  0  0  0  0  0  0  0  0  0
   15.7685   27.5045   -5.7828 C   0  0  0  0  0  0  0  0  0  0  0  0
   15.6992   26.9202   -7.0205 C   0  0  0  0  0  0  0  0  0  0  0  0
   15.6209   25.5567   -7.2206 C   0  0  0  0  0  0  0  0  0  0  0  0
   15.6141   24.7661   -6.0846 C   0  0  0  0  0  0  0  0  0  0  0  0
   15.6819   25.3366   -4.8726 N   0  0  0  0  0  0  0  0  0  0  0  0
   15.7584   26.6590   -4.6566 C   0  0  0  0  0  0  0  0  0  0  0  0
 38 39  1  0  0  0
 39 40  2  0  0  0
 40 41  1  0  0  0
 41 42  2  0  0  0
 42 43  1  0  0  0
 43 44  2  0  0  0
 44 37  1  0  0  0
 37  1  1  0  0  0
  1  2  1  0  0  0
  2  3  1  0  0  0
  3  4  1  0  0  0
  4  5  1  0  0  0
  5  6  1  0  0  0
  4  7  1  0  0  0
  7  8  1  0  0  0
  8  9  2  0  0  0
  8 10  1  0  0  0
 10 11  1  0  0  0
 11 12  2  0  0  0
 10 13  1  0  0  0
 13 14  2  0  0  0
 14 15  1  0  0  0
 15 16  2  0  0  0
 16 17  1  0  0  0
 17 18  2  0  0  0
 16 19  1  0  0  0
 19 20  2  0  0  0
 20 21  1  0  0  0
 21 22  2  0  0  0
 22 23  1  0  0  0
 23 24  2  0  0  0
 22 25  1  0  0  0
 25 26  1  0  0  0
 25 27  2  0  0  0
  7 29  1  0  0  0
 29 30  2  0  0  0
 30 31  1  0  0  0
 31 32  2  0  0  0
 32 33  1  0  0  0
 33 34  2  0  0  0
 32 35  1  0  0  0
 35 36  3  0  0  0
 44 39  1  0  0  0
  6  1  1  0  0  0
 18 13  1  0  0  0
 24 19  1  0  0  0
 34 29  1  0  0  0
 11  4  1  0  0  0
 26 28  1  0  0  0
M  END
> <minimizedAffinity>
12.01756

> <CNNscore>
0.4364511967

> <CNNaffinity>
7.7106103897

> <CNN_VS>
3.3653051853

> <CNNaffinity_variance>
0.5162140131

$$$$
[H]OC(=O)c1c([H])c([H])c(N2C(=O)N(c3c([H])c([H])c(-c4c([H])c([H])c(C#N)c([H])c4[H])c([H])c3[H])C3(C2=O)C([H])([H])C([H])([H])N(C([H])([H])c2nc([H])c([H])c([H])c2C([H])([H])[H])C([H])([H])C3([H])[H])c([H])c1[H]


 44 49  0  0  0  0  0  0  0  0999 V2000
   12.5628   26.1898   -3.1670 N   0  0  0  0  0  0  0  0  0  0  0  0
   13.7227   26.3888   -2.2644 C   0  0  0  0  0  0  0  0  0  0  0  0
   13.2916   25.8933   -0.9132 C   0  0  0  0  0  0  0  0  0  0  0  0
   13.2702   24.3823   -1.0208 C   0  0  0  0  0  0  0  0  0  0  0  0
   12.3643   23.9476   -2.1004 C   0  0  0  0  0  0  0  0  0  0  0  0
   12.3231   24.7720   -3.3368 C   0  0  0  0  0  0  0  0  0  0  0  0
   12.9248   23.8396    0.2599 N   0  0  0  0  0  0  0  0  0  0  0  0
   14.1098   23.9689    1.0740 C   0  0  0  0  0  0  0  0  0  0  0  0
   14.1683   24.0269    2.3351 O   0  0  0  0  0  0  0  0  0  0  0  0
   15.2153   24.0188    0.1671 N   0  0  0  0  0  0  0  0  0  0  0  0
   14.6778   23.9211   -1.1461 C   0  0  0  0  0  0  0  0  0  0  0  0
   15.2537   23.5352   -2.1767 O   0  0  0  0  0  0  0  0  0  0  0  0
   16.5950   24.1414    0.5071 C   0  0  0  0  0  0  0  0  0  0  0  0
   16.9327   24.9494    1.5883 C   0  0  0  0  0  0  0  0  0  0  0  0
   18.2671   25.0531    1.9015 C   0  0  0  0  0  0  0  0  0  0  0  0
   19.2575   24.4052    1.2047 C   0  0  0  0  0  0  0  0  0  0  0  0
   18.9032   23.6077    0.1347 C   0  0  0  0  0  0  0  0  0  0  0  0
   17.5881   23.4863   -0.1987 C   0  0  0  0  0  0  0  0  0  0  0  0
   20.6690   24.5208    1.5431 C   0  0  0  0  0  0  0  0  0  0  0  0
   21.5950   25.0265    0.6484 O   0  0  0  0  0  0  0  0  0  0  0  0
   21.0401   24.1484    2.6773 O   0  0  0  0  0  0  0  0  0  0  0  0
   21.8764   24.4284   -0.1254 H   0  0  0  0  0  0  0  0  0  0  0  0
   11.7462   23.2640    0.7841 C   0  0  0  0  0  0  0  0  0  0  0  0
   10.6530   24.0442    1.0641 C   0  0  0  0  0  0  0  0  0  0  0  0
    9.4973   23.4682    1.5931 C   0  0  0  0  0  0  0  0  0  0  0  0
    9.4777   22.1097    1.8259 C   0  0  0  0  0  0  0  0  0  0  0  0
   10.5613   21.3061    1.5528 C   0  0  0  0  0  0  0  0  0  0  0  0
   11.7089   21.9075    1.0229 C   0  0  0  0  0  0  0  0  0  0  0  0
    8.2853   21.4918    2.3861 C   0  0  0  0  0  0  0  0  0  0  0  0
    8.2836   21.0446    3.6905 C   0  0  0  0  0  0  0  0  0  0  0  0
    7.1756   20.4544    4.2822 C   0  0  0  0  0  0  0  0  0  0  0  0
    6.0129   20.3062    3.5270 C   0  0  0  0  0  0  0  0  0  0  0  0
    5.9935   20.7461    2.2209 C   0  0  0  0  0  0  0  0  0  0  0  0
    7.1099   21.3336    1.6455 C   0  0  0  0  0  0  0  0  0  0  0  0
    4.8727   19.6982    4.1436 C   0  0  0  0  0  0  0  0  0  0  0  0
    3.9487   19.1887    4.6318 N   0  0  0  0  0  0  0  0  0  0  0  0
   13.0129   26.7629   -4.4151 C   0  0  0  0  0  0  0  0  0  0  0  0
   14.9461   24.8459   -5.2619 C   0  0  0  0  0  0  0  0  0  0  0  0
   15.3793   26.2245   -4.8693 C   0  0  0  0  0  0  0  0  0  0  0  0
   16.7025   26.5855   -4.8994 C   0  0  0  0  0  0  0  0  0  0  0  0
   17.1041   27.8540   -4.5382 C   0  0  0  0  0  0  0  0  0  0  0  0
   16.1453   28.7697   -4.1403 C   0  0  0  0  0  0  0  0  0  0  0  0
   14.8715   28.3636   -4.1302 N   0  0  0  0  0  0  0  0  0  0  0  0
   14.4234   27.1586   -4.4660 C   0  0  0  0  0  0  0  0  0  0  0  0
 38 39  1  0  0  0
 39 40  2  0  0  0
 40 41  1  0  0  0
 41 42  2  0  0  0
 42 43  1  0  0  0
 43 44  2  0  0  0
 44 37  1  0  0  0
 37  1  1  0  0  0
  1  2  1  0  0  0
  2  3  1  0  0  0
  3  4  1  0  0  0
  4  5  1  0  0  0
  5  6  1  0  0  0
  4  7  1  0  0  0
  7  8  1  0  0  0
  8  9  2  0  0  0
  8 10  1  0  0  0
 10 11  1  0  0  0
 11 12  2  0  0  0
 10 13  1  0  0  0
 13 14  2  0  0  0
 14 15  1  0  0  0
 15 16  2  0  0  0
 16 17  1  0  0  0
 17 18  2  0  0  0
 16 19  1  0  0  0
 19 20  1  0  0  0
 19 21  2  0  0  0
  7 23  1  0  0  0
 23 24  2  0  0  0
 24 25  1  0  0  0
 25 26  2  0  0  0
 26 27  1  0  0  0
 27 28  2  0  0  0
 26 29  1  0  0  0
 29 30  2  0  0  0
 30 31  1  0  0  0
 31 32  2  0  0  0
 32 33  1  0  0  0
 33 34  2  0  0  0
 32 35  1  0  0  0
 35 36  3  0  0  0
 44 39  1  0  0  0
  6  1  1  0  0  0
 18 13  1  0  0  0
 28 23  1  0  0  0
 34 29  1  0  0  0
 11  4  1  0  0  0
 20 22  1  0  0  0
M  END
> <minimizedAffinity>
20.66260

> <CNNscore>
0.6015310884

> <CNNaffinity>
7.8344550133

> <CNN_VS>
4.7126684189

> <CNNaffinity_variance>
0.7273879051

$$$$
[H]OC(=O)c1c([H])c([H])c(N2C(=O)N(c3c([H])c([H])c(-c4c([H])c([H])c(C#N)c([H])c4[H])c([H])c3[H])C3(C2=O)C([H])([H])C([H])([H])N(C([H])([H])c2nc([H])c([H])c([H])c2C([H])([H])[H])C([H])([H])C3([H])[H])c([H])c1[H]


 44 49  0  0  0  0  0  0  0  0999 V2000
   12.6440   26.7019   -3.2693 N   0  0  0  0  0  0  0  0  0  0  0  0
   13.5441   26.6962   -2.0906 C   0  0  0  0  0  0  0  0  0  0  0  0
   12.9297   25.7491   -1.0993 C   0  0  0  0  0  0  0  0  0  0  0  0
   13.1775   24.3612   -1.6539 C   0  0  0  0  0  0  0  0  0  0  0  0
   12.5974   24.2258   -3.0030 C   0  0  0  0  0  0  0  0  0  0  0  0
   12.6789   25.4028   -3.9075 C   0  0  0  0  0  0  0  0  0  0  0  0
   12.6680   23.4004   -0.7204 N   0  0  0  0  0  0  0  0  0  0  0  0
   13.6220   23.3603    0.3622 C   0  0  0  0  0  0  0  0  0  0  0  0
   13.4084   23.0067    1.5566 O   0  0  0  0  0  0  0  0  0  0  0  0
   14.8678   23.8024   -0.1851 N   0  0  0  0  0  0  0  0  0  0  0  0
   14.6366   24.0933   -1.5580 C   0  0  0  0  0  0  0  0  0  0  0  0
   15.4679   24.1191   -2.4804 O   0  0  0  0  0  0  0  0  0  0  0  0
   16.1087   23.9286    0.5067 C   0  0  0  0  0  0  0  0  0  0  0  0
   16.7086   25.1833    0.5496 C   0  0  0  0  0  0  0  0  0  0  0  0
   17.9029   25.2850    1.2227 C   0  0  0  0  0  0  0  0  0  0  0  0
   18.5132   24.2209    1.8402 C   0  0  0  0  0  0  0  0  0  0  0  0
   17.9029   22.9834    1.7869 C   0  0  0  0  0  0  0  0  0  0  0  0
   16.7186   22.8529    1.1267 C   0  0  0  0  0  0  0  0  0  0  0  0
   19.7786   24.3374    2.5509 C   0  0  0  0  0  0  0  0  0  0  0  0
   19.8454   24.3061    3.9324 O   0  0  0  0  0  0  0  0  0  0  0  0
   20.8259   24.4692    1.8811 O   0  0  0  0  0  0  0  0  0  0  0  0
   19.5381   25.1348    4.4368 H   0  0  0  0  0  0  0  0  0  0  0  0
   11.5165   22.5827   -0.7005 C   0  0  0  0  0  0  0  0  0  0  0  0
   10.2918   23.1093   -0.3761 C   0  0  0  0  0  0  0  0  0  0  0  0
    9.1619   22.2910   -0.3475 C   0  0  0  0  0  0  0  0  0  0  0  0
    9.3014   20.9534   -0.6500 C   0  0  0  0  0  0  0  0  0  0  0  0
   10.5189   20.4020   -0.9789 C   0  0  0  0  0  0  0  0  0  0  0  0
   11.6374   21.2434   -1.0005 C   0  0  0  0  0  0  0  0  0  0  0  0
    8.1366   20.0818   -0.6163 C   0  0  0  0  0  0  0  0  0  0  0  0
    8.1616   18.8655   -1.2657 C   0  0  0  0  0  0  0  0  0  0  0  0
    7.0857   17.9889   -1.2631 C   0  0  0  0  0  0  0  0  0  0  0  0
    5.9286   18.3515   -0.5748 C   0  0  0  0  0  0  0  0  0  0  0  0
    5.8826   19.5631    0.0807 C   0  0  0  0  0  0  0  0  0  0  0  0
    6.9670   20.4270    0.0676 C   0  0  0  0  0  0  0  0  0  0  0  0
    4.8228   17.4421   -0.5744 C   0  0  0  0  0  0  0  0  0  0  0  0
    3.9356   16.6907   -0.5631 N   0  0  0  0  0  0  0  0  0  0  0  0
   13.2428   27.6900   -4.1377 C   0  0  0  0  0  0  0  0  0  0  0  0
   16.0319   27.5693   -3.5586 C   0  0  0  0  0  0  0  0  0  0  0  0
   15.5231   27.1194   -4.8931 C   0  0  0  0  0  0  0  0  0  0  0  0
   16.3814   26.6545   -5.8571 C   0  0  0  0  0  0  0  0  0  0  0  0
   15.9157   26.2398   -7.0868 C   0  0  0  0  0  0  0  0  0  0  0  0
   14.5560   26.2988   -7.3400 C   0  0  0  0  0  0  0  0  0  0  0  0
   13.7666   26.7601   -6.3646 N   0  0  0  0  0  0  0  0  0  0  0  0
   14.1544   27.1731   -5.1627 C   0  0  0  0  0  0  0  0  0  0  0  0
 38 39  1  0  0  0
 39 40  2  0  0  0
 40 41  1  0  0  0
 41 42  2  0  0  0
 42 43  1  0  0  0
 43 44  2  0  0  0
 44 37  1  0  0  0
 37  1  1  0  0  0
  1  2  1  0  0  0
  2  3  1  0  0  0
  3  4  1  0  0  0
  4  5  1  0  0  0
  5  6  1  0  0  0
  4  7  1  0  0  0
  7  8  1  0  0  0
  8  9  2  0  0  0
  8 10  1  0  0  0
 10 11  1  0  0  0
 11 12  2  0  0  0
 10 13  1  0  0  0
 13 14  2  0  0  0
 14 15  1  0  0  0
 15 16  2  0  0  0
 16 17  1  0  0  0
 17 18  2  0  0  0
 16 19  1  0  0  0
 19 20  1  0  0  0
 19 21  2  0  0  0
  7 23  1  0  0  0
 23 24  2  0  0  0
 24 25  1  0  0  0
 25 26  2  0  0  0
 26 27  1  0  0  0
 27 28  2  0  0  0
 26 29  1  0  0  0
 29 30  2  0  0  0
 30 31  1  0  0  0
 31 32  2  0  0  0
 32 33  1  0  0  0
 33 34  2  0  0  0
 32 35  1  0  0  0
 35 36  3  0  0  0
 44 39  1  0  0  0
  6  1  1  0  0  0
 18 13  1  0  0  0
 28 23  1  0  0  0
 34 29  1  0  0  0
 11  4  1  0  0  0
 20 22  1  0  0  0
M  END
> <minimizedAffinity>
11.56648

> <CNNscore>
0.6003425121

> <CNNaffinity>
7.9941949844

> <CNN_VS>
4.7992548943

> <CNNaffinity_variance>
0.6114352345

$$$$
[H]OC(=O)c1c([H])c([H])c(N2C(=O)N(c3c([H])c([H])c(-c4c([H])c([H])c(C#N)c([H])c4[H])c([H])c3[H])C3(C2=O)C([H])([H])C([H])([H])N(C([H])([H])c2nc([H])c([H])c([H])c2C([H])([H])[H])C([H])([H])C3([H])[H])c([H])c1[H]


 44 49  0  0  0  0  0  0  0  0999 V2000
   13.0334   26.9195   -3.8059 N   0  0  0  0  0  0  0  0  0  0  0  0
   13.9054   26.9100   -2.6063 C   0  0  0  0  0  0  0  0  0  0  0  0
   13.2411   25.9993   -1.6130 C   0  0  0  0  0  0  0  0  0  0  0  0
   13.4615   24.5949   -2.1367 C   0  0  0  0  0  0  0  0  0  0  0  0
   12.9092   24.4511   -3.4966 C   0  0  0  0  0  0  0  0  0  0  0  0
   13.0455   25.6083   -4.4198 C   0  0  0  0  0  0  0  0  0  0  0  0
   12.9030   23.6664   -1.1985 N   0  0  0  0  0  0  0  0  0  0  0  0
   13.8301   23.6192   -0.0931 C   0  0  0  0  0  0  0  0  0  0  0  0
   13.5788   23.2941    1.1020 O   0  0  0  0  0  0  0  0  0  0  0  0
   15.1005   24.0155   -0.6185 N   0  0  0  0  0  0  0  0  0  0  0  0
   14.9096   24.2874   -2.0015 C   0  0  0  0  0  0  0  0  0  0  0  0
   15.7625   24.2724   -2.9043 O   0  0  0  0  0  0  0  0  0  0  0  0
   16.3282   24.1192    0.1000 C   0  0  0  0  0  0  0  0  0  0  0  0
   17.3325   24.9205   -0.4338 C   0  0  0  0  0  0  0  0  0  0  0  0
   18.5074   25.0093    0.2743 C   0  0  0  0  0  0  0  0  0  0  0  0
   18.7236   24.3527    1.4611 C   0  0  0  0  0  0  0  0  0  0  0  0
   17.7152   23.5620    1.9754 C   0  0  0  0  0  0  0  0  0  0  0  0
   16.5401   23.4553    1.2950 C   0  0  0  0  0  0  0  0  0  0  0  0
   19.9714   24.4521    2.2048 C   0  0  0  0  0  0  0  0  0  0  0  0
   21.2001   24.4733    1.5695 O   0  0  0  0  0  0  0  0  0  0  0  0
   19.9157   24.5190    3.4520 O   0  0  0  0  0  0  0  0  0  0  0  0
   21.5488   23.5955    1.1907 H   0  0  0  0  0  0  0  0  0  0  0  0
   11.7282   22.8824   -1.1913 C   0  0  0  0  0  0  0  0  0  0  0  0
   10.5139   23.4469   -0.8929 C   0  0  0  0  0  0  0  0  0  0  0  0
    9.3606   22.6616   -0.8766 C   0  0  0  0  0  0  0  0  0  0  0  0
    9.4665   21.3179   -1.1648 C   0  0  0  0  0  0  0  0  0  0  0  0
   10.6730   20.7287   -1.4677 C   0  0  0  0  0  0  0  0  0  0  0  0
   11.8155   21.5374   -1.4774 C   0  0  0  0  0  0  0  0  0  0  0  0
    8.2766   20.4804   -1.1435 C   0  0  0  0  0  0  0  0  0  0  0  0
    8.0586   19.5597   -2.1467 C   0  0  0  0  0  0  0  0  0  0  0  0
    6.9475   18.7287   -2.1768 C   0  0  0  0  0  0  0  0  0  0  0  0
    6.0100   18.8272   -1.1495 C   0  0  0  0  0  0  0  0  0  0  0  0
    6.2086   19.7412   -0.1373 C   0  0  0  0  0  0  0  0  0  0  0  0
    7.3246   20.5640   -0.1229 C   0  0  0  0  0  0  0  0  0  0  0  0
    4.8668   17.9659   -1.1854 C   0  0  0  0  0  0  0  0  0  0  0  0
    3.9482   17.2544   -1.2272 N   0  0  0  0  0  0  0  0  0  0  0  0
   13.6804   27.8738   -4.6774 C   0  0  0  0  0  0  0  0  0  0  0  0
   15.2002   26.6055   -6.7294 C   0  0  0  0  0  0  0  0  0  0  0  0
   15.8972   27.2931   -5.5965 C   0  0  0  0  0  0  0  0  0  0  0  0
   17.2667   27.3174   -5.5190 C   0  0  0  0  0  0  0  0  0  0  0  0
   17.9110   27.9495   -4.4768 C   0  0  0  0  0  0  0  0  0  0  0  0
   17.1509   28.5666   -3.4983 C   0  0  0  0  0  0  0  0  0  0  0  0
   15.8210   28.5118   -3.6244 N   0  0  0  0  0  0  0  0  0  0  0  0
   15.1436   27.9199   -4.6023 C   0  0  0  0  0  0  0  0  0  0  0  0
 38 39  1  0  0  0
 39 40  2  0  0  0
 40 41  1  0  0  0
 41 42  2  0  0  0
 42 43  1  0  0  0
 43 44  2  0  0  0
 44 37  1  0  0  0
 37  1  1  0  0  0
  1  2  1  0  0  0
  2  3  1  0  0  0
  3  4  1  0  0  0
  4  5  1  0  0  0
  5  6  1  0  0  0
  4  7  1  0  0  0
  7  8  1  0  0  0
  8  9  2  0  0  0
  8 10  1  0  0  0
 10 11  1  0  0  0
 11 12  2  0  0  0
 10 13  1  0  0  0
 13 14  2  0  0  0
 14 15  1  0  0  0
 15 16  2  0  0  0
 16 17  1  0  0  0
 17 18  2  0  0  0
 16 19  1  0  0  0
 19 20  1  0  0  0
 19 21  2  0  0  0
  7 23  1  0  0  0
 23 24  2  0  0  0
 24 25  1  0  0  0
 25 26  2  0  0  0
 26 27  1  0  0  0
 27 28  2  0  0  0
 26 29  1  0  0  0
 29 30  2  0  0  0
 30 31  1  0  0  0
 31 32  2  0  0  0
 32 33  1  0  0  0
 33 34  2  0  0  0
 32 35  1  0  0  0
 35 36  3  0  0  0
 44 39  1  0  0  0
  6  1  1  0  0  0
 18 13  1  0  0  0
 28 23  1  0  0  0
 34 29  1  0  0  0
 11  4  1  0  0  0
 20 22  1  0  0  0
M  END
> <minimizedAffinity>
14.76678

> <CNNscore>
0.5475590229

> <CNNaffinity>
7.9253301620

> <CNN_VS>
4.3395862579

> <CNNaffinity_variance>
0.7670382857

$$$$
[H]OC(=O)c1c([H])c([H])c(N2C(=O)N(c3c([H])c([H])c(-c4c([H])c([H])c(C#N)c([H])c4[H])c([H])c3[H])C3(C2=O)C([H])([H])C([H])([H])N(C([H])([H])c2nc([H])c([H])c([H])c2C([H])([H])[H])C([H])([H])C3([H])[H])c([H])c1[H]


 44 49  0  0  0  0  0  0  0  0999 V2000
   13.3186   26.7918   -3.8969 N   0  0  0  0  0  0  0  0  0  0  0  0
   14.1649   26.8396   -2.6798 C   0  0  0  0  0  0  0  0  0  0  0  0
   13.4690   25.9925   -1.6525 C   0  0  0  0  0  0  0  0  0  0  0  0
   13.6837   24.5589   -2.0930 C   0  0  0  0  0  0  0  0  0  0  0  0
   13.1587   24.3458   -3.4545 C   0  0  0  0  0  0  0  0  0  0  0  0
   13.3282   25.4486   -4.4370 C   0  0  0  0  0  0  0  0  0  0  0  0
   13.0946   23.6899   -1.1173 N   0  0  0  0  0  0  0  0  0  0  0  0
   13.9974   23.6942    0.0090 C   0  0  0  0  0  0  0  0  0  0  0  0
   13.7170   23.4386    1.2144 O   0  0  0  0  0  0  0  0  0  0  0  0
   15.2833   24.0472   -0.5097 N   0  0  0  0  0  0  0  0  0  0  0  0
   15.1249   24.2439   -1.9095 C   0  0  0  0  0  0  0  0  0  0  0  0
   15.9965   24.1698   -2.7913 O   0  0  0  0  0  0  0  0  0  0  0  0
   16.4966   24.1774    0.2286 C   0  0  0  0  0  0  0  0  0  0  0  0
   16.4406   24.7937    1.4748 C   0  0  0  0  0  0  0  0  0  0  0  0
   17.6200   24.9079    2.1718 C   0  0  0  0  0  0  0  0  0  0  0  0
   18.8238   24.4481    1.6969 C   0  0  0  0  0  0  0  0  0  0  0  0
   18.8597   23.8393    0.4581 C   0  0  0  0  0  0  0  0  0  0  0  0
   17.7062   23.7123   -0.2551 C   0  0  0  0  0  0  0  0  0  0  0  0
   20.0686   24.5733    2.4418 C   0  0  0  0  0  0  0  0  0  0  0  0
   20.1005   24.5223    3.8239 O   0  0  0  0  0  0  0  0  0  0  0  0
   21.1306   24.7314    1.8013 O   0  0  0  0  0  0  0  0  0  0  0  0
   19.7672   25.3385    4.3323 H   0  0  0  0  0  0  0  0  0  0  0  0
   11.9107   22.9200   -1.0924 C   0  0  0  0  0  0  0  0  0  0  0  0
   10.7345   23.4625   -0.6399 C   0  0  0  0  0  0  0  0  0  0  0  0
    9.5727   22.6903   -0.6079 C   0  0  0  0  0  0  0  0  0  0  0  0
    9.6315   21.3818   -1.0375 C   0  0  0  0  0  0  0  0  0  0  0  0
   10.7991   20.8154   -1.4962 C   0  0  0  0  0  0  0  0  0  0  0  0
   11.9511   21.6103   -1.5184 C   0  0  0  0  0  0  0  0  0  0  0  0
    8.4328   20.5575   -1.0027 C   0  0  0  0  0  0  0  0  0  0  0  0
    7.5817   20.6165    0.0807 C   0  0  0  0  0  0  0  0  0  0  0  0
    6.4210   19.8608    0.1677 C   0  0  0  0  0  0  0  0  0  0  0  0
    6.0994   19.0044   -0.8845 C   0  0  0  0  0  0  0  0  0  0  0  0
    6.9368   18.9301   -1.9767 C   0  0  0  0  0  0  0  0  0  0  0  0
    8.0928   19.6922   -2.0472 C   0  0  0  0  0  0  0  0  0  0  0  0
    4.8997   18.2288   -0.7896 C   0  0  0  0  0  0  0  0  0  0  0  0
    3.9357   17.5826   -0.7180 N   0  0  0  0  0  0  0  0  0  0  0  0
   13.9953   27.6894   -4.8054 C   0  0  0  0  0  0  0  0  0  0  0  0
   16.1871   29.1043   -5.9557 C   0  0  0  0  0  0  0  0  0  0  0  0
   15.8256   27.7421   -6.4617 C   0  0  0  0  0  0  0  0  0  0  0  0
   16.5284   27.1583   -7.4851 C   0  0  0  0  0  0  0  0  0  0  0  0
   16.1975   25.9044   -7.9531 C   0  0  0  0  0  0  0  0  0  0  0  0
   15.1354   25.2337   -7.3714 C   0  0  0  0  0  0  0  0  0  0  0  0
   14.4865   25.8501   -6.3782 N   0  0  0  0  0  0  0  0  0  0  0  0
   14.7569   27.0537   -5.8845 C   0  0  0  0  0  0  0  0  0  0  0  0
 38 39  1  0  0  0
 39 40  2  0  0  0
 40 41  1  0  0  0
 41 42  2  0  0  0
 42 43  1  0  0  0
 43 44  2  0  0  0
 44 37  1  0  0  0
 37  1  1  0  0  0
  1  2  1  0  0  0
  2  3  1  0  0  0
  3  4  1  0  0  0
  4  5  1  0  0  0
  5  6  1  0  0  0
  4  7  1  0  0  0
  7  8  1  0  0  0
  8  9  2  0  0  0
  8 10  1  0  0  0
 10 11  1  0  0  0
 11 12  2  0  0  0
 10 13  1  0  0  0
 13 14  2  0  0  0
 14 15  1  0  0  0
 15 16  2  0  0  0
 16 17  1  0  0  0
 17 18  2  0  0  0
 16 19  1  0  0  0
 19 20  1  0  0  0
 19 21  2  0  0  0
  7 23  1  0  0  0
 23 24  2  0  0  0
 24 25  1  0  0  0
 25 26  2  0  0  0
 26 27  1  0  0  0
 27 28  2  0  0  0
 26 29  1  0  0  0
 29 30  2  0  0  0
 30 31  1  0  0  0
 31 32  2  0  0  0
 32 33  1  0  0  0
 33 34  2  0  0  0
 32 35  1  0  0  0
 35 36  3  0  0  0
 44 39  1  0  0  0
  6  1  1  0  0  0
 18 13  1  0  0  0
 28 23  1  0  0  0
 34 29  1  0  0  0
 11  4  1  0  0  0
 20 22  1  0  0  0
M  END
> <minimizedAffinity>
15.79377

> <CNNscore>
0.5309730172

> <CNNaffinity>
7.9232277870

> <CNN_VS>
4.2070202827

> <CNNaffinity_variance>
0.8797802925

$$$$
[H]OC(=O)c1c([H])c([H])c(N2C(=O)N(c3c([H])c([H])c(-c4c([H])c([H])c(C#N)c([H])c4[H])c([H])c3[H])C3(C2=O)C([H])([H])C([H])([H])N(C([H])([H])c2nc([H])c([H])c([H])c2C([H])([H])[H])C([H])([H])C3([H])[H])c([H])c1[H]


 44 49  0  0  0  0  0  0  0  0999 V2000
    8.6559   27.1376    2.0207 N   0  0  0  0  0  0  0  0  0  0  0  0
    7.9721   25.9794    1.3957 C   0  0  0  0  0  0  0  0  0  0  0  0
    8.8315   25.5617    0.2362 C   0  0  0  0  0  0  0  0  0  0  0  0
   10.0399   24.8831    0.8481 C   0  0  0  0  0  0  0  0  0  0  0  0
   10.7389   25.7943    1.7734 C   0  0  0  0  0  0  0  0  0  0  0  0
    9.9051   26.6996    2.6072 C   0  0  0  0  0  0  0  0  0  0  0  0
   10.8767   24.4019   -0.2114 N   0  0  0  0  0  0  0  0  0  0  0  0
   10.2206   23.2237   -0.7261 C   0  0  0  0  0  0  0  0  0  0  0  0
   10.3398   22.7254   -1.8814 O   0  0  0  0  0  0  0  0  0  0  0  0
    9.4016   22.7250    0.3359 N   0  0  0  0  0  0  0  0  0  0  0  0
    9.5813   23.6001    1.4427 C   0  0  0  0  0  0  0  0  0  0  0  0
    9.3972   23.3523    2.6458 O   0  0  0  0  0  0  0  0  0  0  0  0
    8.5640   21.5712    0.2999 C   0  0  0  0  0  0  0  0  0  0  0  0
    7.4672   21.5860   -0.5561 C   0  0  0  0  0  0  0  0  0  0  0  0
    6.6732   20.4641   -0.5781 C   0  0  0  0  0  0  0  0  0  0  0  0
    6.9147   19.3545    0.1944 C   0  0  0  0  0  0  0  0  0  0  0  0
    8.0078   19.3582    1.0379 C   0  0  0  0  0  0  0  0  0  0  0  0
    8.8123   20.4565    1.0805 C   0  0  0  0  0  0  0  0  0  0  0  0
    6.0682   18.1701    0.1652 C   0  0  0  0  0  0  0  0  0  0  0  0
    5.5527   17.6127    1.3216 O   0  0  0  0  0  0  0  0  0  0  0  0
    5.8087   17.6530   -0.9430 O   0  0  0  0  0  0  0  0  0  0  0  0
    6.1906   17.0863    1.9147 H   0  0  0  0  0  0  0  0  0  0  0  0
   12.0991   24.8475   -0.7610 C   0  0  0  0  0  0  0  0  0  0  0  0
   12.8987   23.9892   -1.4727 C   0  0  0  0  0  0  0  0  0  0  0  0
   14.1103   24.4356   -2.0016 C   0  0  0  0  0  0  0  0  0  0  0  0
   14.4834   25.7465   -1.7959 C   0  0  0  0  0  0  0  0  0  0  0  0
   13.6983   26.6265   -1.0861 C   0  0  0  0  0  0  0  0  0  0  0  0
   12.4876   26.1549   -0.5654 C   0  0  0  0  0  0  0  0  0  0  0  0
   15.7478   26.2283   -2.3314 C   0  0  0  0  0  0  0  0  0  0  0  0
   16.3667   25.5531   -3.3622 C   0  0  0  0  0  0  0  0  0  0  0  0
   17.5684   25.9678   -3.9188 C   0  0  0  0  0  0  0  0  0  0  0  0
   18.1781   27.1164   -3.4157 C   0  0  0  0  0  0  0  0  0  0  0  0
   17.5763   27.8060   -2.3852 C   0  0  0  0  0  0  0  0  0  0  0  0
   16.3754   27.3774   -1.8406 C   0  0  0  0  0  0  0  0  0  0  0  0
   19.4168   27.5401   -3.9953 C   0  0  0  0  0  0  0  0  0  0  0  0
   20.4322   27.8795   -4.4489 N   0  0  0  0  0  0  0  0  0  0  0  0
    7.7396   27.5389    3.0639 C   0  0  0  0  0  0  0  0  0  0  0  0
    6.9520   27.9085    5.7791 C   0  0  0  0  0  0  0  0  0  0  0  0
    6.6510   26.6189    5.0800 C   0  0  0  0  0  0  0  0  0  0  0  0
    6.0059   25.5966    5.7287 C   0  0  0  0  0  0  0  0  0  0  0  0
    5.7278   24.4081    5.0874 C   0  0  0  0  0  0  0  0  0  0  0  0
    6.1116   24.2570    3.7661 C   0  0  0  0  0  0  0  0  0  0  0  0
    6.7367   25.2855    3.1840 N   0  0  0  0  0  0  0  0  0  0  0  0
    7.0320   26.4522    3.7473 C   0  0  0  0  0  0  0  0  0  0  0  0
 38 39  1  0  0  0
 39 40  2  0  0  0
 40 41  1  0  0  0
 41 42  2  0  0  0
 42 43  1  0  0  0
 43 44  2  0  0  0
 44 37  1  0  0  0
 37  1  1  0  0  0
  1  2  1  0  0  0
  2  3  1  0  0  0
  3  4  1  0  0  0
  4  5  1  0  0  0
  5  6  1  0  0  0
  4  7  1  0  0  0
  7  8  1  0  0  0
  8  9  2  0  0  0
  8 10  1  0  0  0
 10 11  1  0  0  0
 11 12  2  0  0  0
 10 13  1  0  0  0
 13 14  2  0  0  0
 14 15  1  0  0  0
 15 16  2  0  0  0
 16 17  1  0  0  0
 17 18  2  0  0  0
 16 19  1  0  0  0
 19 20  1  0  0  0
 19 21  2  0  0  0
  7 23  1  0  0  0
 23 24  2  0  0  0
 24 25  1  0  0  0
 25 26  2  0  0  0
 26 27  1  0  0  0
 27 28  2  0  0  0
 26 29  1  0  0  0
 29 30  2  0  0  0
 30 31  1  0  0  0
 31 32  2  0  0  0
 32 33  1  0  0  0
 33 34  2  0  0  0
 32 35  1  0  0  0
 35 36  3  0  0  0
 44 39  1  0  0  0
  6  1  1  0  0  0
 18 13  1  0  0  0
 28 23  1  0  0  0
 34 29  1  0  0  0
 11  4  1  0  0  0
 20 22  1  0  0  0
M  END
> <minimizedAffinity>
24.67128

> <CNNscore>
0.3876503110

> <CNNaffinity>
6.6589074135

> <CNN_VS>
2.5813274384

> <CNNaffinity_variance>
0.7925768495

$$$$
[H]OC(=O)c1c([H])c([H])c(N2C(=O)N(c3c([H])c([H])c(-c4c([H])c([H])c(C#N)c([H])c4[H])c([H])c3[H])C3(C2=O)C([H])([H])C([H])([H])N(C([H])([H])c2nc([H])c([H])c([H])c2C([H])([H])[H])C([H])([H])C3([H])[H])c([H])c1[H]


 44 49  0  0  0  0  0  0  0  0999 V2000
    9.0804   20.0590   -3.3032 N   0  0  0  0  0  0  0  0  0  0  0  0
    8.9461   19.8366   -1.8430 C   0  0  0  0  0  0  0  0  0  0  0  0
   10.1087   20.5413   -1.2036 C   0  0  0  0  0  0  0  0  0  0  0  0
    9.7909   22.0197   -1.2972 C   0  0  0  0  0  0  0  0  0  0  0  0
    9.5851   22.4226   -2.7009 C   0  0  0  0  0  0  0  0  0  0  0  0
    8.8856   21.4635   -3.5958 C   0  0  0  0  0  0  0  0  0  0  0  0
   10.8366   22.7522   -0.6461 N   0  0  0  0  0  0  0  0  0  0  0  0
   10.6110   22.5848    0.7697 C   0  0  0  0  0  0  0  0  0  0  0  0
   11.4660   22.6753    1.6960 O   0  0  0  0  0  0  0  0  0  0  0  0
    9.2184   22.2940    0.9219 N   0  0  0  0  0  0  0  0  0  0  0  0
    8.6512   22.2927   -0.3825 C   0  0  0  0  0  0  0  0  0  0  0  0
    7.4638   22.4787   -0.6956 O   0  0  0  0  0  0  0  0  0  0  0  0
    8.5241   22.0521    2.1440 C   0  0  0  0  0  0  0  0  0  0  0  0
    9.1145   21.2024    3.0742 C   0  0  0  0  0  0  0  0  0  0  0  0
    8.4310   20.9835    4.2466 C   0  0  0  0  0  0  0  0  0  0  0  0
    7.2156   21.5575    4.5291 C   0  0  0  0  0  0  0  0  0  0  0  0
    6.6452   22.3979    3.5937 C   0  0  0  0  0  0  0  0  0  0  0  0
    7.3001   22.6332    2.4228 C   0  0  0  0  0  0  0  0  0  0  0  0
    6.4981   21.3199    5.7735 C   0  0  0  0  0  0  0  0  0  0  0  0
    5.4605   22.1370    6.1852 O   0  0  0  0  0  0  0  0  0  0  0  0
    6.8403   20.3468    6.4798 O   0  0  0  0  0  0  0  0  0  0  0  0
    5.7022   23.0547    6.5530 H   0  0  0  0  0  0  0  0  0  0  0  0
   11.9216   23.5227   -1.1196 C   0  0  0  0  0  0  0  0  0  0  0  0
   12.4074   24.5722   -0.3814 C   0  0  0  0  0  0  0  0  0  0  0  0
   13.4718   25.3351   -0.8630 C   0  0  0  0  0  0  0  0  0  0  0  0
   14.0206   25.0141   -2.0861 C   0  0  0  0  0  0  0  0  0  0  0  0
   13.5512   23.9659   -2.8447 C   0  0  0  0  0  0  0  0  0  0  0  0
   12.4826   23.2157   -2.3401 C   0  0  0  0  0  0  0  0  0  0  0  0
   15.1250   25.8037   -2.6099 C   0  0  0  0  0  0  0  0  0  0  0  0
   16.2208   26.0744   -1.8179 C   0  0  0  0  0  0  0  0  0  0  0  0
   17.3068   26.8148   -2.2635 C   0  0  0  0  0  0  0  0  0  0  0  0
   17.2913   27.3070   -3.5679 C   0  0  0  0  0  0  0  0  0  0  0  0
   16.2053   27.0482   -4.3761 C   0  0  0  0  0  0  0  0  0  0  0  0
   15.1285   26.3066   -3.9146 C   0  0  0  0  0  0  0  0  0  0  0  0
   18.4154   28.0686   -4.0222 C   0  0  0  0  0  0  0  0  0  0  0  0
   19.3330   28.6911   -4.3721 N   0  0  0  0  0  0  0  0  0  0  0  0
    7.9902   19.2881   -3.8566 C   0  0  0  0  0  0  0  0  0  0  0  0
    7.8436   17.1064   -2.0269 C   0  0  0  0  0  0  0  0  0  0  0  0
    6.7159   18.0877   -2.1156 C   0  0  0  0  0  0  0  0  0  0  0  0
    5.5971   17.9518   -1.3334 C   0  0  0  0  0  0  0  0  0  0  0  0
    4.5573   18.8537   -1.4132 C   0  0  0  0  0  0  0  0  0  0  0  0
    4.6569   19.9101   -2.3022 C   0  0  0  0  0  0  0  0  0  0  0  0
    5.7693   19.9932   -3.0391 N   0  0  0  0  0  0  0  0  0  0  0  0
    6.8024   19.1581   -3.0076 C   0  0  0  0  0  0  0  0  0  0  0  0
 38 39  1  0  0  0
 39 40  2  0  0  0
 40 41  1  0  0  0
 41 42  2  0  0  0
 42 43  1  0  0  0
 43 44  2  0  0  0
 44 37  1  0  0  0
 37  1  1  0  0  0
  1  2  1  0  0  0
  2  3  1  0  0  0
  3  4  1  0  0  0
  4  5  1  0  0  0
  5  6  1  0  0  0
  4  7  1  0  0  0
  7  8  1  0  0  0
  8  9  2  0  0  0
  8 10  1  0  0  0
 10 11  1  0  0  0
 11 12  2  0  0  0
 10 13  1  0  0  0
 13 14  2  0  0  0
 14 15  1  0  0  0
 15 16  2  0  0  0
 16 17  1  0  0  0
 17 18  2  0  0  0
 16 19  1  0  0  0
 19 20  1  0  0  0
 19 21  2  0  0  0
  7 23  1  0  0  0
 23 24  2  0  0  0
 24 25  1  0  0  0
 25 26  2  0  0  0
 26 27  1  0  0  0
 27 28  2  0  0  0
 26 29  1  0  0  0
 29 30  2  0  0  0
 30 31  1  0  0  0
 31 32  2  0  0  0
 32 33  1  0  0  0
 33 34  2  0  0  0
 32 35  1  0  0  0
 35 36  3  0  0  0
 44 39  1  0  0  0
  6  1  1  0  0  0
 18 13  1  0  0  0
 28 23  1  0  0  0
 34 29  1  0  0  0
 11  4  1  0  0  0
 20 22  1  0  0  0
M  END
> <minimizedAffinity>
7.00448

> <CNNscore>
0.3782991469

> <CNNaffinity>
7.1095628738

> <CNN_VS>
2.6895415783

> <CNNaffinity_variance>
0.6688935161

$$$$
[H]OC(=O)c1c([H])c([H])c(N2C(=O)N(c3c([H])c([H])c(-c4c([H])c([H])c(C#N)c([H])c4[H])c([H])c3[H])C3(C2=O)C([H])([H])C([H])([H])N(C([H])([H])c2nc([H])c([H])c([H])c2C([H])([H])[H])C([H])([H])C3([H])[H])c([H])c1[H]


 44 49  0  0  0  0  0  0  0  0999 V2000
    9.8997   19.7137   -0.3218 N   0  0  0  0  0  0  0  0  0  0  0  0
    9.7094   20.4695    0.9400 C   0  0  0  0  0  0  0  0  0  0  0  0
   10.6072   21.6706    0.8480 C   0  0  0  0  0  0  0  0  0  0  0  0
    9.9422   22.6016   -0.1450 C   0  0  0  0  0  0  0  0  0  0  0  0
    9.7550   21.9319   -1.4456 C   0  0  0  0  0  0  0  0  0  0  0  0
    9.3875   20.4915   -1.4304 C   0  0  0  0  0  0  0  0  0  0  0  0
   10.7194   23.8025   -0.2340 N   0  0  0  0  0  0  0  0  0  0  0  0
   10.4308   24.5475    0.9682 C   0  0  0  0  0  0  0  0  0  0  0  0
   11.1607   25.4180    1.5218 O   0  0  0  0  0  0  0  0  0  0  0  0
    9.1458   24.1046    1.4151 N   0  0  0  0  0  0  0  0  0  0  0  0
    8.7017   23.1215    0.4882 C   0  0  0  0  0  0  0  0  0  0  0  0
    7.5337   22.7696    0.2540 O   0  0  0  0  0  0  0  0  0  0  0  0
    8.4383   24.5583    2.5674 C   0  0  0  0  0  0  0  0  0  0  0  0
    8.3070   23.6828    3.6407 C   0  0  0  0  0  0  0  0  0  0  0  0
    7.6237   24.1391    4.7428 C   0  0  0  0  0  0  0  0  0  0  0  0
    7.0780   25.3968    4.8239 C   0  0  0  0  0  0  0  0  0  0  0  0
    7.2184   26.2517    3.7488 C   0  0  0  0  0  0  0  0  0  0  0  0
    7.8907   25.8263    2.6431 C   0  0  0  0  0  0  0  0  0  0  0  0
    6.3554   25.8722    5.9952 C   0  0  0  0  0  0  0  0  0  0  0  0
    5.2680   25.1886    6.5091 O   0  0  0  0  0  0  0  0  0  0  0  0
    6.7394   26.9293    6.5412 O   0  0  0  0  0  0  0  0  0  0  0  0
    4.3898   25.2505    5.9987 H   0  0  0  0  0  0  0  0  0  0  0  0
   11.6142   24.3098   -1.2021 C   0  0  0  0  0  0  0  0  0  0  0  0
   12.8678   23.7707   -1.3446 C   0  0  0  0  0  0  0  0  0  0  0  0
   13.7489   24.2866   -2.2956 C   0  0  0  0  0  0  0  0  0  0  0  0
   13.3362   25.3402   -3.0827 C   0  0  0  0  0  0  0  0  0  0  0  0
   12.0837   25.8975   -2.9590 C   0  0  0  0  0  0  0  0  0  0  0  0
   11.2181   25.3627   -1.9977 C   0  0  0  0  0  0  0  0  0  0  0  0
   14.2441   25.8983   -4.0736 C   0  0  0  0  0  0  0  0  0  0  0  0
   14.2777   25.3822   -5.3519 C   0  0  0  0  0  0  0  0  0  0  0  0
   15.1159   25.8768   -6.3412 C   0  0  0  0  0  0  0  0  0  0  0  0
   15.9613   26.9415   -6.0316 C   0  0  0  0  0  0  0  0  0  0  0  0
   15.9437   27.4719   -4.7596 C   0  0  0  0  0  0  0  0  0  0  0  0
   15.0998   26.9653   -3.7831 C   0  0  0  0  0  0  0  0  0  0  0  0
   16.8224   27.4483   -7.0570 C   0  0  0  0  0  0  0  0  0  0  0  0
   17.5327   27.8431   -7.8886 N   0  0  0  0  0  0  0  0  0  0  0  0
    9.0814   18.5380   -0.1296 C   0  0  0  0  0  0  0  0  0  0  0  0
    7.4452   17.3701   -2.1515 C   0  0  0  0  0  0  0  0  0  0  0  0
    6.8250   18.2070   -1.0757 C   0  0  0  0  0  0  0  0  0  0  0  0
    5.4723   18.4343   -1.0479 C   0  0  0  0  0  0  0  0  0  0  0  0
    4.8988   19.2046   -0.0587 C   0  0  0  0  0  0  0  0  0  0  0  0
    5.7134   19.7523    0.9173 C   0  0  0  0  0  0  0  0  0  0  0  0
    7.0237   19.4980    0.8410 N   0  0  0  0  0  0  0  0  0  0  0  0
    7.6341   18.7658   -0.0846 C   0  0  0  0  0  0  0  0  0  0  0  0
 38 39  1  0  0  0
 39 40  2  0  0  0
 40 41  1  0  0  0
 41 42  2  0  0  0
 42 43  1  0  0  0
 43 44  2  0  0  0
 44 37  1  0  0  0
 37  1  1  0  0  0
  1  2  1  0  0  0
  2  3  1  0  0  0
  3  4  1  0  0  0
  4  5  1  0  0  0
  5  6  1  0  0  0
  4  7  1  0  0  0
  7  8  1  0  0  0
  8  9  2  0  0  0
  8 10  1  0  0  0
 10 11  1  0  0  0
 11 12  2  0  0  0
 10 13  1  0  0  0
 13 14  2  0  0  0
 14 15  1  0  0  0
 15 16  2  0  0  0
 16 17  1  0  0  0
 17 18  2  0  0  0
 16 19  1  0  0  0
 19 20  1  0  0  0
 19 21  2  0  0  0
  7 23  1  0  0  0
 23 24  2  0  0  0
 24 25  1  0  0  0
 25 26  2  0  0  0
 26 27  1  0  0  0
 27 28  2  0  0  0
 26 29  1  0  0  0
 29 30  2  0  0  0
 30 31  1  0  0  0
 31 32  2  0  0  0
 32 33  1  0  0  0
 33 34  2  0  0  0
 32 35  1  0  0  0
 35 36  3  0  0  0
 44 39  1  0  0  0
  6  1  1  0  0  0
 18 13  1  0  0  0
 28 23  1  0  0  0
 34 29  1  0  0  0
 11  4  1  0  0  0
 20 22  1  0  0  0
M  END
> <minimizedAffinity>
1.33558

> <CNNscore>
0.3565239012

> <CNNaffinity>
7.0805268288

> <CNN_VS>
2.5243771076

> <CNNaffinity_variance>
0.1203445643

$$$$
[H]OC(=O)c1c([H])c([H])c(N2C(=O)N(c3c([H])c([H])c(-c4c([H])c([H])c(C#N)c([H])c4[H])c([H])c3[H])C3(C2=O)C([H])([H])C([H])([H])N(C([H])([H])c2nc([H])c([H])c([H])c2C([H])([H])[H])C([H])([H])C3([H])[H])c([H])c1[H]


 44 49  0  0  0  0  0  0  0  0999 V2000
   13.3950   26.1125   -2.6589 N   0  0  0  0  0  0  0  0  0  0  0  0
   14.3053   25.1026   -2.0665 C   0  0  0  0  0  0  0  0  0  0  0  0
   13.8255   24.8802   -0.6602 C   0  0  0  0  0  0  0  0  0  0  0  0
   12.5493   24.0738   -0.7876 C   0  0  0  0  0  0  0  0  0  0  0  0
   11.5610   24.7865   -1.6186 C   0  0  0  0  0  0  0  0  0  0  0  0
   12.0691   25.5463   -2.7911 C   0  0  0  0  0  0  0  0  0  0  0  0
   12.0686   23.7716    0.5283 N   0  0  0  0  0  0  0  0  0  0  0  0
   12.9239   22.7214    1.0275 C   0  0  0  0  0  0  0  0  0  0  0  0
   13.1591   22.4368    2.2361 O   0  0  0  0  0  0  0  0  0  0  0  0
   13.4583   22.0592   -0.1227 N   0  0  0  0  0  0  0  0  0  0  0  0
   12.9219   22.7160   -1.2646 C   0  0  0  0  0  0  0  0  0  0  0  0
   12.7904   22.2600   -2.4124 O   0  0  0  0  0  0  0  0  0  0  0  0
   14.3562   20.9512   -0.1311 C   0  0  0  0  0  0  0  0  0  0  0  0
   13.9776   19.8080   -0.8281 C   0  0  0  0  0  0  0  0  0  0  0  0
   14.8573   18.7517   -0.8261 C   0  0  0  0  0  0  0  0  0  0  0  0
   16.0676   18.7799   -0.1777 C   0  0  0  0  0  0  0  0  0  0  0  0
   16.4262   19.9230    0.5088 C   0  0  0  0  0  0  0  0  0  0  0  0
   15.5741   20.9855    0.5240 C   0  0  0  0  0  0  0  0  0  0  0  0
   16.9936   17.6563   -0.1805 C   0  0  0  0  0  0  0  0  0  0  0  0
   17.9700   17.5174   -1.1506 O   0  0  0  0  0  0  0  0  0  0  0  0
   16.8915   16.8005    0.7251 O   0  0  0  0  0  0  0  0  0  0  0  0
   17.6734   17.2164   -2.0764 H   0  0  0  0  0  0  0  0  0  0  0  0
   11.0119   24.2796    1.3159 C   0  0  0  0  0  0  0  0  0  0  0  0
    9.8976   23.5185    1.5640 C   0  0  0  0  0  0  0  0  0  0  0  0
    8.8537   24.0336    2.3333 C   0  0  0  0  0  0  0  0  0  0  0  0
    8.9650   25.3126    2.8348 C   0  0  0  0  0  0  0  0  0  0  0  0
   10.0728   26.0953    2.6003 C   0  0  0  0  0  0  0  0  0  0  0  0
   11.1066   25.5562    1.8256 C   0  0  0  0  0  0  0  0  0  0  0  0
    7.8828   25.8711    3.6313 C   0  0  0  0  0  0  0  0  0  0  0  0
    7.8204   27.2294    3.8610 C   0  0  0  0  0  0  0  0  0  0  0  0
    6.8096   27.8209    4.6056 C   0  0  0  0  0  0  0  0  0  0  0  0
    5.8131   27.0088    5.1455 C   0  0  0  0  0  0  0  0  0  0  0  0
    5.8570   25.6485    4.9281 C   0  0  0  0  0  0  0  0  0  0  0  0
    6.8744   25.0741    4.1817 C   0  0  0  0  0  0  0  0  0  0  0  0
    4.7721   27.6252    5.9112 C   0  0  0  0  0  0  0  0  0  0  0  0
    3.9355   28.1192    6.5499 N   0  0  0  0  0  0  0  0  0  0  0  0
   13.9622   26.3410   -3.9685 C   0  0  0  0  0  0  0  0  0  0  0  0
   15.0758   27.1257   -6.4732 C   0  0  0  0  0  0  0  0  0  0  0  0
   15.8652   27.3031   -5.2131 C   0  0  0  0  0  0  0  0  0  0  0  0
   17.1308   27.8319   -5.2400 C   0  0  0  0  0  0  0  0  0  0  0  0
   17.8599   27.9960   -4.0814 C   0  0  0  0  0  0  0  0  0  0  0  0
   17.2932   27.6166   -2.8768 C   0  0  0  0  0  0  0  0  0  0  0  0
   16.0575   27.1075   -2.9100 N   0  0  0  0  0  0  0  0  0  0  0  0
   15.3065   26.9250   -3.9909 C   0  0  0  0  0  0  0  0  0  0  0  0
 38 39  1  0  0  0
 39 40  2  0  0  0
 40 41  1  0  0  0
 41 42  2  0  0  0
 42 43  1  0  0  0
 43 44  2  0  0  0
 44 37  1  0  0  0
 37  1  1  0  0  0
  1  2  1  0  0  0
  2  3  1  0  0  0
  3  4  1  0  0  0
  4  5  1  0  0  0
  5  6  1  0  0  0
  4  7  1  0  0  0
  7  8  1  0  0  0
  8  9  2  0  0  0
  8 10  1  0  0  0
 10 11  1  0  0  0
 11 12  2  0  0  0
 10 13  1  0  0  0
 13 14  2  0  0  0
 14 15  1  0  0  0
 15 16  2  0  0  0
 16 17  1  0  0  0
 17 18  2  0  0  0
 16 19  1  0  0  0
 19 20  1  0  0  0
 19 21  2  0  0  0
  7 23  1  0  0  0
 23 24  2  0  0  0
 24 25  1  0  0  0
 25 26  2  0  0  0
 26 27  1  0  0  0
 27 28  2  0  0  0
 26 29  1  0  0  0
 29 30  2  0  0  0
 30 31  1  0  0  0
 31 32  2  0  0  0
 32 33  1  0  0  0
 33 34  2  0  0  0
 32 35  1  0  0  0
 35 36  3  0  0  0
 44 39  1  0  0  0
  6  1  1  0  0  0
 18 13  1  0  0  0
 28 23  1  0  0  0
 34 29  1  0  0  0
 11  4  1  0  0  0
 20 22  1  0  0  0
M  END
> <minimizedAffinity>
15.77486

> <CNNscore>
0.3467340171

> <CNNaffinity>
7.4788370132

> <CNN_VS>
2.5931673050

> <CNNaffinity_variance>
0.2336165011

$$$$
[H]OC(=O)c1c([H])c([H])c(N2C(=O)N(c3c([H])c([H])c(-c4c([H])c([H])c(C#N)c([H])c4[H])c([H])c3[H])C3(C2=O)C([H])([H])C([H])([H])N(C([H])([H])c2nc([H])c([H])c([H])c2C([H])([H])[H])C([H])([H])C3([H])[H])c([H])c1[H]


 44 49  0  0  0  0  0  0  0  0999 V2000
   15.7544   22.4663   -1.0796 N   0  0  0  0  0  0  0  0  0  0  0  0
   15.3501   23.5360   -2.0239 C   0  0  0  0  0  0  0  0  0  0  0  0
   13.8797   23.3460   -2.2671 C   0  0  0  0  0  0  0  0  0  0  0  0
   13.1934   23.8108   -0.9990 C   0  0  0  0  0  0  0  0  0  0  0  0
   13.6789   23.0501    0.1675 C   0  0  0  0  0  0  0  0  0  0  0  0
   15.1213   22.6921    0.2027 C   0  0  0  0  0  0  0  0  0  0  0  0
   11.7758   23.7141   -1.1869 N   0  0  0  0  0  0  0  0  0  0  0  0
   11.4148   24.8264   -2.0331 C   0  0  0  0  0  0  0  0  0  0  0  0
   10.4060   24.9159   -2.7891 O   0  0  0  0  0  0  0  0  0  0  0  0
   12.4305   25.8169   -1.8477 N   0  0  0  0  0  0  0  0  0  0  0  0
   13.3609   25.2854   -0.9124 C   0  0  0  0  0  0  0  0  0  0  0  0
   14.1448   25.9113   -0.1800 O   0  0  0  0  0  0  0  0  0  0  0  0
   12.5025   27.0955   -2.4756 C   0  0  0  0  0  0  0  0  0  0  0  0
   13.2539   27.2102   -3.6410 C   0  0  0  0  0  0  0  0  0  0  0  0
   13.3094   28.4499   -4.2324 C   0  0  0  0  0  0  0  0  0  0  0  0
   12.6668   29.5545   -3.7292 C   0  0  0  0  0  0  0  0  0  0  0  0
   11.9258   29.4214   -2.5718 C   0  0  0  0  0  0  0  0  0  0  0  0
   11.8530   28.2045   -1.9640 C   0  0  0  0  0  0  0  0  0  0  0  0
   12.7310   30.8643   -4.3620 C   0  0  0  0  0  0  0  0  0  0  0  0
   13.9124   31.3705   -4.8737 O   0  0  0  0  0  0  0  0  0  0  0  0
   11.6815   31.5394   -4.4375 O   0  0  0  0  0  0  0  0  0  0  0  0
   14.6060   31.7078   -4.2098 H   0  0  0  0  0  0  0  0  0  0  0  0
   10.7951   22.8088   -0.7246 C   0  0  0  0  0  0  0  0  0  0  0  0
   10.9017   21.4673   -0.9922 C   0  0  0  0  0  0  0  0  0  0  0  0
    9.9216   20.5823   -0.5415 C   0  0  0  0  0  0  0  0  0  0  0  0
    8.8531   21.0805    0.1728 C   0  0  0  0  0  0  0  0  0  0  0  0
    8.7243   22.4216    0.4543 C   0  0  0  0  0  0  0  0  0  0  0  0
    9.7204   23.2893   -0.0087 C   0  0  0  0  0  0  0  0  0  0  0  0
    7.8158   20.1748    0.6432 C   0  0  0  0  0  0  0  0  0  0  0  0
    7.2296   20.3721    1.8757 C   0  0  0  0  0  0  0  0  0  0  0  0
    6.2312   19.5474    2.3747 C   0  0  0  0  0  0  0  0  0  0  0  0
    5.8006   18.4724    1.5981 C   0  0  0  0  0  0  0  0  0  0  0  0
    6.3737   18.2571    0.3633 C   0  0  0  0  0  0  0  0  0  0  0  0
    7.3704   19.0911   -0.1199 C   0  0  0  0  0  0  0  0  0  0  0  0
    4.7691   17.6263    2.1178 C   0  0  0  0  0  0  0  0  0  0  0  0
    3.9444   16.9237    2.5396 N   0  0  0  0  0  0  0  0  0  0  0  0
   17.1826   22.6536   -0.9599 C   0  0  0  0  0  0  0  0  0  0  0  0
   19.9136   22.6126   -0.1419 C   0  0  0  0  0  0  0  0  0  0  0  0
   18.9536   23.5674    0.4977 C   0  0  0  0  0  0  0  0  0  0  0  0
   19.3628   24.4253    1.4869 C   0  0  0  0  0  0  0  0  0  0  0  0
   18.4809   25.3052    2.0777 C   0  0  0  0  0  0  0  0  0  0  0  0
   17.1624   25.3126    1.6561 C   0  0  0  0  0  0  0  0  0  0  0  0
   16.8194   24.4555    0.6891 N   0  0  0  0  0  0  0  0  0  0  0  0
   17.6208   23.5862    0.0826 C   0  0  0  0  0  0  0  0  0  0  0  0
 38 39  1  0  0  0
 39 40  2  0  0  0
 40 41  1  0  0  0
 41 42  2  0  0  0
 42 43  1  0  0  0
 43 44  2  0  0  0
 44 37  1  0  0  0
 37  1  1  0  0  0
  1  2  1  0  0  0
  2  3  1  0  0  0
  3  4  1  0  0  0
  4  5  1  0  0  0
  5  6  1  0  0  0
  4  7  1  0  0  0
  7  8  1  0  0  0
  8  9  2  0  0  0
  8 10  1  0  0  0
 10 11  1  0  0  0
 11 12  2  0  0  0
 10 13  1  0  0  0
 13 14  2  0  0  0
 14 15  1  0  0  0
 15 16  2  0  0  0
 16 17  1  0  0  0
 17 18  2  0  0  0
 16 19  1  0  0  0
 19 20  1  0  0  0
 19 21  2  0  0  0
  7 23  1  0  0  0
 23 24  2  0  0  0
 24 25  1  0  0  0
 25 26  2  0  0  0
 26 27  1  0  0  0
 27 28  2  0  0  0
 26 29  1  0  0  0
 29 30  2  0  0  0
 30 31  1  0  0  0
 31 32  2  0  0  0
 32 33  1  0  0  0
 33 34  2  0  0  0
 32 35  1  0  0  0
 35 36  3  0  0  0
 44 39  1  0  0  0
  6  1  1  0  0  0
 18 13  1  0  0  0
 28 23  1  0  0  0
 34 29  1  0  0  0
 11  4  1  0  0  0
 20 22  1  0  0  0
M  END
> <minimizedAffinity>
40.28201

> <CNNscore>
0.3459313214

> <CNNaffinity>
7.2085824013

> <CNN_VS>
2.4936745167

> <CNNaffinity_variance>
0.9385110736

$$$$
