[H]OC(=O)c1c([H])c([H])c(-c2nc(=O)c(C([H])([H])OC(=O)N([H])C([H])([H])C3([H])C([H])([H])C3([H])[H])c([H])n2-c2c([H])c([H])c([H])c(C([H])([H])OC([H])([H])[H])c2[H])c([H])c1[H]


 36 39  0  0  0  0  0  0  0  0999 V2000
   12.4846   25.3183   -2.1479 N   0  0  0  0  0  0  0  0  0  0  0  0
   11.9341   26.2928   -2.9955 C   0  0  0  0  0  0  0  0  0  0  0  0
   12.7254   27.0348   -3.8203 C   0  0  0  0  0  0  0  0  0  0  0  0
   14.0635   26.7830   -3.7798 C   0  0  0  0  0  0  0  0  0  0  0  0
   14.8230   27.4687   -4.5413 O   0  0  0  0  0  0  0  0  0  0  0  0
   14.5528   25.8523   -2.9710 N   0  0  0  0  0  0  0  0  0  0  0  0
   13.7819   25.0778   -2.1220 C   0  0  0  0  0  0  0  0  0  0  0  0
   10.5307   24.5441    0.9259 C   0  0  0  0  0  0  0  0  0  0  0  0
    9.7272   23.5191    0.4492 C   0  0  0  0  0  0  0  0  0  0  0  0
    9.8128   23.1137   -0.8416 C   0  0  0  0  0  0  0  0  0  0  0  0
   10.7272   23.7417   -1.6989 C   0  0  0  0  0  0  0  0  0  0  0  0
   11.5475   24.7726   -1.2456 C   0  0  0  0  0  0  0  0  0  0  0  0
   11.4335   25.1544    0.0575 C   0  0  0  0  0  0  0  0  0  0  0  0
   10.3698   24.9630    2.3312 C   0  0  0  0  0  0  0  0  0  0  0  0
    8.3601   25.4652    3.1108 C   0  0  0  0  0  0  0  0  0  0  0  0
    9.2988   24.4025    3.0019 O   0  0  0  0  0  0  0  0  0  0  0  0
   14.4596   24.1192   -1.2878 C   0  0  0  0  0  0  0  0  0  0  0  0
   14.1199   22.7803   -1.5020 C   0  0  0  0  0  0  0  0  0  0  0  0
   14.6112   21.7774   -0.7472 C   0  0  0  0  0  0  0  0  0  0  0  0
   15.4820   22.0224    0.2836 C   0  0  0  0  0  0  0  0  0  0  0  0
   15.8264   23.3265    0.5099 C   0  0  0  0  0  0  0  0  0  0  0  0
   15.3131   24.3790   -0.2778 C   0  0  0  0  0  0  0  0  0  0  0  0
   16.0042   20.9144    1.0792 C   0  0  0  0  0  0  0  0  0  0  0  0
   15.5003   19.6302    0.9773 O   0  0  0  0  0  0  0  0  0  0  0  0
   16.9383   21.1434    1.8770 O   0  0  0  0  0  0  0  0  0  0  0  0
   15.3896   19.2259    0.0344 H   0  0  0  0  0  0  0  0  0  0  0  0
   12.1257   28.1089   -4.6584 C   0  0  0  0  0  0  0  0  0  0  0  0
   11.4963   29.0985   -3.9591 O   0  0  0  0  0  0  0  0  0  0  0  0
   10.5030   29.9832   -4.2753 C   0  0  0  0  0  0  0  0  0  0  0  0
   10.8237   31.1791   -4.3889 O   0  0  0  0  0  0  0  0  0  0  0  0
    9.1608   29.5789   -4.4599 N   0  0  0  0  0  0  0  0  0  0  0  0
    8.9317   28.5717   -4.3834 H   0  0  0  0  0  0  0  0  0  0  0  0
    8.1292   30.5264   -4.7447 C   0  0  0  0  0  0  0  0  0  0  0  0
    7.0383   30.5040   -3.6899 C   0  0  0  0  0  0  0  0  0  0  0  0
    7.4095   29.8722   -2.3973 C   0  0  0  0  0  0  0  0  0  0  0  0
    6.3831   29.2304   -3.3790 C   0  0  0  0  0  0  0  0  0  0  0  0
 15 16  1  0  0  0
 16 14  1  0  0  0
 14  8  1  0  0  0
  8  9  2  0  0  0
  9 10  1  0  0  0
 10 11  2  0  0  0
 11 12  1  0  0  0
 12 13  2  0  0  0
 12  1  1  0  0  0
  1  2  1  0  0  0
  2  3  2  0  0  0
  3 27  1  0  0  0
 27 28  1  0  0  0
 28 29  1  0  0  0
 29 30  2  0  0  0
 29 31  1  0  0  0
 31 33  1  0  0  0
 33 34  1  0  0  0
 34 35  1  0  0  0
 35 36  1  0  0  0
  3  4  1  0  0  0
  4  5  2  0  0  0
  4  6  1  0  0  0
  6  7  2  0  0  0
  7 17  1  0  0  0
 17 18  2  0  0  0
 18 19  1  0  0  0
 19 20  2  0  0  0
 20 21  1  0  0  0
 21 22  2  0  0  0
 20 23  1  0  0  0
 23 24  1  0  0  0
 23 25  2  0  0  0
 13  8  1  0  0  0
  7  1  1  0  0  0
 22 17  1  0  0  0
 36 34  1  0  0  0
 31 32  1  0  0  0
 24 26  1  0  0  0
M  END
> <minimizedAffinity>
3.49067

> <CNNscore>
0.7108860016

> <CNNaffinity>
7.0508179665

> <CNN_VS>
5.0123276711

> <CNNaffinity_variance>
0.4822899401

$$$$
[H]OC(=O)c1c([H])c([H])c(-c2nc(=O)c(C([H])([H])OC(=O)N([H])C([H])([H])C3([H])C([H])([H])C3([H])[H])c([H])n2-c2c([H])c([H])c([H])c(C([H])([H])OC([H])([H])[H])c2[H])c([H])c1[H]


 36 39  0  0  0  0  0  0  0  0999 V2000
   13.2727   24.3884   -0.5035 N   0  0  0  0  0  0  0  0  0  0  0  0
   12.6757   23.8658    0.6549 C   0  0  0  0  0  0  0  0  0  0  0  0
   11.3211   23.7629    0.7618 C   0  0  0  0  0  0  0  0  0  0  0  0
   10.5856   24.1883   -0.3028 C   0  0  0  0  0  0  0  0  0  0  0  0
    9.3155   24.1042   -0.2224 O   0  0  0  0  0  0  0  0  0  0  0  0
   11.1796   24.6735   -1.3852 N   0  0  0  0  0  0  0  0  0  0  0  0
   12.5506   24.7911   -1.5319 C   0  0  0  0  0  0  0  0  0  0  0  0
   16.7955   25.4399   -1.0956 C   0  0  0  0  0  0  0  0  0  0  0  0
   17.4242   24.7741   -0.0540 C   0  0  0  0  0  0  0  0  0  0  0  0
   16.7104   24.0245    0.8213 C   0  0  0  0  0  0  0  0  0  0  0  0
   15.3208   23.9245    0.6653 C   0  0  0  0  0  0  0  0  0  0  0  0
   14.6642   24.5814   -0.3731 C   0  0  0  0  0  0  0  0  0  0  0  0
   15.4135   25.3266   -1.2333 C   0  0  0  0  0  0  0  0  0  0  0  0
   17.6208   26.2662   -1.9970 C   0  0  0  0  0  0  0  0  0  0  0  0
   17.8595   27.7261   -3.6432 C   0  0  0  0  0  0  0  0  0  0  0  0
   16.9608   27.3063   -2.6242 O   0  0  0  0  0  0  0  0  0  0  0  0
   13.0478   25.3557   -2.7599 C   0  0  0  0  0  0  0  0  0  0  0  0
   14.0560   24.6279   -3.3985 C   0  0  0  0  0  0  0  0  0  0  0  0
   14.6739   25.0678   -4.5128 C   0  0  0  0  0  0  0  0  0  0  0  0
   14.3400   26.2684   -5.0855 C   0  0  0  0  0  0  0  0  0  0  0  0
   13.3559   26.9961   -4.4752 C   0  0  0  0  0  0  0  0  0  0  0  0
   12.7078   26.5389   -3.3080 C   0  0  0  0  0  0  0  0  0  0  0  0
   15.0214   26.7153   -6.2977 C   0  0  0  0  0  0  0  0  0  0  0  0
   15.1705   25.8993   -7.4046 O   0  0  0  0  0  0  0  0  0  0  0  0
   15.4827   27.8763   -6.3271 O   0  0  0  0  0  0  0  0  0  0  0  0
   14.3369   25.4047   -7.7585 H   0  0  0  0  0  0  0  0  0  0  0  0
   10.7101   23.2701    2.0266 C   0  0  0  0  0  0  0  0  0  0  0  0
   10.9376   21.9513    2.2980 O   0  0  0  0  0  0  0  0  0  0  0  0
   11.7387   21.0017    1.7272 C   0  0  0  0  0  0  0  0  0  0  0  0
   11.2216   19.8985    1.4785 O   0  0  0  0  0  0  0  0  0  0  0  0
   13.1011   21.2390    1.4329 N   0  0  0  0  0  0  0  0  0  0  0  0
   13.4942   22.1770    1.6288 H   0  0  0  0  0  0  0  0  0  0  0  0
   13.9330   20.2175    0.8785 C   0  0  0  0  0  0  0  0  0  0  0  0
   14.2018   20.4504   -0.5969 C   0  0  0  0  0  0  0  0  0  0  0  0
   13.3027   21.4261   -1.2660 C   0  0  0  0  0  0  0  0  0  0  0  0
   13.2648   19.9001   -1.5805 C   0  0  0  0  0  0  0  0  0  0  0  0
 15 16  1  0  0  0
 16 14  1  0  0  0
 14  8  1  0  0  0
  8  9  2  0  0  0
  9 10  1  0  0  0
 10 11  2  0  0  0
 11 12  1  0  0  0
 12 13  2  0  0  0
 12  1  1  0  0  0
  1  2  1  0  0  0
  2  3  2  0  0  0
  3 27  1  0  0  0
 27 28  1  0  0  0
 28 29  1  0  0  0
 29 30  2  0  0  0
 29 31  1  0  0  0
 31 33  1  0  0  0
 33 34  1  0  0  0
 34 35  1  0  0  0
 35 36  1  0  0  0
  3  4  1  0  0  0
  4  5  2  0  0  0
  4  6  1  0  0  0
  6  7  2  0  0  0
  7 17  1  0  0  0
 17 18  2  0  0  0
 18 19  1  0  0  0
 19 20  2  0  0  0
 20 21  1  0  0  0
 21 22  2  0  0  0
 20 23  1  0  0  0
 23 24  1  0  0  0
 23 25  2  0  0  0
 13  8  1  0  0  0
  7  1  1  0  0  0
 22 17  1  0  0  0
 36 34  1  0  0  0
 31 32  1  0  0  0
 24 26  1  0  0  0
M  END
> <minimizedAffinity>
-5.82035

> <CNNscore>
0.6398853064

> <CNNaffinity>
7.5176744461

> <CNN_VS>
4.8104496002

> <CNNaffinity_variance>
0.1670433283

$$$$
[H]OC(=O)c1c([H])c([H])c(-c2nc(=O)c(C([H])([H])OC(=O)N([H])C([H])([H])C3([H])C([H])([H])C3([H])[H])c([H])n2-c2c([H])c([H])c([H])c(C([H])([H])OC([H])([H])[H])c2[H])c([H])c1[H]


 36 39  0  0  0  0  0  0  0  0999 V2000
   13.3625   24.9219   -2.8044 N   0  0  0  0  0  0  0  0  0  0  0  0
   13.7926   25.4204   -4.0445 C   0  0  0  0  0  0  0  0  0  0  0  0
   13.2342   26.5406   -4.5833 C   0  0  0  0  0  0  0  0  0  0  0  0
   12.2485   27.1445   -3.8628 C   0  0  0  0  0  0  0  0  0  0  0  0
   11.7096   28.1926   -4.3504 O   0  0  0  0  0  0  0  0  0  0  0  0
   11.8671   26.6514   -2.6918 N   0  0  0  0  0  0  0  0  0  0  0  0
   12.4114   25.5191   -2.1115 C   0  0  0  0  0  0  0  0  0  0  0  0
   14.2370   21.7491   -1.0624 C   0  0  0  0  0  0  0  0  0  0  0  0
   15.2043   21.2582   -1.9266 C   0  0  0  0  0  0  0  0  0  0  0  0
   15.5396   21.9378   -3.0507 C   0  0  0  0  0  0  0  0  0  0  0  0
   14.8977   23.1510   -3.3362 C   0  0  0  0  0  0  0  0  0  0  0  0
   13.9239   23.6678   -2.4844 C   0  0  0  0  0  0  0  0  0  0  0  0
   13.6118   22.9573   -1.3644 C   0  0  0  0  0  0  0  0  0  0  0  0
   13.8919   20.9493    0.1281 C   0  0  0  0  0  0  0  0  0  0  0  0
   11.7173   20.5815    0.3140 C   0  0  0  0  0  0  0  0  0  0  0  0
   12.7794   21.3739    0.8302 O   0  0  0  0  0  0  0  0  0  0  0  0
   11.8794   25.0939   -0.8426 C   0  0  0  0  0  0  0  0  0  0  0  0
   10.7480   24.2751   -0.9022 C   0  0  0  0  0  0  0  0  0  0  0  0
   10.0922   23.8623    0.2007 C   0  0  0  0  0  0  0  0  0  0  0  0
   10.5074   24.2289    1.4553 C   0  0  0  0  0  0  0  0  0  0  0  0
   11.6127   25.0305    1.5350 C   0  0  0  0  0  0  0  0  0  0  0  0
   12.3009   25.4653    0.3823 C   0  0  0  0  0  0  0  0  0  0  0  0
    9.7814   23.7593    2.6325 C   0  0  0  0  0  0  0  0  0  0  0  0
   10.2124   22.6816    3.3849 O   0  0  0  0  0  0  0  0  0  0  0  0
    8.7356   24.3577    2.9642 O   0  0  0  0  0  0  0  0  0  0  0  0
   11.2008   22.6604    3.6802 H   0  0  0  0  0  0  0  0  0  0  0  0
   13.6594   27.0094   -5.9306 C   0  0  0  0  0  0  0  0  0  0  0  0
   14.9167   26.6265   -6.3011 O   0  0  0  0  0  0  0  0  0  0  0  0
   16.1674   27.0601   -5.9588 C   0  0  0  0  0  0  0  0  0  0  0  0
   17.1210   26.6262   -6.6285 O   0  0  0  0  0  0  0  0  0  0  0  0
   16.3906   27.9552   -4.8874 N   0  0  0  0  0  0  0  0  0  0  0  0
   15.5724   28.3178   -4.3660 H   0  0  0  0  0  0  0  0  0  0  0  0
   17.7103   28.3601   -4.5167 C   0  0  0  0  0  0  0  0  0  0  0  0
   18.1438   27.7318   -3.2051 C   0  0  0  0  0  0  0  0  0  0  0  0
   17.3078   26.5989   -2.7299 C   0  0  0  0  0  0  0  0  0  0  0  0
   17.3398   27.9780   -2.0046 C   0  0  0  0  0  0  0  0  0  0  0  0
 15 16  1  0  0  0
 16 14  1  0  0  0
 14  8  1  0  0  0
  8  9  2  0  0  0
  9 10  1  0  0  0
 10 11  2  0  0  0
 11 12  1  0  0  0
 12 13  2  0  0  0
 12  1  1  0  0  0
  1  2  1  0  0  0
  2  3  2  0  0  0
  3 27  1  0  0  0
 27 28  1  0  0  0
 28 29  1  0  0  0
 29 30  2  0  0  0
 29 31  1  0  0  0
 31 33  1  0  0  0
 33 34  1  0  0  0
 34 35  1  0  0  0
 35 36  1  0  0  0
  3  4  1  0  0  0
  4  5  2  0  0  0
  4  6  1  0  0  0
  6  7  2  0  0  0
  7 17  1  0  0  0
 17 18  2  0  0  0
 18 19  1  0  0  0
 19 20  2  0  0  0
 20 21  1  0  0  0
 21 22  2  0  0  0
 20 23  1  0  0  0
 23 24  1  0  0  0
 23 25  2  0  0  0
 13  8  1  0  0  0
  7  1  1  0  0  0
 22 17  1  0  0  0
 36 34  1  0  0  0
 31 32  1  0  0  0
 24 26  1  0  0  0
M  END
> <minimizedAffinity>
1.43909

> <CNNscore>
0.5811201930

> <CNNaffinity>
7.0604486465

> <CNN_VS>
4.1029691696

> <CNNaffinity_variance>
0.3782741427

$$$$
[H]OC(=O)c1c([H])c([H])c(-c2nc(=O)c(C([H])([H])OC(=O)N([H])C([H])([H])C3([H])C([H])([H])C3([H])[H])c([H])n2-c2c([H])c([H])c([H])c(C([H])([H])OC([H])([H])[H])c2[H])c([H])c1[H]


 36 39  0  0  0  0  0  0  0  0999 V2000
   14.0670   25.2471   -1.6364 N   0  0  0  0  0  0  0  0  0  0  0  0
   14.9059   26.0085   -2.4657 C   0  0  0  0  0  0  0  0  0  0  0  0
   14.3926   26.7896   -3.4574 C   0  0  0  0  0  0  0  0  0  0  0  0
   13.0379   26.7931   -3.5992 C   0  0  0  0  0  0  0  0  0  0  0  0
   12.5365   27.5147   -4.5236 O   0  0  0  0  0  0  0  0  0  0  0  0
   12.2716   26.0659   -2.7968 N   0  0  0  0  0  0  0  0  0  0  0  0
   12.7551   25.2635   -1.7782 C   0  0  0  0  0  0  0  0  0  0  0  0
   15.0260   22.3369    0.4793 C   0  0  0  0  0  0  0  0  0  0  0  0
   16.2253   22.8012    0.9988 C   0  0  0  0  0  0  0  0  0  0  0  0
   16.7081   24.0184    0.6482 C   0  0  0  0  0  0  0  0  0  0  0  0
   15.9811   24.8124   -0.2498 C   0  0  0  0  0  0  0  0  0  0  0  0
   14.7729   24.3712   -0.7852 C   0  0  0  0  0  0  0  0  0  0  0  0
   14.3187   23.1422   -0.4110 C   0  0  0  0  0  0  0  0  0  0  0  0
   14.5676   20.9911    0.8731 C   0  0  0  0  0  0  0  0  0  0  0  0
   12.4483   20.3537    0.8438 C   0  0  0  0  0  0  0  0  0  0  0  0
   13.4381   20.9549    1.6692 O   0  0  0  0  0  0  0  0  0  0  0  0
   11.7996   24.5166   -1.0017 C   0  0  0  0  0  0  0  0  0  0  0  0
   11.6485   24.9212    0.3277 C   0  0  0  0  0  0  0  0  0  0  0  0
   10.8509   24.2705    1.1981 C   0  0  0  0  0  0  0  0  0  0  0  0
   10.1364   23.1631    0.8185 C   0  0  0  0  0  0  0  0  0  0  0  0
   10.2711   22.7507   -0.4785 C   0  0  0  0  0  0  0  0  0  0  0  0
   11.1060   23.4290   -1.3919 C   0  0  0  0  0  0  0  0  0  0  0  0
    9.2739   22.4835    1.7817 C   0  0  0  0  0  0  0  0  0  0  0  0
    8.7417   23.1309    2.8821 O   0  0  0  0  0  0  0  0  0  0  0  0
    9.0130   21.2753    1.5975 O   0  0  0  0  0  0  0  0  0  0  0  0
    8.2759   24.0393    2.7321 H   0  0  0  0  0  0  0  0  0  0  0  0
   15.3067   27.5332   -4.3670 C   0  0  0  0  0  0  0  0  0  0  0  0
   15.5073   26.9469   -5.5838 O   0  0  0  0  0  0  0  0  0  0  0  0
   15.5407   25.6459   -6.0031 C   0  0  0  0  0  0  0  0  0  0  0  0
   15.5155   25.4446   -7.2298 O   0  0  0  0  0  0  0  0  0  0  0  0
   15.5919   24.5608   -5.0982 N   0  0  0  0  0  0  0  0  0  0  0  0
   15.6377   24.7636   -4.0835 H   0  0  0  0  0  0  0  0  0  0  0  0
   15.5798   23.2068   -5.5561 C   0  0  0  0  0  0  0  0  0  0  0  0
   15.7166   22.2237   -4.4081 C   0  0  0  0  0  0  0  0  0  0  0  0
   14.6516   21.1915   -4.3178 C   0  0  0  0  0  0  0  0  0  0  0  0
   14.8001   22.3356   -3.2699 C   0  0  0  0  0  0  0  0  0  0  0  0
 15 16  1  0  0  0
 16 14  1  0  0  0
 14  8  1  0  0  0
  8  9  2  0  0  0
  9 10  1  0  0  0
 10 11  2  0  0  0
 11 12  1  0  0  0
 12 13  2  0  0  0
 12  1  1  0  0  0
  1  2  1  0  0  0
  2  3  2  0  0  0
  3 27  1  0  0  0
 27 28  1  0  0  0
 28 29  1  0  0  0
 29 30  2  0  0  0
 29 31  1  0  0  0
 31 33  1  0  0  0
 33 34  1  0  0  0
 34 35  1  0  0  0
 35 36  1  0  0  0
  3  4  1  0  0  0
  4  5  2  0  0  0
  4  6  1  0  0  0
  6  7  2  0  0  0
  7 17  1  0  0  0
 17 18  2  0  0  0
 18 19  1  0  0  0
 19 20  2  0  0  0
 20 21  1  0  0  0
 21 22  2  0  0  0
 20 23  1  0  0  0
 23 24  1  0  0  0
 23 25  2  0  0  0
 13  8  1  0  0  0
  7  1  1  0  0  0
 22 17  1  0  0  0
 36 34  1  0  0  0
 31 32  1  0  0  0
 24 26  1  0  0  0
M  END
> <minimizedAffinity>
-3.46988

> <CNNscore>
0.5796337724

> <CNNaffinity>
7.4593415260

> <CNN_VS>
4.3236861229

> <CNNaffinity_variance>
0.1091697067

$$$$
[H]OC(=O)c1c([H])c([H])c(-c2nc(=O)c(C([H])([H])OC(=O)N([H])C([H])([H])C3([H])C([H])([H])C3([H])[H])c([H])n2-c2c([H])c([H])c([H])c(C([H])([H])OC([H])([H])[H])c2[H])c([H])c1[H]


 36 39  0  0  0  0  0  0  0  0999 V2000
   13.6167   27.0530   -3.5674 N   0  0  0  0  0  0  0  0  0  0  0  0
   13.5545   28.3129   -4.1838 C   0  0  0  0  0  0  0  0  0  0  0  0
   12.7758   29.3075   -3.6725 C   0  0  0  0  0  0  0  0  0  0  0  0
   12.0699   29.0181   -2.5441 C   0  0  0  0  0  0  0  0  0  0  0  0
   11.3318   29.9337   -2.0506 O   0  0  0  0  0  0  0  0  0  0  0  0
   12.1531   27.8190   -1.9827 N   0  0  0  0  0  0  0  0  0  0  0  0
   12.9339   26.7857   -2.4703 C   0  0  0  0  0  0  0  0  0  0  0  0
   15.2788   25.2425   -6.3647 C   0  0  0  0  0  0  0  0  0  0  0  0
   15.6428   24.0736   -5.7130 C   0  0  0  0  0  0  0  0  0  0  0  0
   15.3685   23.8990   -4.3969 C   0  0  0  0  0  0  0  0  0  0  0  0
   14.7081   24.9155   -3.6928 C   0  0  0  0  0  0  0  0  0  0  0  0
   14.3297   26.0988   -4.3233 C   0  0  0  0  0  0  0  0  0  0  0  0
   14.6224   26.2400   -5.6466 C   0  0  0  0  0  0  0  0  0  0  0  0
   15.6326   25.3881   -7.7895 C   0  0  0  0  0  0  0  0  0  0  0  0
   16.3736   27.3001   -6.9567 C   0  0  0  0  0  0  0  0  0  0  0  0
   16.4660   26.4486   -8.0919 O   0  0  0  0  0  0  0  0  0  0  0  0
   12.9065   25.5323   -1.7616 C   0  0  0  0  0  0  0  0  0  0  0  0
   11.6370   25.0482   -1.4328 C   0  0  0  0  0  0  0  0  0  0  0  0
   11.4534   23.9298   -0.7032 C   0  0  0  0  0  0  0  0  0  0  0  0
   12.5175   23.1988   -0.2402 C   0  0  0  0  0  0  0  0  0  0  0  0
   13.7684   23.6564   -0.5508 C   0  0  0  0  0  0  0  0  0  0  0  0
   13.9640   24.8275   -1.3135 C   0  0  0  0  0  0  0  0  0  0  0  0
   12.2875   21.9865    0.5413 C   0  0  0  0  0  0  0  0  0  0  0  0
   11.7451   20.8416   -0.0140 O   0  0  0  0  0  0  0  0  0  0  0  0
   12.5942   21.9925    1.7527 O   0  0  0  0  0  0  0  0  0  0  0  0
   12.1486   20.4927   -0.8973 H   0  0  0  0  0  0  0  0  0  0  0  0
   12.6733   30.6116   -4.3829 C   0  0  0  0  0  0  0  0  0  0  0  0
   11.4693   31.2426   -4.2534 O   0  0  0  0  0  0  0  0  0  0  0  0
   10.2172   30.9803   -4.7358 C   0  0  0  0  0  0  0  0  0  0  0  0
    9.8316   31.6529   -5.7080 O   0  0  0  0  0  0  0  0  0  0  0  0
    9.3765   29.9982   -4.1633 N   0  0  0  0  0  0  0  0  0  0  0  0
    9.7377   29.4378   -3.3707 H   0  0  0  0  0  0  0  0  0  0  0  0
    8.0533   29.7715   -4.6539 C   0  0  0  0  0  0  0  0  0  0  0  0
    6.9997   30.2321   -3.6634 C   0  0  0  0  0  0  0  0  0  0  0  0
    7.3588   30.0815   -2.2294 C   0  0  0  0  0  0  0  0  0  0  0  0
    6.2502   29.2229   -2.9098 C   0  0  0  0  0  0  0  0  0  0  0  0
 15 16  1  0  0  0
 16 14  1  0  0  0
 14  8  1  0  0  0
  8  9  2  0  0  0
  9 10  1  0  0  0
 10 11  2  0  0  0
 11 12  1  0  0  0
 12 13  2  0  0  0
 12  1  1  0  0  0
  1  2  1  0  0  0
  2  3  2  0  0  0
  3 27  1  0  0  0
 27 28  1  0  0  0
 28 29  1  0  0  0
 29 30  2  0  0  0
 29 31  1  0  0  0
 31 33  1  0  0  0
 33 34  1  0  0  0
 34 35  1  0  0  0
 35 36  1  0  0  0
  3  4  1  0  0  0
  4  5  2  0  0  0
  4  6  1  0  0  0
  6  7  2  0  0  0
  7 17  1  0  0  0
 17 18  2  0  0  0
 18 19  1  0  0  0
 19 20  2  0  0  0
 20 21  1  0  0  0
 21 22  2  0  0  0
 20 23  1  0  0  0
 23 24  1  0  0  0
 23 25  2  0  0  0
 13  8  1  0  0  0
  7  1  1  0  0  0
 22 17  1  0  0  0
 36 34  1  0  0  0
 31 32  1  0  0  0
 24 26  1  0  0  0
M  END
> <minimizedAffinity>
14.82570

> <CNNscore>
0.5629237294

> <CNNaffinity>
6.5451407433

> <CNN_VS>
3.6844151020

> <CNNaffinity_variance>
0.4550377727

$$$$
[H]OC(=O)c1c([H])c([H])c(-c2nc(=O)c(C([H])([H])OC(=O)N([H])C([H])([H])C3([H])C([H])([H])C3([H])[H])c([H])n2-c2c([H])c([H])c([H])c(C([H])([H])OC([H])([H])[H])c2[H])c([H])c1[H]


 36 39  0  0  0  0  0  0  0  0999 V2000
   12.1035   23.3561   -0.5087 N   0  0  0  0  0  0  0  0  0  0  0  0
   11.4100   22.7792    0.5671 C   0  0  0  0  0  0  0  0  0  0  0  0
   10.8205   23.5548    1.5200 C   0  0  0  0  0  0  0  0  0  0  0  0
   10.9378   24.9040    1.3745 C   0  0  0  0  0  0  0  0  0  0  0  0
   10.3964   25.6487    2.2572 O   0  0  0  0  0  0  0  0  0  0  0  0
   11.5961   25.4189    0.3443 N   0  0  0  0  0  0  0  0  0  0  0  0
   12.2049   24.6649   -0.6436 C   0  0  0  0  0  0  0  0  0  0  0  0
   14.3946   21.7664   -2.9763 C   0  0  0  0  0  0  0  0  0  0  0  0
   13.9812   20.4465   -2.8738 C   0  0  0  0  0  0  0  0  0  0  0  0
   12.9990   20.0924   -2.0090 C   0  0  0  0  0  0  0  0  0  0  0  0
   12.3978   21.0773   -1.2129 C   0  0  0  0  0  0  0  0  0  0  0  0
   12.7926   22.4107   -1.2971 C   0  0  0  0  0  0  0  0  0  0  0  0
   13.7833   22.7298   -2.1765 C   0  0  0  0  0  0  0  0  0  0  0  0
   15.4897   22.0856   -3.9118 C   0  0  0  0  0  0  0  0  0  0  0  0
   15.4735   23.9367   -5.1250 C   0  0  0  0  0  0  0  0  0  0  0  0
   15.9291   23.3961   -3.8911 O   0  0  0  0  0  0  0  0  0  0  0  0
   12.9004   25.3674   -1.6908 C   0  0  0  0  0  0  0  0  0  0  0  0
   14.2868   25.4639   -1.5404 C   0  0  0  0  0  0  0  0  0  0  0  0
   15.0630   26.1575   -2.3968 C   0  0  0  0  0  0  0  0  0  0  0  0
   14.5251   26.8126   -3.4749 C   0  0  0  0  0  0  0  0  0  0  0  0
   13.1698   26.7308   -3.6394 C   0  0  0  0  0  0  0  0  0  0  0  0
   12.3542   26.0064   -2.7441 C   0  0  0  0  0  0  0  0  0  0  0  0
   15.3924   27.5495   -4.3905 C   0  0  0  0  0  0  0  0  0  0  0  0
   16.5591   28.1623   -3.9703 O   0  0  0  0  0  0  0  0  0  0  0  0
   15.0613   27.6238   -5.5932 O   0  0  0  0  0  0  0  0  0  0  0  0
   17.2170   27.6118   -3.3969 H   0  0  0  0  0  0  0  0  0  0  0  0
   10.1506   22.9186    2.6872 C   0  0  0  0  0  0  0  0  0  0  0  0
   10.5691   21.6494    2.9675 O   0  0  0  0  0  0  0  0  0  0  0  0
   11.5037   20.8251    2.4049 C   0  0  0  0  0  0  0  0  0  0  0  0
   11.1105   19.7197    1.9932 O   0  0  0  0  0  0  0  0  0  0  0  0
   12.8653   21.1896    2.2949 N   0  0  0  0  0  0  0  0  0  0  0  0
   13.1552   22.1278    2.6243 H   0  0  0  0  0  0  0  0  0  0  0  0
   13.8347   20.2946    1.7452 C   0  0  0  0  0  0  0  0  0  0  0  0
   14.7738   21.0027    0.7861 C   0  0  0  0  0  0  0  0  0  0  0  0
   16.1385   21.2733    1.3080 C   0  0  0  0  0  0  0  0  0  0  0  0
   15.1067   22.4086    1.0331 C   0  0  0  0  0  0  0  0  0  0  0  0
 15 16  1  0  0  0
 16 14  1  0  0  0
 14  8  1  0  0  0
  8  9  2  0  0  0
  9 10  1  0  0  0
 10 11  2  0  0  0
 11 12  1  0  0  0
 12 13  2  0  0  0
 12  1  1  0  0  0
  1  2  1  0  0  0
  2  3  2  0  0  0
  3 27  1  0  0  0
 27 28  1  0  0  0
 28 29  1  0  0  0
 29 30  2  0  0  0
 29 31  1  0  0  0
 31 33  1  0  0  0
 33 34  1  0  0  0
 34 35  1  0  0  0
 35 36  1  0  0  0
  3  4  1  0  0  0
  4  5  2  0  0  0
  4  6  1  0  0  0
  6  7  2  0  0  0
  7 17  1  0  0  0
 17 18  2  0  0  0
 18 19  1  0  0  0
 19 20  2  0  0  0
 20 21  1  0  0  0
 21 22  2  0  0  0
 20 23  1  0  0  0
 23 24  1  0  0  0
 23 25  2  0  0  0
 13  8  1  0  0  0
  7  1  1  0  0  0
 22 17  1  0  0  0
 36 34  1  0  0  0
 31 32  1  0  0  0
 24 26  1  0  0  0
M  END
> <minimizedAffinity>
-1.20474

> <CNNscore>
0.5367431045

> <CNNaffinity>
7.0459184647

> <CNN_VS>
3.7818481922

> <CNNaffinity_variance>
0.2181845009

$$$$
[H]OC(=O)c1c([H])c([H])c(-c2nc(=O)c(C([H])([H])OC(=O)N([H])C([H])([H])C3([H])C([H])([H])C3([H])[H])c([H])n2-c2c([H])c([H])c([H])c(C([H])([H])OC([H])([H])[H])c2[H])c([H])c1[H]


 36 39  0  0  0  0  0  0  0  0999 V2000
   13.6830   27.2406   -3.8460 N   0  0  0  0  0  0  0  0  0  0  0  0
   13.5858   28.5204   -4.4153 C   0  0  0  0  0  0  0  0  0  0  0  0
   12.8419   29.4975   -3.8246 C   0  0  0  0  0  0  0  0  0  0  0  0
   12.2058   29.1707   -2.6654 C   0  0  0  0  0  0  0  0  0  0  0  0
   11.5011   30.0694   -2.0975 O   0  0  0  0  0  0  0  0  0  0  0  0
   12.3207   27.9536   -2.1502 N   0  0  0  0  0  0  0  0  0  0  0  0
   13.0680   26.9370   -2.7187 C   0  0  0  0  0  0  0  0  0  0  0  0
   15.4819   24.2304   -5.0984 C   0  0  0  0  0  0  0  0  0  0  0  0
   15.7485   24.6324   -6.3987 C   0  0  0  0  0  0  0  0  0  0  0  0
   15.3326   25.8411   -6.8502 C   0  0  0  0  0  0  0  0  0  0  0  0
   14.6261   26.6902   -5.9868 C   0  0  0  0  0  0  0  0  0  0  0  0
   14.3464   26.3121   -4.6754 C   0  0  0  0  0  0  0  0  0  0  0  0
   14.7790   25.0898   -4.2563 C   0  0  0  0  0  0  0  0  0  0  0  0
   15.9318   22.8911   -4.6742 C   0  0  0  0  0  0  0  0  0  0  0  0
   14.8522   21.0272   -5.1831 C   0  0  0  0  0  0  0  0  0  0  0  0
   14.9413   22.0512   -4.2004 O   0  0  0  0  0  0  0  0  0  0  0  0
   13.0814   25.6608   -2.0516 C   0  0  0  0  0  0  0  0  0  0  0  0
   11.8528   24.9973   -1.9854 C   0  0  0  0  0  0  0  0  0  0  0  0
   11.6917   23.8328   -1.3258 C   0  0  0  0  0  0  0  0  0  0  0  0
   12.7394   23.2306   -0.6774 C   0  0  0  0  0  0  0  0  0  0  0  0
   13.9502   23.8645   -0.7300 C   0  0  0  0  0  0  0  0  0  0  0  0
   14.1221   25.0842   -1.4187 C   0  0  0  0  0  0  0  0  0  0  0  0
   12.5364   21.9646    0.0222 C   0  0  0  0  0  0  0  0  0  0  0  0
   13.3591   20.8706   -0.1768 O   0  0  0  0  0  0  0  0  0  0  0  0
   11.5841   21.8756    0.8265 O   0  0  0  0  0  0  0  0  0  0  0  0
   14.3795   21.0163   -0.1315 H   0  0  0  0  0  0  0  0  0  0  0  0
   12.6989   30.8244   -4.4837 C   0  0  0  0  0  0  0  0  0  0  0  0
   11.4863   31.4263   -4.3048 O   0  0  0  0  0  0  0  0  0  0  0  0
   10.2360   31.1809   -4.8005 C   0  0  0  0  0  0  0  0  0  0  0  0
    9.8498   31.8936   -5.7434 O   0  0  0  0  0  0  0  0  0  0  0  0
    9.3978   30.1720   -4.2727 N   0  0  0  0  0  0  0  0  0  0  0  0
    9.7596   29.5791   -3.5044 H   0  0  0  0  0  0  0  0  0  0  0  0
    8.0762   29.9622   -4.7752 C   0  0  0  0  0  0  0  0  0  0  0  0
    7.0197   30.3298   -3.7496 C   0  0  0  0  0  0  0  0  0  0  0  0
    7.3450   29.9831   -2.3418 C   0  0  0  0  0  0  0  0  0  0  0  0
    6.2214   29.2601   -3.1441 C   0  0  0  0  0  0  0  0  0  0  0  0
 15 16  1  0  0  0
 16 14  1  0  0  0
 14  8  1  0  0  0
  8  9  2  0  0  0
  9 10  1  0  0  0
 10 11  2  0  0  0
 11 12  1  0  0  0
 12 13  2  0  0  0
 12  1  1  0  0  0
  1  2  1  0  0  0
  2  3  2  0  0  0
  3 27  1  0  0  0
 27 28  1  0  0  0
 28 29  1  0  0  0
 29 30  2  0  0  0
 29 31  1  0  0  0
 31 33  1  0  0  0
 33 34  1  0  0  0
 34 35  1  0  0  0
 35 36  1  0  0  0
  3  4  1  0  0  0
  4  5  2  0  0  0
  4  6  1  0  0  0
  6  7  2  0  0  0
  7 17  1  0  0  0
 17 18  2  0  0  0
 18 19  1  0  0  0
 19 20  2  0  0  0
 20 21  1  0  0  0
 21 22  2  0  0  0
 20 23  1  0  0  0
 23 24  1  0  0  0
 23 25  2  0  0  0
 13  8  1  0  0  0
  7  1  1  0  0  0
 22 17  1  0  0  0
 36 34  1  0  0  0
 31 32  1  0  0  0
 24 26  1  0  0  0
M  END
> <minimizedAffinity>
15.47913

> <CNNscore>
0.5056686401

> <CNNaffinity>
6.3192787170

> <CNN_VS>
3.1954610348

> <CNNaffinity_variance>
0.4417220056

$$$$
[H]OC(=O)c1c([H])c([H])c(-c2nc(=O)c(C([H])([H])OC(=O)N([H])C([H])([H])C3([H])C([H])([H])C3([H])[H])c([H])n2-c2c([H])c([H])c([H])c(C([H])([H])OC([H])([H])[H])c2[H])c([H])c1[H]


 36 39  0  0  0  0  0  0  0  0999 V2000
   14.1400   25.6505   -2.9486 N   0  0  0  0  0  0  0  0  0  0  0  0
   14.6210   24.5106   -2.2848 C   0  0  0  0  0  0  0  0  0  0  0  0
   13.8307   23.8161   -1.4187 C   0  0  0  0  0  0  0  0  0  0  0  0
   12.5637   24.2807   -1.2339 C   0  0  0  0  0  0  0  0  0  0  0  0
   11.8081   23.6475   -0.4246 O   0  0  0  0  0  0  0  0  0  0  0  0
   12.1372   25.3584   -1.8792 N   0  0  0  0  0  0  0  0  0  0  0  0
   12.9081   26.0877   -2.7673 C   0  0  0  0  0  0  0  0  0  0  0  0
   16.1765   27.1315   -5.6918 C   0  0  0  0  0  0  0  0  0  0  0  0
   17.2473   27.6220   -4.9594 C   0  0  0  0  0  0  0  0  0  0  0  0
   17.2853   27.4871   -3.6110 C   0  0  0  0  0  0  0  0  0  0  0  0
   16.2268   26.8424   -2.9557 C   0  0  0  0  0  0  0  0  0  0  0  0
   15.1400   26.3389   -3.6672 C   0  0  0  0  0  0  0  0  0  0  0  0
   15.1351   26.4932   -5.0210 C   0  0  0  0  0  0  0  0  0  0  0  0
   16.1759   27.3364   -7.1527 C   0  0  0  0  0  0  0  0  0  0  0  0
   15.2257   25.5954   -8.1348 C   0  0  0  0  0  0  0  0  0  0  0  0
   16.4824   26.2223   -7.9115 O   0  0  0  0  0  0  0  0  0  0  0  0
   12.3118   27.2478   -3.3775 C   0  0  0  0  0  0  0  0  0  0  0  0
   12.5863   28.4695   -2.7562 C   0  0  0  0  0  0  0  0  0  0  0  0
   12.0369   29.6308   -3.1644 C   0  0  0  0  0  0  0  0  0  0  0  0
   11.1689   29.6740   -4.2253 C   0  0  0  0  0  0  0  0  0  0  0  0
   10.8868   28.4887   -4.8465 C   0  0  0  0  0  0  0  0  0  0  0  0
   11.4594   27.2710   -4.4211 C   0  0  0  0  0  0  0  0  0  0  0  0
   10.5955   30.9485   -4.6499 C   0  0  0  0  0  0  0  0  0  0  0  0
    9.3227   31.0447   -5.1829 O   0  0  0  0  0  0  0  0  0  0  0  0
   11.2856   31.9827   -4.5239 O   0  0  0  0  0  0  0  0  0  0  0  0
    8.5498   30.5821   -4.6796 H   0  0  0  0  0  0  0  0  0  0  0  0
   14.3859   22.6520   -0.6753 C   0  0  0  0  0  0  0  0  0  0  0  0
   13.6206   21.5222   -0.7240 O   0  0  0  0  0  0  0  0  0  0  0  0
   12.6268   21.0284    0.0747 C   0  0  0  0  0  0  0  0  0  0  0  0
   11.8879   20.1556   -0.4135 O   0  0  0  0  0  0  0  0  0  0  0  0
   12.4239   21.4830    1.3980 N   0  0  0  0  0  0  0  0  0  0  0  0
   13.0729   22.1924    1.7831 H   0  0  0  0  0  0  0  0  0  0  0  0
   11.3503   20.9867    2.2006 C   0  0  0  0  0  0  0  0  0  0  0  0
   11.8369   20.5047    3.5548 C   0  0  0  0  0  0  0  0  0  0  0  0
   11.9835   19.0328    3.6966 C   0  0  0  0  0  0  0  0  0  0  0  0
   10.8859   19.8417    4.4516 C   0  0  0  0  0  0  0  0  0  0  0  0
 15 16  1  0  0  0
 16 14  1  0  0  0
 14  8  1  0  0  0
  8  9  2  0  0  0
  9 10  1  0  0  0
 10 11  2  0  0  0
 11 12  1  0  0  0
 12 13  2  0  0  0
 12  1  1  0  0  0
  1  2  1  0  0  0
  2  3  2  0  0  0
  3 27  1  0  0  0
 27 28  1  0  0  0
 28 29  1  0  0  0
 29 30  2  0  0  0
 29 31  1  0  0  0
 31 33  1  0  0  0
 33 34  1  0  0  0
 34 35  1  0  0  0
 35 36  1  0  0  0
  3  4  1  0  0  0
  4  5  2  0  0  0
  4  6  1  0  0  0
  6  7  2  0  0  0
  7 17  1  0  0  0
 17 18  2  0  0  0
 18 19  1  0  0  0
 19 20  2  0  0  0
 20 21  1  0  0  0
 21 22  2  0  0  0
 20 23  1  0  0  0
 23 24  1  0  0  0
 23 25  2  0  0  0
 13  8  1  0  0  0
  7  1  1  0  0  0
 22 17  1  0  0  0
 36 34  1  0  0  0
 31 32  1  0  0  0
 24 26  1  0  0  0
M  END
> <minimizedAffinity>
7.49870

> <CNNscore>
0.4794347882

> <CNNaffinity>
6.7710418701

> <CNN_VS>
3.2462730408

> <CNNaffinity_variance>
0.4592846036

$$$$
[H]OC(=O)c1c([H])c([H])c(-c2nc(=O)c(C([H])([H])OC(=O)N([H])C([H])([H])C3([H])C([H])([H])C3([H])[H])c([H])n2-c2c([H])c([H])c([H])c(C([H])([H])OC([H])([H])[H])c2[H])c([H])c1[H]


 36 39  0  0  0  0  0  0  0  0999 V2000
   13.8002   22.5574   -1.3448 N   0  0  0  0  0  0  0  0  0  0  0  0
   13.9176   21.4233   -0.5255 C   0  0  0  0  0  0  0  0  0  0  0  0
   13.4639   21.4349    0.7594 C   0  0  0  0  0  0  0  0  0  0  0  0
   12.8963   22.5915    1.2013 C   0  0  0  0  0  0  0  0  0  0  0  0
   12.4681   22.6253    2.4023 O   0  0  0  0  0  0  0  0  0  0  0  0
   12.7961   23.6450    0.4013 N   0  0  0  0  0  0  0  0  0  0  0  0
   13.2420   23.6707   -0.9085 C   0  0  0  0  0  0  0  0  0  0  0  0
   15.5454   23.2987   -4.5496 C   0  0  0  0  0  0  0  0  0  0  0  0
   15.6815   22.0135   -5.0530 C   0  0  0  0  0  0  0  0  0  0  0  0
   15.2332   20.9431   -4.3524 C   0  0  0  0  0  0  0  0  0  0  0  0
   14.6251   21.1448   -3.1055 C   0  0  0  0  0  0  0  0  0  0  0  0
   14.4740   22.4250   -2.5772 C   0  0  0  0  0  0  0  0  0  0  0  0
   14.9371   23.4772   -3.3087 C   0  0  0  0  0  0  0  0  0  0  0  0
   16.0812   24.4211   -5.3430 C   0  0  0  0  0  0  0  0  0  0  0  0
   15.7555   26.5339   -5.9159 C   0  0  0  0  0  0  0  0  0  0  0  0
   15.1361   25.2538   -5.9124 O   0  0  0  0  0  0  0  0  0  0  0  0
   13.0810   24.8959   -1.6480 C   0  0  0  0  0  0  0  0  0  0  0  0
   11.7903   25.1568   -2.1172 C   0  0  0  0  0  0  0  0  0  0  0  0
   11.5008   26.2225   -2.8900 C   0  0  0  0  0  0  0  0  0  0  0  0
   12.4710   27.1184   -3.2603 C   0  0  0  0  0  0  0  0  0  0  0  0
   13.7409   26.8803   -2.8118 C   0  0  0  0  0  0  0  0  0  0  0  0
   14.0476   25.7650   -2.0034 C   0  0  0  0  0  0  0  0  0  0  0  0
   12.1257   28.2685   -4.0919 C   0  0  0  0  0  0  0  0  0  0  0  0
   12.6356   29.5320   -3.8534 O   0  0  0  0  0  0  0  0  0  0  0  0
   11.3419   28.0960   -5.0498 O   0  0  0  0  0  0  0  0  0  0  0  0
   13.6535   29.6258   -3.7131 H   0  0  0  0  0  0  0  0  0  0  0  0
   13.6623   20.2432    1.6291 C   0  0  0  0  0  0  0  0  0  0  0  0
   12.5155   19.7147    2.1488 O   0  0  0  0  0  0  0  0  0  0  0  0
   11.2155   20.1374    2.1722 C   0  0  0  0  0  0  0  0  0  0  0  0
   10.5561   20.0015    1.1268 O   0  0  0  0  0  0  0  0  0  0  0  0
   10.6289   20.7159    3.3212 N   0  0  0  0  0  0  0  0  0  0  0  0
   11.1978   20.7912    4.1834 H   0  0  0  0  0  0  0  0  0  0  0  0
    9.2817   21.1935    3.3105 C   0  0  0  0  0  0  0  0  0  0  0  0
    9.2029   22.6443    2.8722 C   0  0  0  0  0  0  0  0  0  0  0  0
    9.3372   23.6500    3.9578 C   0  0  0  0  0  0  0  0  0  0  0  0
    7.9986   23.4148    3.1950 C   0  0  0  0  0  0  0  0  0  0  0  0
 15 16  1  0  0  0
 16 14  1  0  0  0
 14  8  1  0  0  0
  8  9  2  0  0  0
  9 10  1  0  0  0
 10 11  2  0  0  0
 11 12  1  0  0  0
 12 13  2  0  0  0
 12  1  1  0  0  0
  1  2  1  0  0  0
  2  3  2  0  0  0
  3 27  1  0  0  0
 27 28  1  0  0  0
 28 29  1  0  0  0
 29 30  2  0  0  0
 29 31  1  0  0  0
 31 33  1  0  0  0
 33 34  1  0  0  0
 34 35  1  0  0  0
 35 36  1  0  0  0
  3  4  1  0  0  0
  4  5  2  0  0  0
  4  6  1  0  0  0
  6  7  2  0  0  0
  7 17  1  0  0  0
 17 18  2  0  0  0
 18 19  1  0  0  0
 19 20  2  0  0  0
 20 21  1  0  0  0
 21 22  2  0  0  0
 20 23  1  0  0  0
 23 24  1  0  0  0
 23 25  2  0  0  0
 13  8  1  0  0  0
  7  1  1  0  0  0
 22 17  1  0  0  0
 36 34  1  0  0  0
 31 32  1  0  0  0
 24 26  1  0  0  0
M  END
> <minimizedAffinity>
5.87091

> <CNNscore>
0.4684430957

> <CNNaffinity>
6.9904685020

> <CNN_VS>
3.2746367455

> <CNNaffinity_variance>
0.6333228350

$$$$
[H]c1nn(-c2c([H])c([H])c(Br)c([H])c2[H])c(C([H])([H])[H])c1C(=O)N([H])C([H])(N([H])C(=O)c1c([H])c([H])c2c([H])c([H])c([H])c([H])c2c1[H])C1([H])C([H])([H])C([H])([H])C([H])([H])C1([H])[H]


 37 41  0  0  0  0  0  0  0  0999 V2000
   13.8510   26.0096   -3.8857 C   0  0  0  0  0  0  0  0  0  0  0  0
   14.9331   27.0181   -4.0371 C   0  0  0  0  0  0  0  0  0  0  0  0
   16.2642   26.3265   -3.8385 C   0  0  0  0  0  0  0  0  0  0  0  0
   17.2130   27.2096   -4.6208 C   0  0  0  0  0  0  0  0  0  0  0  0
   16.4349   27.4527   -5.8928 C   0  0  0  0  0  0  0  0  0  0  0  0
   15.0236   27.6666   -5.3773 C   0  0  0  0  0  0  0  0  0  0  0  0
   13.7939   24.1157   -2.2193 C   0  0  0  0  0  0  0  0  0  0  0  0
   13.9542   23.3295   -3.2182 O   0  0  0  0  0  0  0  0  0  0  0  0
   13.7383   25.4685   -2.5452 N   0  0  0  0  0  0  0  0  0  0  0  0
   13.5977   26.1746   -1.7944 H   0  0  0  0  0  0  0  0  0  0  0  0
   11.2464   22.8261   -0.8006 C   0  0  0  0  0  0  0  0  0  0  0  0
   12.6134   22.9096   -0.2784 C   0  0  0  0  0  0  0  0  0  0  0  0
   13.6924   23.4973   -0.9125 C   0  0  0  0  0  0  0  0  0  0  0  0
   14.7868   23.3712   -0.0539 C   0  0  0  0  0  0  0  0  0  0  0  0
   14.3500   22.7339    1.0295 N   0  0  0  0  0  0  0  0  0  0  0  0
   13.0718   22.4605    0.9012 N   0  0  0  0  0  0  0  0  0  0  0  0
   12.3228   21.7733    1.9169 C   0  0  0  0  0  0  0  0  0  0  0  0
   12.6038   20.4584    2.2327 C   0  0  0  0  0  0  0  0  0  0  0  0
   11.8862   19.8170    3.2024 C   0  0  0  0  0  0  0  0  0  0  0  0
   10.8854   20.4858    3.8605 C   0  0  0  0  0  0  0  0  0  0  0  0
    9.8621   19.6196    5.2274 Br  0  0  0  0  0  0  0  0  0  0  0  0
   10.6021   21.8176    3.5392 C   0  0  0  0  0  0  0  0  0  0  0  0
   11.3223   22.4639    2.5644 C   0  0  0  0  0  0  0  0  0  0  0  0
   12.5565   26.5165   -4.3755 N   0  0  0  0  0  0  0  0  0  0  0  0
   12.1239   27.8280   -4.1175 C   0  0  0  0  0  0  0  0  0  0  0  0
   12.8359   28.6107   -3.4532 O   0  0  0  0  0  0  0  0  0  0  0  0
   11.9259   25.8938   -4.9297 H   0  0  0  0  0  0  0  0  0  0  0  0
   10.8472   28.3086   -4.6095 C   0  0  0  0  0  0  0  0  0  0  0  0
   10.6133   29.6938   -4.6387 C   0  0  0  0  0  0  0  0  0  0  0  0
    9.4027   30.1303   -5.1130 C   0  0  0  0  0  0  0  0  0  0  0  0
    8.4155   29.2628   -5.5583 C   0  0  0  0  0  0  0  0  0  0  0  0
    7.2083   29.7582   -6.0251 C   0  0  0  0  0  0  0  0  0  0  0  0
    6.2675   28.8601   -6.4494 C   0  0  0  0  0  0  0  0  0  0  0  0
    6.4717   27.4993   -6.4309 C   0  0  0  0  0  0  0  0  0  0  0  0
    7.6924   27.0437   -5.9569 C   0  0  0  0  0  0  0  0  0  0  0  0
    8.6711   27.9130   -5.5186 C   0  0  0  0  0  0  0  0  0  0  0  0
    9.8925   27.4454   -5.0416 C   0  0  0  0  0  0  0  0  0  0  0  0
 11 12  1  0  0  0
 12 13  2  0  0  0
 13 14  1  0  0  0
 14 15  2  0  0  0
 15 16  1  0  0  0
 16 17  1  0  0  0
 17 18  2  0  0  0
 18 19  1  0  0  0
 19 20  2  0  0  0
 20 21  1  0  0  0
 20 22  1  0  0  0
 22 23  2  0  0  0
 13  7  1  0  0  0
  7  8  2  0  0  0
  7  9  1  0  0  0
  9  1  1  0  0  0
  1 24  1  0  0  0
 24 25  1  0  0  0
 25 26  2  0  0  0
 25 28  1  0  0  0
 28 29  2  0  0  0
 29 30  1  0  0  0
 30 31  2  0  0  0
 31 32  1  0  0  0
 32 33  2  0  0  0
 33 34  1  0  0  0
 34 35  2  0  0  0
 35 36  1  0  0  0
 36 37  2  0  0  0
  1  2  1  0  0  0
  2  3  1  0  0  0
  3  4  1  0  0  0
  4  5  1  0  0  0
  5  6  1  0  0  0
 16 12  1  0  0  0
 23 17  1  0  0  0
 37 28  1  0  0  0
  6  2  1  0  0  0
 36 31  1  0  0  0
  9 10  1  0  0  0
 24 27  1  0  0  0
M  END
> <minimizedAffinity>
15.59404

> <CNNscore>
0.5196744800

> <CNNaffinity>
7.3177595139

> <CNN_VS>
3.8028528690

> <CNNaffinity_variance>
0.7606139779

$$$$
[H]c1nn(-c2c([H])c([H])c(Br)c([H])c2[H])c(C([H])([H])[H])c1C(=O)N([H])C([H])(N([H])C(=O)c1c([H])c([H])c2c([H])c([H])c([H])c([H])c2c1[H])C1([H])C([H])([H])C([H])([H])C([H])([H])C1([H])[H]


 37 41  0  0  0  0  0  0  0  0999 V2000
   15.0750   23.6350   -1.4770 C   0  0  0  0  0  0  0  0  0  0  0  0
   16.2397   23.2772   -0.6248 C   0  0  0  0  0  0  0  0  0  0  0  0
   17.4617   23.9925   -1.1581 C   0  0  0  0  0  0  0  0  0  0  0  0
   18.3437   24.0948    0.0682 C   0  0  0  0  0  0  0  0  0  0  0  0
   17.3572   24.5324    1.1255 C   0  0  0  0  0  0  0  0  0  0  0  0
   16.1383   23.6867    0.8060 C   0  0  0  0  0  0  0  0  0  0  0  0
   13.3383   24.0587    0.3038 C   0  0  0  0  0  0  0  0  0  0  0  0
   13.5785   22.8700    0.7172 O   0  0  0  0  0  0  0  0  0  0  0  0
   14.0857   24.4532   -0.8031 N   0  0  0  0  0  0  0  0  0  0  0  0
   13.9439   25.3998   -1.2104 H   0  0  0  0  0  0  0  0  0  0  0  0
   10.6117   23.0414    1.6064 C   0  0  0  0  0  0  0  0  0  0  0  0
   11.1602   24.4004    1.6284 C   0  0  0  0  0  0  0  0  0  0  0  0
   12.3378   24.8127    1.0325 C   0  0  0  0  0  0  0  0  0  0  0  0
   12.4624   26.1813    1.2819 C   0  0  0  0  0  0  0  0  0  0  0  0
   11.3969   26.5375    1.9949 N   0  0  0  0  0  0  0  0  0  0  0  0
   10.6284   25.4925    2.2011 N   0  0  0  0  0  0  0  0  0  0  0  0
    9.4011   25.5704    2.9444 C   0  0  0  0  0  0  0  0  0  0  0  0
    8.9665   26.7737    3.4647 C   0  0  0  0  0  0  0  0  0  0  0  0
    7.7963   26.8350    4.1672 C   0  0  0  0  0  0  0  0  0  0  0  0
    7.0556   25.6954    4.3529 C   0  0  0  0  0  0  0  0  0  0  0  0
    5.4090   25.7451    5.3289 Br  0  0  0  0  0  0  0  0  0  0  0  0
    7.4974   24.4774    3.8254 C   0  0  0  0  0  0  0  0  0  0  0  0
    8.6737   24.4138    3.1190 C   0  0  0  0  0  0  0  0  0  0  0  0
   15.4951   24.2367   -2.7554 N   0  0  0  0  0  0  0  0  0  0  0  0
   14.9008   25.4054   -3.2598 C   0  0  0  0  0  0  0  0  0  0  0  0
   13.9841   25.9730   -2.6288 O   0  0  0  0  0  0  0  0  0  0  0  0
   16.2540   23.7913   -3.3196 H   0  0  0  0  0  0  0  0  0  0  0  0
   15.3294   25.9830   -4.5191 C   0  0  0  0  0  0  0  0  0  0  0  0
   15.4404   27.3803   -4.6176 C   0  0  0  0  0  0  0  0  0  0  0  0
   15.8531   27.9084   -5.8143 C   0  0  0  0  0  0  0  0  0  0  0  0
   16.1601   27.1209   -6.9147 C   0  0  0  0  0  0  0  0  0  0  0  0
   16.5698   27.7076   -8.1015 C   0  0  0  0  0  0  0  0  0  0  0  0
   16.8573   26.8863   -9.1573 C   0  0  0  0  0  0  0  0  0  0  0  0
   16.7564   25.5157   -9.0866 C   0  0  0  0  0  0  0  0  0  0  0  0
   16.3434   24.9675   -7.8820 C   0  0  0  0  0  0  0  0  0  0  0  0
   16.0428   25.7572   -6.7903 C   0  0  0  0  0  0  0  0  0  0  0  0
   15.6261   25.1973   -5.5858 C   0  0  0  0  0  0  0  0  0  0  0  0
 11 12  1  0  0  0
 12 13  2  0  0  0
 13 14  1  0  0  0
 14 15  2  0  0  0
 15 16  1  0  0  0
 16 17  1  0  0  0
 17 18  2  0  0  0
 18 19  1  0  0  0
 19 20  2  0  0  0
 20 21  1  0  0  0
 20 22  1  0  0  0
 22 23  2  0  0  0
 13  7  1  0  0  0
  7  8  2  0  0  0
  7  9  1  0  0  0
  9  1  1  0  0  0
  1 24  1  0  0  0
 24 25  1  0  0  0
 25 26  2  0  0  0
 25 28  1  0  0  0
 28 29  2  0  0  0
 29 30  1  0  0  0
 30 31  2  0  0  0
 31 32  1  0  0  0
 32 33  2  0  0  0
 33 34  1  0  0  0
 34 35  2  0  0  0
 35 36  1  0  0  0
 36 37  2  0  0  0
  1  2  1  0  0  0
  2  3  1  0  0  0
  3  4  1  0  0  0
  4  5  1  0  0  0
  5  6  1  0  0  0
 16 12  1  0  0  0
 23 17  1  0  0  0
 37 28  1  0  0  0
  6  2  1  0  0  0
 36 31  1  0  0  0
  9 10  1  0  0  0
 24 27  1  0  0  0
M  END
> <minimizedAffinity>
11.98230

> <CNNscore>
0.4656829536

> <CNNaffinity>
7.2490234375

> <CNN_VS>
3.3757467270

> <CNNaffinity_variance>
0.7780393362

$$$$
[H]c1nn(-c2c([H])c([H])c(Br)c([H])c2[H])c(C([H])([H])[H])c1C(=O)N([H])C([H])(N([H])C(=O)c1c([H])c([H])c2c([H])c([H])c([H])c([H])c2c1[H])C1([H])C([H])([H])C([H])([H])C([H])([H])C1([H])[H]


 37 41  0  0  0  0  0  0  0  0999 V2000
   16.1802   23.1431   -0.4682 C   0  0  0  0  0  0  0  0  0  0  0  0
   16.8504   24.0375    0.5126 C   0  0  0  0  0  0  0  0  0  0  0  0
   17.1247   23.2466    1.7731 C   0  0  0  0  0  0  0  0  0  0  0  0
   18.3050   23.9819    2.3717 C   0  0  0  0  0  0  0  0  0  0  0  0
   19.1829   24.1991    1.1615 C   0  0  0  0  0  0  0  0  0  0  0  0
   18.1760   24.5751    0.0900 C   0  0  0  0  0  0  0  0  0  0  0  0
   13.6649   23.2150   -0.2804 C   0  0  0  0  0  0  0  0  0  0  0  0
   13.7169   24.2877   -0.9791 O   0  0  0  0  0  0  0  0  0  0  0  0
   14.9013   22.6314   -0.0153 N   0  0  0  0  0  0  0  0  0  0  0  0
   14.9502   21.7637    0.5563 H   0  0  0  0  0  0  0  0  0  0  0  0
   11.5846   21.3810   -1.8534 C   0  0  0  0  0  0  0  0  0  0  0  0
   11.4341   21.9564   -0.5137 C   0  0  0  0  0  0  0  0  0  0  0  0
   12.3492   22.7680    0.1311 C   0  0  0  0  0  0  0  0  0  0  0  0
   11.7946   23.1031    1.3684 C   0  0  0  0  0  0  0  0  0  0  0  0
   10.6078   22.5043    1.4291 N   0  0  0  0  0  0  0  0  0  0  0  0
   10.3921   21.8285    0.3237 N   0  0  0  0  0  0  0  0  0  0  0  0
    9.1886   21.0758    0.1005 C   0  0  0  0  0  0  0  0  0  0  0  0
    9.2400   19.8097   -0.4489 C   0  0  0  0  0  0  0  0  0  0  0  0
    8.0886   19.1031   -0.6535 C   0  0  0  0  0  0  0  0  0  0  0  0
    6.8818   19.6578   -0.3104 C   0  0  0  0  0  0  0  0  0  0  0  0
    5.2488   18.6949   -0.5796 Br  0  0  0  0  0  0  0  0  0  0  0  0
    6.8316   20.9404    0.2458 C   0  0  0  0  0  0  0  0  0  0  0  0
    7.9880   21.6523    0.4521 C   0  0  0  0  0  0  0  0  0  0  0  0
   16.0723   23.7702   -1.7978 N   0  0  0  0  0  0  0  0  0  0  0  0
   16.2524   25.1505   -1.9874 C   0  0  0  0  0  0  0  0  0  0  0  0
   16.5107   25.8948   -1.0179 O   0  0  0  0  0  0  0  0  0  0  0  0
   15.8510   23.1862   -2.6359 H   0  0  0  0  0  0  0  0  0  0  0  0
   16.1436   25.7485   -3.3042 C   0  0  0  0  0  0  0  0  0  0  0  0
   16.3634   27.1298   -3.4382 C   0  0  0  0  0  0  0  0  0  0  0  0
   16.2624   27.6769   -4.6919 C   0  0  0  0  0  0  0  0  0  0  0  0
   15.9549   26.9234   -5.8157 C   0  0  0  0  0  0  0  0  0  0  0  0
   15.8625   27.5284   -7.0591 C   0  0  0  0  0  0  0  0  0  0  0  0
   15.5534   26.7408   -8.1342 C   0  0  0  0  0  0  0  0  0  0  0  0
   15.3334   25.3864   -8.0296 C   0  0  0  0  0  0  0  0  0  0  0  0
   15.4354   24.8190   -6.7686 C   0  0  0  0  0  0  0  0  0  0  0  0
   15.7450   25.5746   -5.6555 C   0  0  0  0  0  0  0  0  0  0  0  0
   15.8421   24.9959   -4.3931 C   0  0  0  0  0  0  0  0  0  0  0  0
 11 12  1  0  0  0
 12 13  2  0  0  0
 13 14  1  0  0  0
 14 15  2  0  0  0
 15 16  1  0  0  0
 16 17  1  0  0  0
 17 18  2  0  0  0
 18 19  1  0  0  0
 19 20  2  0  0  0
 20 21  1  0  0  0
 20 22  1  0  0  0
 22 23  2  0  0  0
 13  7  1  0  0  0
  7  8  2  0  0  0
  7  9  1  0  0  0
  9  1  1  0  0  0
  1 24  1  0  0  0
 24 25  1  0  0  0
 25 26  2  0  0  0
 25 28  1  0  0  0
 28 29  2  0  0  0
 29 30  1  0  0  0
 30 31  2  0  0  0
 31 32  1  0  0  0
 32 33  2  0  0  0
 33 34  1  0  0  0
 34 35  2  0  0  0
 35 36  1  0  0  0
 36 37  2  0  0  0
  1  2  1  0  0  0
  2  3  1  0  0  0
  3  4  1  0  0  0
  4  5  1  0  0  0
  5  6  1  0  0  0
 16 12  1  0  0  0
 23 17  1  0  0  0
 37 28  1  0  0  0
  6  2  1  0  0  0
 36 31  1  0  0  0
  9 10  1  0  0  0
 24 27  1  0  0  0
M  END
> <minimizedAffinity>
3.80865

> <CNNscore>
0.4520263970

> <CNNaffinity>
7.4004006386

> <CNN_VS>
3.3451764584

> <CNNaffinity_variance>
0.6762014627

$$$$
[H]c1nn(-c2c([H])c([H])c(Br)c([H])c2[H])c(C([H])([H])[H])c1C(=O)N([H])C([H])(N([H])C(=O)c1c([H])c([H])c2c([H])c([H])c([H])c([H])c2c1[H])C1([H])C([H])([H])C([H])([H])C([H])([H])C1([H])[H]


 37 41  0  0  0  0  0  0  0  0999 V2000
   13.9683   23.4343   -4.2411 C   0  0  0  0  0  0  0  0  0  0  0  0
   14.5128   22.3642   -5.1182 C   0  0  0  0  0  0  0  0  0  0  0  0
   15.9946   22.6062   -5.3061 C   0  0  0  0  0  0  0  0  0  0  0  0
   16.5182   21.2183   -5.6087 C   0  0  0  0  0  0  0  0  0  0  0  0
   15.8032   20.3830   -4.5726 C   0  0  0  0  0  0  0  0  0  0  0  0
   14.4066   20.9771   -4.5803 C   0  0  0  0  0  0  0  0  0  0  0  0
   14.1618   22.8376   -1.7969 C   0  0  0  0  0  0  0  0  0  0  0  0
   15.3862   23.2058   -1.8796 O   0  0  0  0  0  0  0  0  0  0  0  0
   13.4390   22.9467   -2.9823 N   0  0  0  0  0  0  0  0  0  0  0  0
   12.4401   22.6573   -3.0058 H   0  0  0  0  0  0  0  0  0  0  0  0
   11.2762   23.0911   -0.4648 C   0  0  0  0  0  0  0  0  0  0  0  0
   12.4637   22.4374    0.0928 C   0  0  0  0  0  0  0  0  0  0  0  0
   13.7088   22.3652   -0.5039 C   0  0  0  0  0  0  0  0  0  0  0  0
   14.5439   21.6776    0.3796 C   0  0  0  0  0  0  0  0  0  0  0  0
   13.8034   21.3670    1.4406 N   0  0  0  0  0  0  0  0  0  0  0  0
   12.5788   21.8121    1.2757 N   0  0  0  0  0  0  0  0  0  0  0  0
   11.5491   21.6247    2.2604 C   0  0  0  0  0  0  0  0  0  0  0  0
   11.8668   21.5039    3.5991 C   0  0  0  0  0  0  0  0  0  0  0  0
   10.8782   21.3289    4.5258 C   0  0  0  0  0  0  0  0  0  0  0  0
    9.5691   21.2738    4.1197 C   0  0  0  0  0  0  0  0  0  0  0  0
    8.1580   21.0333    5.3913 Br  0  0  0  0  0  0  0  0  0  0  0  0
    9.2493   21.3961    2.7634 C   0  0  0  0  0  0  0  0  0  0  0  0
   10.2417   21.5719    1.8301 C   0  0  0  0  0  0  0  0  0  0  0  0
   14.9415   24.5219   -4.0341 N   0  0  0  0  0  0  0  0  0  0  0  0
   14.8315   25.7562   -4.6959 C   0  0  0  0  0  0  0  0  0  0  0  0
   13.8919   25.9666   -5.4919 O   0  0  0  0  0  0  0  0  0  0  0  0
   15.7471   24.3868   -3.3819 H   0  0  0  0  0  0  0  0  0  0  0  0
   15.7986   26.8146   -4.4776 C   0  0  0  0  0  0  0  0  0  0  0  0
   15.3490   28.1457   -4.4563 C   0  0  0  0  0  0  0  0  0  0  0  0
   16.2767   29.1330   -4.2424 C   0  0  0  0  0  0  0  0  0  0  0  0
   17.6244   28.8656   -4.0492 C   0  0  0  0  0  0  0  0  0  0  0  0
   18.5197   29.9025   -3.8400 C   0  0  0  0  0  0  0  0  0  0  0  0
   19.8380   29.5849   -3.6581 C   0  0  0  0  0  0  0  0  0  0  0  0
   20.3036   28.2900   -3.6746 C   0  0  0  0  0  0  0  0  0  0  0  0
   19.3765   27.2812   -3.8867 C   0  0  0  0  0  0  0  0  0  0  0  0
   18.0365   27.5547   -4.0749 C   0  0  0  0  0  0  0  0  0  0  0  0
   17.1138   26.5348   -4.2900 C   0  0  0  0  0  0  0  0  0  0  0  0
 11 12  1  0  0  0
 12 13  2  0  0  0
 13 14  1  0  0  0
 14 15  2  0  0  0
 15 16  1  0  0  0
 16 17  1  0  0  0
 17 18  2  0  0  0
 18 19  1  0  0  0
 19 20  2  0  0  0
 20 21  1  0  0  0
 20 22  1  0  0  0
 22 23  2  0  0  0
 13  7  1  0  0  0
  7  8  2  0  0  0
  7  9  1  0  0  0
  9  1  1  0  0  0
  1 24  1  0  0  0
 24 25  1  0  0  0
 25 26  2  0  0  0
 25 28  1  0  0  0
 28 29  2  0  0  0
 29 30  1  0  0  0
 30 31  2  0  0  0
 31 32  1  0  0  0
 32 33  2  0  0  0
 33 34  1  0  0  0
 34 35  2  0  0  0
 35 36  1  0  0  0
 36 37  2  0  0  0
  1  2  1  0  0  0
  2  3  1  0  0  0
  3  4  1  0  0  0
  4  5  1  0  0  0
  5  6  1  0  0  0
 16 12  1  0  0  0
 23 17  1  0  0  0
 37 28  1  0  0  0
  6  2  1  0  0  0
 36 31  1  0  0  0
  9 10  1  0  0  0
 24 27  1  0  0  0
M  END
> <minimizedAffinity>
24.86401

> <CNNscore>
0.4464727938

> <CNNaffinity>
7.2703447342

> <CNN_VS>
3.2460110188

> <CNNaffinity_variance>
1.1166042089

$$$$
[H]c1nn(-c2c([H])c([H])c(Br)c([H])c2[H])c(C([H])([H])[H])c1C(=O)N([H])C([H])(N([H])C(=O)c1c([H])c([H])c2c([H])c([H])c([H])c([H])c2c1[H])C1([H])C([H])([H])C([H])([H])C([H])([H])C1([H])[H]


 37 41  0  0  0  0  0  0  0  0999 V2000
   12.7875   21.9860    0.5706 C   0  0  0  0  0  0  0  0  0  0  0  0
   13.5993   20.7891    0.9158 C   0  0  0  0  0  0  0  0  0  0  0  0
   14.1530   20.2002   -0.3634 C   0  0  0  0  0  0  0  0  0  0  0  0
   15.3953   19.4805    0.1172 C   0  0  0  0  0  0  0  0  0  0  0  0
   16.0049   20.5007    1.0499 C   0  0  0  0  0  0  0  0  0  0  0  0
   14.7897   21.0471    1.7767 C   0  0  0  0  0  0  0  0  0  0  0  0
   12.8830   24.0502   -0.8776 C   0  0  0  0  0  0  0  0  0  0  0  0
   11.6571   24.2415   -0.5582 O   0  0  0  0  0  0  0  0  0  0  0  0
   13.4615   22.9148   -0.3158 N   0  0  0  0  0  0  0  0  0  0  0  0
   14.4510   22.6787   -0.5332 H   0  0  0  0  0  0  0  0  0  0  0  0
   15.8327   25.2595   -0.8274 C   0  0  0  0  0  0  0  0  0  0  0  0
   14.7634   25.5513   -1.7864 C   0  0  0  0  0  0  0  0  0  0  0  0
   13.4852   25.0246   -1.7655 C   0  0  0  0  0  0  0  0  0  0  0  0
   12.7959   25.5872   -2.8421 C   0  0  0  0  0  0  0  0  0  0  0  0
   13.6486   26.4036   -3.4562 N   0  0  0  0  0  0  0  0  0  0  0  0
   14.8073   26.3852   -2.8382 N   0  0  0  0  0  0  0  0  0  0  0  0
   15.9287   27.1703   -3.2751 C   0  0  0  0  0  0  0  0  0  0  0  0
   17.1766   26.9935   -2.7102 C   0  0  0  0  0  0  0  0  0  0  0  0
   18.2355   27.7443   -3.1365 C   0  0  0  0  0  0  0  0  0  0  0  0
   18.0527   28.6744   -4.1281 C   0  0  0  0  0  0  0  0  0  0  0  0
   19.5147   29.7414   -4.7526 Br  0  0  0  0  0  0  0  0  0  0  0  0
   16.7879   28.8523   -4.6990 C   0  0  0  0  0  0  0  0  0  0  0  0
   15.7221   28.0985   -4.2716 C   0  0  0  0  0  0  0  0  0  0  0  0
   11.4565   21.6163    0.0564 N   0  0  0  0  0  0  0  0  0  0  0  0
   10.6139   20.7254    0.7421 C   0  0  0  0  0  0  0  0  0  0  0  0
   10.9780   20.2131    1.8218 O   0  0  0  0  0  0  0  0  0  0  0  0
   11.1142   22.0160   -0.8467 H   0  0  0  0  0  0  0  0  0  0  0  0
    9.3069   20.3752    0.2204 C   0  0  0  0  0  0  0  0  0  0  0  0
    8.3273   21.3782    0.1257 C   0  0  0  0  0  0  0  0  0  0  0  0
    7.0990   21.0302   -0.3758 C   0  0  0  0  0  0  0  0  0  0  0  0
    6.7957   19.7400   -0.7866 C   0  0  0  0  0  0  0  0  0  0  0  0
    5.5365   19.4426   -1.2832 C   0  0  0  0  0  0  0  0  0  0  0  0
    5.2879   18.1544   -1.6714 C   0  0  0  0  0  0  0  0  0  0  0  0
    6.2296   17.1543   -1.5886 C   0  0  0  0  0  0  0  0  0  0  0  0
    7.4770   17.4923   -1.0865 C   0  0  0  0  0  0  0  0  0  0  0  0
    7.7726   18.7789   -0.6828 C   0  0  0  0  0  0  0  0  0  0  0  0
    9.0273   19.1076   -0.1772 C   0  0  0  0  0  0  0  0  0  0  0  0
 11 12  1  0  0  0
 12 13  2  0  0  0
 13 14  1  0  0  0
 14 15  2  0  0  0
 15 16  1  0  0  0
 16 17  1  0  0  0
 17 18  2  0  0  0
 18 19  1  0  0  0
 19 20  2  0  0  0
 20 21  1  0  0  0
 20 22  1  0  0  0
 22 23  2  0  0  0
 13  7  1  0  0  0
  7  8  2  0  0  0
  7  9  1  0  0  0
  9  1  1  0  0  0
  1 24  1  0  0  0
 24 25  1  0  0  0
 25 26  2  0  0  0
 25 28  1  0  0  0
 28 29  2  0  0  0
 29 30  1  0  0  0
 30 31  2  0  0  0
 31 32  1  0  0  0
 32 33  2  0  0  0
 33 34  1  0  0  0
 34 35  2  0  0  0
 35 36  1  0  0  0
 36 37  2  0  0  0
  1  2  1  0  0  0
  2  3  1  0  0  0
  3  4  1  0  0  0
  4  5  1  0  0  0
  5  6  1  0  0  0
 16 12  1  0  0  0
 23 17  1  0  0  0
 37 28  1  0  0  0
  6  2  1  0  0  0
 36 31  1  0  0  0
  9 10  1  0  0  0
 24 27  1  0  0  0
M  END
> <minimizedAffinity>
5.19660

> <CNNscore>
0.4454145730

> <CNNaffinity>
7.2787466049

> <CNN_VS>
3.2420597076

> <CNNaffinity_variance>
0.5438955426

$$$$
[H]c1nn(-c2c([H])c([H])c(Br)c([H])c2[H])c(C([H])([H])[H])c1C(=O)N([H])C([H])(N([H])C(=O)c1c([H])c([H])c2c([H])c([H])c([H])c([H])c2c1[H])C1([H])C([H])([H])C([H])([H])C([H])([H])C1([H])[H]


 37 41  0  0  0  0  0  0  0  0999 V2000
   14.6364   22.5288   -1.1080 C   0  0  0  0  0  0  0  0  0  0  0  0
   14.8419   21.3405   -1.9778 C   0  0  0  0  0  0  0  0  0  0  0  0
   13.4992   20.6871   -2.2218 C   0  0  0  0  0  0  0  0  0  0  0  0
   13.7144   19.9772   -3.5416 C   0  0  0  0  0  0  0  0  0  0  0  0
   14.4321   21.0329   -4.3495 C   0  0  0  0  0  0  0  0  0  0  0  0
   15.3923   21.6253   -3.3345 C   0  0  0  0  0  0  0  0  0  0  0  0
   14.7396   24.7167   -2.3609 C   0  0  0  0  0  0  0  0  0  0  0  0
   16.0129   24.6412   -2.2403 O   0  0  0  0  0  0  0  0  0  0  0  0
   14.0363   23.6580   -1.7916 N   0  0  0  0  0  0  0  0  0  0  0  0
   12.9971   23.6471   -1.8340 H   0  0  0  0  0  0  0  0  0  0  0  0
   11.7631   25.8581   -2.4128 C   0  0  0  0  0  0  0  0  0  0  0  0
   12.9434   26.4092   -3.0848 C   0  0  0  0  0  0  0  0  0  0  0  0
   14.2183   25.8747   -3.0592 C   0  0  0  0  0  0  0  0  0  0  0  0
   15.0221   26.7023   -3.8463 C   0  0  0  0  0  0  0  0  0  0  0  0
   14.2365   27.6743   -4.3032 N   0  0  0  0  0  0  0  0  0  0  0  0
   13.0127   27.5055   -3.8573 N   0  0  0  0  0  0  0  0  0  0  0  0
   11.9399   28.4035   -4.1853 C   0  0  0  0  0  0  0  0  0  0  0  0
   10.9327   28.0146   -5.0465 C   0  0  0  0  0  0  0  0  0  0  0  0
    9.9167   28.8768   -5.3482 C   0  0  0  0  0  0  0  0  0  0  0  0
    9.9023   30.1303   -4.7911 C   0  0  0  0  0  0  0  0  0  0  0  0
    8.4922   31.3631   -5.1885 Br  0  0  0  0  0  0  0  0  0  0  0  0
   10.9234   30.5226   -3.9191 C   0  0  0  0  0  0  0  0  0  0  0  0
   11.9458   29.6572   -3.6149 C   0  0  0  0  0  0  0  0  0  0  0  0
   13.8999   22.1871    0.1223 N   0  0  0  0  0  0  0  0  0  0  0  0
   12.5219   22.4255    0.2563 C   0  0  0  0  0  0  0  0  0  0  0  0
   11.8748   22.9439   -0.6783 O   0  0  0  0  0  0  0  0  0  0  0  0
   14.4029   21.7578    0.9317 H   0  0  0  0  0  0  0  0  0  0  0  0
   11.8147   22.0807    1.4746 C   0  0  0  0  0  0  0  0  0  0  0  0
   12.2158   20.9380    2.1872 C   0  0  0  0  0  0  0  0  0  0  0  0
   11.5397   20.6309    3.3404 C   0  0  0  0  0  0  0  0  0  0  0  0
   10.4884   21.3992    3.8198 C   0  0  0  0  0  0  0  0  0  0  0  0
    9.8378   21.0410    4.9898 C   0  0  0  0  0  0  0  0  0  0  0  0
    8.8055   21.8308    5.4173 C   0  0  0  0  0  0  0  0  0  0  0  0
    8.3935   22.9543    4.7378 C   0  0  0  0  0  0  0  0  0  0  0  0
    9.0700   23.2788    3.5719 C   0  0  0  0  0  0  0  0  0  0  0  0
   10.1173   22.5114    3.1028 C   0  0  0  0  0  0  0  0  0  0  0  0
   10.7883   22.8441    1.9293 C   0  0  0  0  0  0  0  0  0  0  0  0
 11 12  1  0  0  0
 12 13  2  0  0  0
 13 14  1  0  0  0
 14 15  2  0  0  0
 15 16  1  0  0  0
 16 17  1  0  0  0
 17 18  2  0  0  0
 18 19  1  0  0  0
 19 20  2  0  0  0
 20 21  1  0  0  0
 20 22  1  0  0  0
 22 23  2  0  0  0
 13  7  1  0  0  0
  7  8  2  0  0  0
  7  9  1  0  0  0
  9  1  1  0  0  0
  1 24  1  0  0  0
 24 25  1  0  0  0
 25 26  2  0  0  0
 25 28  1  0  0  0
 28 29  2  0  0  0
 29 30  1  0  0  0
 30 31  2  0  0  0
 31 32  1  0  0  0
 32 33  2  0  0  0
 33 34  1  0  0  0
 34 35  2  0  0  0
 35 36  1  0  0  0
 36 37  2  0  0  0
  1  2  1  0  0  0
  2  3  1  0  0  0
  3  4  1  0  0  0
  4  5  1  0  0  0
  5  6  1  0  0  0
 16 12  1  0  0  0
 23 17  1  0  0  0
 37 28  1  0  0  0
  6  2  1  0  0  0
 36 31  1  0  0  0
  9 10  1  0  0  0
 24 27  1  0  0  0
M  END
> <minimizedAffinity>
16.03485

> <CNNscore>
0.4392369986

> <CNNaffinity>
7.3443846703

> <CNN_VS>
3.2259254456

> <CNNaffinity_variance>
1.2595685720

$$$$
[H]c1nn(-c2c([H])c([H])c(Br)c([H])c2[H])c(C([H])([H])[H])c1C(=O)N([H])C([H])(N([H])C(=O)c1c([H])c([H])c2c([H])c([H])c([H])c([H])c2c1[H])C1([H])C([H])([H])C([H])([H])C([H])([H])C1([H])[H]


 37 41  0  0  0  0  0  0  0  0999 V2000
   15.3795   25.0470   -0.2610 C   0  0  0  0  0  0  0  0  0  0  0  0
   15.1685   26.3341    0.4529 C   0  0  0  0  0  0  0  0  0  0  0  0
   13.6846   26.5142    0.6879 C   0  0  0  0  0  0  0  0  0  0  0  0
   13.6517   27.4163    1.9034 C   0  0  0  0  0  0  0  0  0  0  0  0
   14.6966   26.7812    2.7907 C   0  0  0  0  0  0  0  0  0  0  0  0
   15.7943   26.4293    1.8035 C   0  0  0  0  0  0  0  0  0  0  0  0
   13.6987   23.2666   -0.8713 C   0  0  0  0  0  0  0  0  0  0  0  0
   13.9813   23.5228   -2.0944 O   0  0  0  0  0  0  0  0  0  0  0  0
   14.3963   24.0309    0.0607 N   0  0  0  0  0  0  0  0  0  0  0  0
   14.2179   23.8950    1.0765 H   0  0  0  0  0  0  0  0  0  0  0  0
   10.7157   23.0554   -1.9769 C   0  0  0  0  0  0  0  0  0  0  0  0
   11.4183   22.1020   -1.1133 C   0  0  0  0  0  0  0  0  0  0  0  0
   12.7079   22.2361   -0.6330 C   0  0  0  0  0  0  0  0  0  0  0  0
   12.9639   21.1172    0.1628 C   0  0  0  0  0  0  0  0  0  0  0  0
   11.8625   20.3708    0.1369 N   0  0  0  0  0  0  0  0  0  0  0  0
   10.9509   20.9467   -0.6130 N   0  0  0  0  0  0  0  0  0  0  0  0
    9.6523   20.3711   -0.8299 C   0  0  0  0  0  0  0  0  0  0  0  0
    8.7819   20.9206   -1.7509 C   0  0  0  0  0  0  0  0  0  0  0  0
    7.5510   20.3622   -1.9499 C   0  0  0  0  0  0  0  0  0  0  0  0
    7.1843   19.2531   -1.2306 C   0  0  0  0  0  0  0  0  0  0  0  0
    5.4688   18.4422   -1.4864 Br  0  0  0  0  0  0  0  0  0  0  0  0
    8.0671   18.6980   -0.2981 C   0  0  0  0  0  0  0  0  0  0  0  0
    9.3050   19.2582   -0.0964 C   0  0  0  0  0  0  0  0  0  0  0  0
   15.5007   25.2411   -1.7172 N   0  0  0  0  0  0  0  0  0  0  0  0
   16.0242   26.4214   -2.2706 C   0  0  0  0  0  0  0  0  0  0  0  0
   16.4047   27.3535   -1.5308 O   0  0  0  0  0  0  0  0  0  0  0  0
   15.1884   24.4899   -2.3735 H   0  0  0  0  0  0  0  0  0  0  0  0
   16.1368   26.5927   -3.7063 C   0  0  0  0  0  0  0  0  0  0  0  0
   16.9269   27.6442   -4.2006 C   0  0  0  0  0  0  0  0  0  0  0  0
   17.0268   27.7871   -5.5611 C   0  0  0  0  0  0  0  0  0  0  0  0
   16.3832   26.9407   -6.4525 C   0  0  0  0  0  0  0  0  0  0  0  0
   16.5162   27.1326   -7.8186 C   0  0  0  0  0  0  0  0  0  0  0  0
   15.8583   26.2721   -8.6543 C   0  0  0  0  0  0  0  0  0  0  0  0
   15.0786   25.2350   -8.1956 C   0  0  0  0  0  0  0  0  0  0  0  0
   14.9710   25.0765   -6.8224 C   0  0  0  0  0  0  0  0  0  0  0  0
   15.6170   25.9206   -5.9415 C   0  0  0  0  0  0  0  0  0  0  0  0
   15.5003   25.7549   -4.5642 C   0  0  0  0  0  0  0  0  0  0  0  0
 11 12  1  0  0  0
 12 13  2  0  0  0
 13 14  1  0  0  0
 14 15  2  0  0  0
 15 16  1  0  0  0
 16 17  1  0  0  0
 17 18  2  0  0  0
 18 19  1  0  0  0
 19 20  2  0  0  0
 20 21  1  0  0  0
 20 22  1  0  0  0
 22 23  2  0  0  0
 13  7  1  0  0  0
  7  8  2  0  0  0
  7  9  1  0  0  0
  9  1  1  0  0  0
  1 24  1  0  0  0
 24 25  1  0  0  0
 25 26  2  0  0  0
 25 28  1  0  0  0
 28 29  2  0  0  0
 29 30  1  0  0  0
 30 31  2  0  0  0
 31 32  1  0  0  0
 32 33  2  0  0  0
 33 34  1  0  0  0
 34 35  2  0  0  0
 35 36  1  0  0  0
 36 37  2  0  0  0
  1  2  1  0  0  0
  2  3  1  0  0  0
  3  4  1  0  0  0
  4  5  1  0  0  0
  5  6  1  0  0  0
 16 12  1  0  0  0
 23 17  1  0  0  0
 37 28  1  0  0  0
  6  2  1  0  0  0
 36 31  1  0  0  0
  9 10  1  0  0  0
 24 27  1  0  0  0
M  END
> <minimizedAffinity>
9.59810

> <CNNscore>
0.4344853759

> <CNNaffinity>
7.1002821922

> <CNN_VS>
3.0849688053

> <CNNaffinity_variance>
0.6129482985

$$$$
[H]c1nn(-c2c([H])c([H])c(Br)c([H])c2[H])c(C([H])([H])[H])c1C(=O)N([H])C([H])(N([H])C(=O)c1c([H])c([H])c2c([H])c([H])c([H])c([H])c2c1[H])C1([H])C([H])([H])C([H])([H])C([H])([H])C1([H])[H]


 37 41  0  0  0  0  0  0  0  0999 V2000
   13.4753   22.5664    0.6260 C   0  0  0  0  0  0  0  0  0  0  0  0
   14.4383   21.4737    0.3269 C   0  0  0  0  0  0  0  0  0  0  0  0
   15.7804   21.8415    0.9214 C   0  0  0  0  0  0  0  0  0  0  0  0
   16.4263   20.4890    1.1356 C   0  0  0  0  0  0  0  0  0  0  0  0
   15.2918   19.6942    1.7386 C   0  0  0  0  0  0  0  0  0  0  0  0
   14.1015   20.1432    0.9111 C   0  0  0  0  0  0  0  0  0  0  0  0
   13.4540   23.6900   -1.6333 C   0  0  0  0  0  0  0  0  0  0  0  0
   13.1870   22.5364   -2.1226 O   0  0  0  0  0  0  0  0  0  0  0  0
   13.6035   23.7156   -0.2489 N   0  0  0  0  0  0  0  0  0  0  0  0
   13.8334   24.6107    0.2286 H   0  0  0  0  0  0  0  0  0  0  0  0
   15.8123   24.3609   -3.6713 C   0  0  0  0  0  0  0  0  0  0  0  0
   14.5570   25.0942   -3.4843 C   0  0  0  0  0  0  0  0  0  0  0  0
   13.5632   24.7877   -2.5732 C   0  0  0  0  0  0  0  0  0  0  0  0
   12.5651   25.7536   -2.7198 C   0  0  0  0  0  0  0  0  0  0  0  0
   12.9724   26.5802   -3.6797 N   0  0  0  0  0  0  0  0  0  0  0  0
   14.1439   26.1955   -4.1322 N   0  0  0  0  0  0  0  0  0  0  0  0
   14.8370   26.8971   -5.1774 C   0  0  0  0  0  0  0  0  0  0  0  0
   14.9682   26.3400   -6.4343 C   0  0  0  0  0  0  0  0  0  0  0  0
   15.6271   27.0185   -7.4203 C   0  0  0  0  0  0  0  0  0  0  0  0
   16.1574   28.2556   -7.1553 C   0  0  0  0  0  0  0  0  0  0  0  0
   17.0837   29.2363   -8.5140 Br  0  0  0  0  0  0  0  0  0  0  0  0
   16.0236   28.8183   -5.8815 C   0  0  0  0  0  0  0  0  0  0  0  0
   15.3617   28.1376   -4.8889 C   0  0  0  0  0  0  0  0  0  0  0  0
   12.0864   22.0753    0.6746 N   0  0  0  0  0  0  0  0  0  0  0  0
   11.0806   22.7532    1.3835 C   0  0  0  0  0  0  0  0  0  0  0  0
   11.3423   23.8059    2.0034 O   0  0  0  0  0  0  0  0  0  0  0  0
   11.8244   21.1949    0.1758 H   0  0  0  0  0  0  0  0  0  0  0  0
    9.7193   22.2546    1.4179 C   0  0  0  0  0  0  0  0  0  0  0  0
    9.0133   22.1362    0.2088 C   0  0  0  0  0  0  0  0  0  0  0  0
    7.7291   21.6569    0.2599 C   0  0  0  0  0  0  0  0  0  0  0  0
    7.1128   21.2907    1.4478 C   0  0  0  0  0  0  0  0  0  0  0  0
    5.8112   20.8149    1.4422 C   0  0  0  0  0  0  0  0  0  0  0  0
    5.2489   20.4707    2.6410 C   0  0  0  0  0  0  0  0  0  0  0  0
    5.9186   20.5774    3.8384 C   0  0  0  0  0  0  0  0  0  0  0  0
    7.2188   21.0574    3.8017 C   0  0  0  0  0  0  0  0  0  0  0  0
    7.8267   21.4168    2.6155 C   0  0  0  0  0  0  0  0  0  0  0  0
    9.1318   21.9005    2.5895 C   0  0  0  0  0  0  0  0  0  0  0  0
 11 12  1  0  0  0
 12 13  2  0  0  0
 13 14  1  0  0  0
 14 15  2  0  0  0
 15 16  1  0  0  0
 16 17  1  0  0  0
 17 18  2  0  0  0
 18 19  1  0  0  0
 19 20  2  0  0  0
 20 21  1  0  0  0
 20 22  1  0  0  0
 22 23  2  0  0  0
 13  7  1  0  0  0
  7  8  2  0  0  0
  7  9  1  0  0  0
  9  1  1  0  0  0
  1 24  1  0  0  0
 24 25  1  0  0  0
 25 26  2  0  0  0
 25 28  1  0  0  0
 28 29  2  0  0  0
 29 30  1  0  0  0
 30 31  2  0  0  0
 31 32  1  0  0  0
 32 33  2  0  0  0
 33 34  1  0  0  0
 34 35  2  0  0  0
 35 36  1  0  0  0
 36 37  2  0  0  0
  1  2  1  0  0  0
  2  3  1  0  0  0
  3  4  1  0  0  0
  4  5  1  0  0  0
  5  6  1  0  0  0
 16 12  1  0  0  0
 23 17  1  0  0  0
 37 28  1  0  0  0
  6  2  1  0  0  0
 36 31  1  0  0  0
  9 10  1  0  0  0
 24 27  1  0  0  0
M  END
> <minimizedAffinity>
3.64451

> <CNNscore>
0.4323165119

> <CNNaffinity>
7.2385611534

> <CNN_VS>
3.1293494701

> <CNNaffinity_variance>
0.3529180884

$$$$
[H]c1nn(-c2c([H])c([H])c(Br)c([H])c2[H])c(C([H])([H])[H])c1C(=O)N([H])C([H])(N([H])C(=O)c1c([H])c([H])c2c([H])c([H])c([H])c([H])c2c1[H])C1([H])C([H])([H])C([H])([H])C([H])([H])C1([H])[H]


 37 41  0  0  0  0  0  0  0  0999 V2000
   15.6128   23.7128   -0.2104 C   0  0  0  0  0  0  0  0  0  0  0  0
   16.7480   24.3511    0.5070 C   0  0  0  0  0  0  0  0  0  0  0  0
   17.1702   23.4423    1.6408 C   0  0  0  0  0  0  0  0  0  0  0  0
   18.6216   23.8227    1.8434 C   0  0  0  0  0  0  0  0  0  0  0  0
   19.1281   23.8867    0.4215 C   0  0  0  0  0  0  0  0  0  0  0  0
   17.9811   24.5656   -0.3043 C   0  0  0  0  0  0  0  0  0  0  0  0
   13.3314   22.8628    0.4530 C   0  0  0  0  0  0  0  0  0  0  0  0
   13.5844   21.8362   -0.2707 O   0  0  0  0  0  0  0  0  0  0  0  0
   14.3464   23.8157    0.4883 N   0  0  0  0  0  0  0  0  0  0  0  0
   14.2176   24.6862    1.0430 H   0  0  0  0  0  0  0  0  0  0  0  0
   11.6696   25.3694    1.5117 C   0  0  0  0  0  0  0  0  0  0  0  0
   11.2885   23.9552    1.5702 C   0  0  0  0  0  0  0  0  0  0  0  0
   12.0453   22.8890    1.1206 C   0  0  0  0  0  0  0  0  0  0  0  0
   11.3156   21.7294    1.3917 C   0  0  0  0  0  0  0  0  0  0  0  0
   10.1836   22.1183    1.9730 N   0  0  0  0  0  0  0  0  0  0  0  0
   10.1638   23.4272    2.0797 N   0  0  0  0  0  0  0  0  0  0  0  0
    9.0627   24.1380    2.6692 C   0  0  0  0  0  0  0  0  0  0  0  0
    8.2181   24.9030    1.8889 C   0  0  0  0  0  0  0  0  0  0  0  0
    7.1730   25.5717    2.4610 C   0  0  0  0  0  0  0  0  0  0  0  0
    6.9672   25.4792    3.8141 C   0  0  0  0  0  0  0  0  0  0  0  0
    5.5106   26.3997    4.6490 Br  0  0  0  0  0  0  0  0  0  0  0  0
    7.8239   24.7039    4.6029 C   0  0  0  0  0  0  0  0  0  0  0  0
    8.8752   24.0311    4.0296 C   0  0  0  0  0  0  0  0  0  0  0  0
   15.5043   24.1907   -1.6006 N   0  0  0  0  0  0  0  0  0  0  0  0
   15.9212   25.4773   -1.9809 C   0  0  0  0  0  0  0  0  0  0  0  0
   16.4002   26.2634   -1.1364 O   0  0  0  0  0  0  0  0  0  0  0  0
   15.1033   23.5685   -2.3386 H   0  0  0  0  0  0  0  0  0  0  0  0
   15.8076   25.9284   -3.3545 C   0  0  0  0  0  0  0  0  0  0  0  0
   15.8156   27.3094   -3.6140 C   0  0  0  0  0  0  0  0  0  0  0  0
   15.7135   27.7176   -4.9195 C   0  0  0  0  0  0  0  0  0  0  0  0
   15.6041   26.8259   -5.9769 C   0  0  0  0  0  0  0  0  0  0  0  0
   15.5007   27.2933   -7.2774 C   0  0  0  0  0  0  0  0  0  0  0  0
   15.3918   26.3723   -8.2833 C   0  0  0  0  0  0  0  0  0  0  0  0
   15.3814   25.0151   -8.0557 C   0  0  0  0  0  0  0  0  0  0  0  0
   15.4871   24.5878   -6.7409 C   0  0  0  0  0  0  0  0  0  0  0  0
   15.5989   25.4809   -5.6942 C   0  0  0  0  0  0  0  0  0  0  0  0
   15.7016   25.0418   -4.3771 C   0  0  0  0  0  0  0  0  0  0  0  0
 11 12  1  0  0  0
 12 13  2  0  0  0
 13 14  1  0  0  0
 14 15  2  0  0  0
 15 16  1  0  0  0
 16 17  1  0  0  0
 17 18  2  0  0  0
 18 19  1  0  0  0
 19 20  2  0  0  0
 20 21  1  0  0  0
 20 22  1  0  0  0
 22 23  2  0  0  0
 13  7  1  0  0  0
  7  8  2  0  0  0
  7  9  1  0  0  0
  9  1  1  0  0  0
  1 24  1  0  0  0
 24 25  1  0  0  0
 25 26  2  0  0  0
 25 28  1  0  0  0
 28 29  2  0  0  0
 29 30  1  0  0  0
 30 31  2  0  0  0
 31 32  1  0  0  0
 32 33  2  0  0  0
 33 34  1  0  0  0
 34 35  2  0  0  0
 35 36  1  0  0  0
 36 37  2  0  0  0
  1  2  1  0  0  0
  2  3  1  0  0  0
  3  4  1  0  0  0
  4  5  1  0  0  0
  5  6  1  0  0  0
 16 12  1  0  0  0
 23 17  1  0  0  0
 37 28  1  0  0  0
  6  2  1  0  0  0
 36 31  1  0  0  0
  9 10  1  0  0  0
 24 27  1  0  0  0
M  END
> <minimizedAffinity>
2.61717

> <CNNscore>
0.4282270670

> <CNNaffinity>
7.1100974083

> <CNN_VS>
3.0447361469

> <CNNaffinity_variance>
0.4701581895

$$$$
[H]OC(=O)c1c([H])c([H])c(N(C(=O)N2[C@@]([H])(C(C([H])([H])[H])(C([H])([H])[H])C([H])([H])[H])C([H])([H])[C@]([H])(O[H])[C@@]2([H])O[H])c2c([H])c([H])c(OC([H])([H])c3nc([H])c([H])c([H])c3[H])c([H])c2[H])c([H])c1[H]


 40 43  0  0  0  0  0  0  0  0999 V2000
   11.4047   22.0661    2.9529 O   0  0  0  0  0  0  0  0  0  0  0  0
   11.7639   21.0579    2.1295 C   0  0  0  0  0  0  0  0  0  0  0  0
   12.9722   20.3132    2.7824 C   0  0  0  0  0  0  0  0  0  0  0  0
   12.5239   19.3106    3.6312 O   0  0  0  0  0  0  0  0  0  0  0  0
   13.7065   19.8000    1.5904 C   0  0  0  0  0  0  0  0  0  0  0  0
   12.7118   20.0198    0.4349 C   0  0  0  0  0  0  0  0  0  0  0  0
   12.2624   21.3533    0.8154 N   0  0  0  0  0  0  0  0  0  0  0  0
   12.2296   22.5350    0.0780 C   0  0  0  0  0  0  0  0  0  0  0  0
   13.0265   22.5197   -1.0146 O   0  0  0  0  0  0  0  0  0  0  0  0
   11.5985   23.7575    0.1319 N   0  0  0  0  0  0  0  0  0  0  0  0
   11.5651   21.7581    3.9009 H   0  0  0  0  0  0  0  0  0  0  0  0
   12.8759   19.5380    4.5485 H   0  0  0  0  0  0  0  0  0  0  0  0
   12.0000   24.8116   -0.8255 C   0  0  0  0  0  0  0  0  0  0  0  0
   13.0499   25.5982   -0.4406 C   0  0  0  0  0  0  0  0  0  0  0  0
   13.4374   26.5905   -1.3132 C   0  0  0  0  0  0  0  0  0  0  0  0
   12.7762   26.7773   -2.5413 C   0  0  0  0  0  0  0  0  0  0  0  0
   11.7243   25.9597   -2.8858 C   0  0  0  0  0  0  0  0  0  0  0  0
   11.3415   24.9715   -2.0124 C   0  0  0  0  0  0  0  0  0  0  0  0
   13.2278   27.7851   -3.3455 O   0  0  0  0  0  0  0  0  0  0  0  0
   13.2762   27.8670   -4.7236 C   0  0  0  0  0  0  0  0  0  0  0  0
   14.1903   26.8215   -5.2569 C   0  0  0  0  0  0  0  0  0  0  0  0
   14.6954   25.8164   -4.4877 C   0  0  0  0  0  0  0  0  0  0  0  0
   15.5488   24.8789   -5.0244 C   0  0  0  0  0  0  0  0  0  0  0  0
   15.8905   24.9743   -6.3756 C   0  0  0  0  0  0  0  0  0  0  0  0
   15.3674   25.9925   -7.1170 C   0  0  0  0  0  0  0  0  0  0  0  0
   14.5441   26.8838   -6.5661 N   0  0  0  0  0  0  0  0  0  0  0  0
   10.5252   24.1714    0.9107 C   0  0  0  0  0  0  0  0  0  0  0  0
    9.2089   23.7936    0.5884 C   0  0  0  0  0  0  0  0  0  0  0  0
    8.1163   24.2311    1.2979 C   0  0  0  0  0  0  0  0  0  0  0  0
    8.2739   25.0751    2.3752 C   0  0  0  0  0  0  0  0  0  0  0  0
    9.5428   25.4686    2.7240 C   0  0  0  0  0  0  0  0  0  0  0  0
   10.6364   25.0275    2.0098 C   0  0  0  0  0  0  0  0  0  0  0  0
    7.0959   25.5241    3.1117 C   0  0  0  0  0  0  0  0  0  0  0  0
    6.5606   24.7365    4.1052 O   0  0  0  0  0  0  0  0  0  0  0  0
    6.5605   26.6252    2.8502 O   0  0  0  0  0  0  0  0  0  0  0  0
    6.3355   23.7711    3.8902 H   0  0  0  0  0  0  0  0  0  0  0  0
   13.3196   19.6558   -0.8064 C   0  0  0  0  0  0  0  0  0  0  0  0
   13.1007   18.1945   -1.2450 C   0  0  0  0  0  0  0  0  0  0  0  0
   14.8629   19.6434   -0.4613 C   0  0  0  0  0  0  0  0  0  0  0  0
   13.2611   20.5809   -1.9812 C   0  0  0  0  0  0  0  0  0  0  0  0
  1  2  1  0  0  0
  2  3  1  0  0  0
  3  4  1  0  0  0
  3  5  1  0  0  0
  5  6  1  0  0  0
  6  7  1  0  0  0
  7  8  1  0  0  0
  8  9  2  0  0  0
  8 10  1  0  0  0
 10 13  1  0  0  0
 13 14  2  0  0  0
 14 15  1  0  0  0
 15 16  2  0  0  0
 16 19  1  0  0  0
 19 20  1  0  0  0
 20 21  1  0  0  0
 21 22  2  0  0  0
 22 23  1  0  0  0
 23 24  2  0  0  0
 24 25  1  0  0  0
 25 26  2  0  0  0
 16 17  1  0  0  0
 17 18  2  0  0  0
 10 27  1  0  0  0
 27 28  2  0  0  0
 28 29  1  0  0  0
 29 30  2  0  0  0
 30 31  1  0  0  0
 31 32  2  0  0  0
 30 33  1  0  0  0
 33 34  1  0  0  0
 33 35  2  0  0  0
  6 37  1  0  0  0
 37 38  1  0  0  0
 37 39  1  0  0  0
 37 40  1  0  0  0
  7  2  1  0  0  0
 18 13  1  0  0  0
 32 27  1  0  0  0
 26 21  1  0  0  0
  1 11  1  0  0  0
  4 12  1  0  0  0
 34 36  1  0  0  0
M  END
> <minimizedAffinity>
8.11884

> <CNNscore>
0.6821988225

> <CNNaffinity>
7.1708183289

> <CNN_VS>
4.8919239044

> <CNNaffinity_variance>
0.7496018410

$$$$
[H]OC(=O)c1c([H])c([H])c(N(C(=O)N2[C@@]([H])(C(C([H])([H])[H])(C([H])([H])[H])C([H])([H])[H])C([H])([H])[C@]([H])(O[H])[C@@]2([H])O[H])c2c([H])c([H])c(OC([H])([H])c3nc([H])c([H])c([H])c3[H])c([H])c2[H])c([H])c1[H]


 40 43  0  0  0  0  0  0  0  0999 V2000
   14.0914   21.2682    1.6799 O   0  0  0  0  0  0  0  0  0  0  0  0
   12.8197   21.5414    2.0423 C   0  0  0  0  0  0  0  0  0  0  0  0
   12.0151   20.2025    2.0139 C   0  0  0  0  0  0  0  0  0  0  0  0
   12.1061   19.5548    3.2382 O   0  0  0  0  0  0  0  0  0  0  0  0
   10.6371   20.6706    1.6891 C   0  0  0  0  0  0  0  0  0  0  0  0
   10.7246   22.1975    1.8734 C   0  0  0  0  0  0  0  0  0  0  0  0
   12.0124   22.3992    1.2206 N   0  0  0  0  0  0  0  0  0  0  0  0
   12.3680   23.2540    0.1794 C   0  0  0  0  0  0  0  0  0  0  0  0
   11.3158   23.7067   -0.5396 O   0  0  0  0  0  0  0  0  0  0  0  0
   13.5161   23.7984   -0.3506 N   0  0  0  0  0  0  0  0  0  0  0  0
   14.3166   20.3471    2.0266 H   0  0  0  0  0  0  0  0  0  0  0  0
   12.5366   18.6615    3.0544 H   0  0  0  0  0  0  0  0  0  0  0  0
   13.4256   24.5704   -1.6096 C   0  0  0  0  0  0  0  0  0  0  0  0
   14.1777   24.1028   -2.6511 C   0  0  0  0  0  0  0  0  0  0  0  0
   14.1142   24.8090   -3.8316 C   0  0  0  0  0  0  0  0  0  0  0  0
   13.3094   25.9574   -3.9490 C   0  0  0  0  0  0  0  0  0  0  0  0
   12.5692   26.3897   -2.8726 C   0  0  0  0  0  0  0  0  0  0  0  0
   12.6356   25.6821   -1.6976 C   0  0  0  0  0  0  0  0  0  0  0  0
   13.3061   26.5954   -5.1571 O   0  0  0  0  0  0  0  0  0  0  0  0
   14.3612   26.9667   -5.9677 C   0  0  0  0  0  0  0  0  0  0  0  0
   15.5214   27.3699   -5.1286 C   0  0  0  0  0  0  0  0  0  0  0  0
   16.0698   26.5568   -4.1825 C   0  0  0  0  0  0  0  0  0  0  0  0
   17.1359   26.9802   -3.4212 C   0  0  0  0  0  0  0  0  0  0  0  0
   17.6490   28.2620   -3.6345 C   0  0  0  0  0  0  0  0  0  0  0  0
   17.0768   29.0501   -4.5892 C   0  0  0  0  0  0  0  0  0  0  0  0
   16.0453   28.6094   -5.3086 N   0  0  0  0  0  0  0  0  0  0  0  0
   14.8057   23.8316    0.1649 C   0  0  0  0  0  0  0  0  0  0  0  0
   15.4774   25.0529    0.3562 C   0  0  0  0  0  0  0  0  0  0  0  0
   16.7738   25.1243    0.8068 C   0  0  0  0  0  0  0  0  0  0  0  0
   17.4788   23.9762    1.0940 C   0  0  0  0  0  0  0  0  0  0  0  0
   16.8600   22.7622    0.9210 C   0  0  0  0  0  0  0  0  0  0  0  0
   15.5594   22.6946    0.4688 C   0  0  0  0  0  0  0  0  0  0  0  0
   18.8545   24.0810    1.5718 C   0  0  0  0  0  0  0  0  0  0  0  0
   19.1108   24.5368    2.8448 O   0  0  0  0  0  0  0  0  0  0  0  0
   19.8133   23.7597    0.8336 O   0  0  0  0  0  0  0  0  0  0  0  0
   18.7054   25.4205    3.1342 H   0  0  0  0  0  0  0  0  0  0  0  0
    9.4854   22.8045    1.5017 C   0  0  0  0  0  0  0  0  0  0  0  0
    9.3664   24.3086    1.8170 C   0  0  0  0  0  0  0  0  0  0  0  0
    8.4599   22.1928    2.5386 C   0  0  0  0  0  0  0  0  0  0  0  0
    8.8447   22.4816    0.1884 C   0  0  0  0  0  0  0  0  0  0  0  0
  1  2  1  0  0  0
  2  3  1  0  0  0
  3  4  1  0  0  0
  3  5  1  0  0  0
  5  6  1  0  0  0
  6  7  1  0  0  0
  7  8  1  0  0  0
  8  9  2  0  0  0
  8 10  1  0  0  0
 10 13  1  0  0  0
 13 14  2  0  0  0
 14 15  1  0  0  0
 15 16  2  0  0  0
 16 19  1  0  0  0
 19 20  1  0  0  0
 20 21  1  0  0  0
 21 22  2  0  0  0
 22 23  1  0  0  0
 23 24  2  0  0  0
 24 25  1  0  0  0
 25 26  2  0  0  0
 16 17  1  0  0  0
 17 18  2  0  0  0
 10 27  1  0  0  0
 27 28  2  0  0  0
 28 29  1  0  0  0
 29 30  2  0  0  0
 30 31  1  0  0  0
 31 32  2  0  0  0
 30 33  1  0  0  0
 33 34  1  0  0  0
 33 35  2  0  0  0
  6 37  1  0  0  0
 37 38  1  0  0  0
 37 39  1  0  0  0
 37 40  1  0  0  0
  7  2  1  0  0  0
 18 13  1  0  0  0
 32 27  1  0  0  0
 26 21  1  0  0  0
  1 11  1  0  0  0
  4 12  1  0  0  0
 34 36  1  0  0  0
M  END
> <minimizedAffinity>
-1.40791

> <CNNscore>
0.5609947443

> <CNNaffinity>
7.5882844925

> <CNN_VS>
4.2569875717

> <CNNaffinity_variance>
0.2776462138

$$$$
[H]OC(=O)c1c([H])c([H])c(N(C(=O)N2[C@@]([H])(C(C([H])([H])[H])(C([H])([H])[H])C([H])([H])[H])C([H])([H])[C@]([H])(O[H])[C@@]2([H])O[H])c2c([H])c([H])c(OC([H])([H])c3nc([H])c([H])c([H])c3[H])c([H])c2[H])c([H])c1[H]


 40 43  0  0  0  0  0  0  0  0999 V2000
    9.3508   22.5681    3.8952 O   0  0  0  0  0  0  0  0  0  0  0  0
    9.1423   21.5122    3.0797 C   0  0  0  0  0  0  0  0  0  0  0  0
    9.8197   20.2634    3.7295 C   0  0  0  0  0  0  0  0  0  0  0  0
    8.9390   19.6273    4.5933 O   0  0  0  0  0  0  0  0  0  0  0  0
   10.1794   19.4444    2.5365 C   0  0  0  0  0  0  0  0  0  0  0  0
    9.4154   20.1297    1.3878 C   0  0  0  0  0  0  0  0  0  0  0  0
    9.7039   21.5099    1.7578 N   0  0  0  0  0  0  0  0  0  0  0  0
   10.2608   22.5437    1.0078 C   0  0  0  0  0  0  0  0  0  0  0  0
   10.9268   22.1238   -0.0918 O   0  0  0  0  0  0  0  0  0  0  0  0
   10.3322   23.9179    1.0541 N   0  0  0  0  0  0  0  0  0  0  0  0
    9.3471   22.2258    4.8450 H   0  0  0  0  0  0  0  0  0  0  0  0
    9.3699   19.6509    5.5048 H   0  0  0  0  0  0  0  0  0  0  0  0
   11.1970   24.6215    0.0815 C   0  0  0  0  0  0  0  0  0  0  0  0
   12.2276   25.3449    0.6143 C   0  0  0  0  0  0  0  0  0  0  0  0
   13.0424   26.0137   -0.2718 C   0  0  0  0  0  0  0  0  0  0  0  0
   12.8153   25.9488   -1.6591 C   0  0  0  0  0  0  0  0  0  0  0  0
   11.7649   25.2069   -2.1486 C   0  0  0  0  0  0  0  0  0  0  0  0
   10.9551   24.5416   -1.2612 C   0  0  0  0  0  0  0  0  0  0  0  0
   13.6735   26.6426   -2.4643 O   0  0  0  0  0  0  0  0  0  0  0  0
   15.0107   26.4240   -2.7335 C   0  0  0  0  0  0  0  0  0  0  0  0
   15.2766   26.6565   -4.1785 C   0  0  0  0  0  0  0  0  0  0  0  0
   14.7208   25.8989   -5.1655 C   0  0  0  0  0  0  0  0  0  0  0  0
   15.0079   26.1449   -6.4892 C   0  0  0  0  0  0  0  0  0  0  0  0
   15.8816   27.1878   -6.8065 C   0  0  0  0  0  0  0  0  0  0  0  0
   16.4203   27.9266   -5.7946 C   0  0  0  0  0  0  0  0  0  0  0  0
   16.1217   27.6616   -4.5232 N   0  0  0  0  0  0  0  0  0  0  0  0
    9.6240   24.8199    1.8382 C   0  0  0  0  0  0  0  0  0  0  0  0
    8.2354   24.9814    1.6804 C   0  0  0  0  0  0  0  0  0  0  0  0
    7.5097   25.9050    2.3940 C   0  0  0  0  0  0  0  0  0  0  0  0
    8.1301   26.7250    3.3107 C   0  0  0  0  0  0  0  0  0  0  0  0
    9.4854   26.6001    3.4957 C   0  0  0  0  0  0  0  0  0  0  0  0
   10.2099   25.6724    2.7780 C   0  0  0  0  0  0  0  0  0  0  0  0
    7.3351   27.6970    4.0556 C   0  0  0  0  0  0  0  0  0  0  0  0
    7.1992   28.9835    3.5860 O   0  0  0  0  0  0  0  0  0  0  0  0
    6.7700   27.3745    5.1253 O   0  0  0  0  0  0  0  0  0  0  0  0
    8.0372   29.5075    3.3581 H   0  0  0  0  0  0  0  0  0  0  0  0
    9.7403   19.5032    0.1451 C   0  0  0  0  0  0  0  0  0  0  0  0
   11.2262   19.5702   -0.2591 C   0  0  0  0  0  0  0  0  0  0  0  0
    9.0886   20.4678   -0.9253 C   0  0  0  0  0  0  0  0  0  0  0  0
    9.1478   18.1771   -0.2152 C   0  0  0  0  0  0  0  0  0  0  0  0
  1  2  1  0  0  0
  2  3  1  0  0  0
  3  4  1  0  0  0
  3  5  1  0  0  0
  5  6  1  0  0  0
  6  7  1  0  0  0
  7  8  1  0  0  0
  8  9  2  0  0  0
  8 10  1  0  0  0
 10 13  1  0  0  0
 13 14  2  0  0  0
 14 15  1  0  0  0
 15 16  2  0  0  0
 16 19  1  0  0  0
 19 20  1  0  0  0
 20 21  1  0  0  0
 21 22  2  0  0  0
 22 23  1  0  0  0
 23 24  2  0  0  0
 24 25  1  0  0  0
 25 26  2  0  0  0
 16 17  1  0  0  0
 17 18  2  0  0  0
 10 27  1  0  0  0
 27 28  2  0  0  0
 28 29  1  0  0  0
 29 30  2  0  0  0
 30 31  1  0  0  0
 31 32  2  0  0  0
 30 33  1  0  0  0
 33 34  1  0  0  0
 33 35  2  0  0  0
  6 37  1  0  0  0
 37 38  1  0  0  0
 37 39  1  0  0  0
 37 40  1  0  0  0
  7  2  1  0  0  0
 18 13  1  0  0  0
 32 27  1  0  0  0
 26 21  1  0  0  0
  1 11  1  0  0  0
  4 12  1  0  0  0
 34 36  1  0  0  0
M  END
> <minimizedAffinity>
0.49714

> <CNNscore>
0.5516949892

> <CNNaffinity>
6.6530480385

> <CNN_VS>
3.6704533100

> <CNNaffinity_variance>
0.5902004242

$$$$
[H]OC(=O)c1c([H])c([H])c(N(C(=O)N2[C@@]([H])(C(C([H])([H])[H])(C([H])([H])[H])C([H])([H])[H])C([H])([H])[C@]([H])(O[H])[C@@]2([H])O[H])c2c([H])c([H])c(OC([H])([H])c3nc([H])c([H])c([H])c3[H])c([H])c2[H])c([H])c1[H]


 40 43  0  0  0  0  0  0  0  0999 V2000
   17.1382   27.2949   -2.0833 O   0  0  0  0  0  0  0  0  0  0  0  0
   17.0535   27.1122   -3.4185 C   0  0  0  0  0  0  0  0  0  0  0  0
   16.9360   28.5188   -4.0883 C   0  0  0  0  0  0  0  0  0  0  0  0
   18.1958   29.0381   -4.3523 O   0  0  0  0  0  0  0  0  0  0  0  0
   16.1470   28.2169   -5.3171 C   0  0  0  0  0  0  0  0  0  0  0  0
   16.1672   26.6782   -5.3868 C   0  0  0  0  0  0  0  0  0  0  0  0
   15.9266   26.4157   -3.9732 N   0  0  0  0  0  0  0  0  0  0  0  0
   14.9533   25.6313   -3.3578 C   0  0  0  0  0  0  0  0  0  0  0  0
   13.8953   25.3503   -4.1519 O   0  0  0  0  0  0  0  0  0  0  0  0
   14.7446   25.0312   -2.1364 N   0  0  0  0  0  0  0  0  0  0  0  0
   17.6442   28.1539   -1.9241 H   0  0  0  0  0  0  0  0  0  0  0  0
   18.2617   29.8993   -3.8316 H   0  0  0  0  0  0  0  0  0  0  0  0
   13.4374   24.3919   -1.8685 C   0  0  0  0  0  0  0  0  0  0  0  0
   13.4511   23.0291   -1.7609 C   0  0  0  0  0  0  0  0  0  0  0  0
   12.2446   22.4114   -1.5179 C   0  0  0  0  0  0  0  0  0  0  0  0
   11.0589   23.1581   -1.3885 C   0  0  0  0  0  0  0  0  0  0  0  0
   11.0950   24.5288   -1.5041 C   0  0  0  0  0  0  0  0  0  0  0  0
   12.3005   25.1403   -1.7464 C   0  0  0  0  0  0  0  0  0  0  0  0
    9.9077   22.4631   -1.1472 O   0  0  0  0  0  0  0  0  0  0  0  0
    9.5446   21.6989   -0.0553 C   0  0  0  0  0  0  0  0  0  0  0  0
    9.3297   22.5790    1.1245 C   0  0  0  0  0  0  0  0  0  0  0  0
    8.4829   23.6466    1.1080 C   0  0  0  0  0  0  0  0  0  0  0  0
    8.3273   24.4401    2.2223 C   0  0  0  0  0  0  0  0  0  0  0  0
    9.0540   24.1325    3.3751 C   0  0  0  0  0  0  0  0  0  0  0  0
    9.8926   23.0572    3.3578 C   0  0  0  0  0  0  0  0  0  0  0  0
   10.0203   22.3098    2.2619 N   0  0  0  0  0  0  0  0  0  0  0  0
   15.6267   24.8270   -1.0828 C   0  0  0  0  0  0  0  0  0  0  0  0
   16.9971   24.6120   -1.3176 C   0  0  0  0  0  0  0  0  0  0  0  0
   17.8906   24.3468   -0.3077 C   0  0  0  0  0  0  0  0  0  0  0  0
   17.4670   24.2803    1.0015 C   0  0  0  0  0  0  0  0  0  0  0  0
   16.1364   24.4841    1.2748 C   0  0  0  0  0  0  0  0  0  0  0  0
   15.2432   24.7499    0.2589 C   0  0  0  0  0  0  0  0  0  0  0  0
   18.4376   23.9976    2.0549 C   0  0  0  0  0  0  0  0  0  0  0  0
   18.1987   22.9909    2.9624 O   0  0  0  0  0  0  0  0  0  0  0  0
   19.4937   24.6638    2.1458 O   0  0  0  0  0  0  0  0  0  0  0  0
   17.3172   22.9896    3.4642 H   0  0  0  0  0  0  0  0  0  0  0  0
   15.3605   26.2298   -6.4780 C   0  0  0  0  0  0  0  0  0  0  0  0
   15.3616   24.7072   -6.7175 C   0  0  0  0  0  0  0  0  0  0  0  0
   16.1558   26.7392   -7.7465 C   0  0  0  0  0  0  0  0  0  0  0  0
   13.9973   26.8050   -6.7019 C   0  0  0  0  0  0  0  0  0  0  0  0
  1  2  1  0  0  0
  2  3  1  0  0  0
  3  4  1  0  0  0
  3  5  1  0  0  0
  5  6  1  0  0  0
  6  7  1  0  0  0
  7  8  1  0  0  0
  8  9  2  0  0  0
  8 10  1  0  0  0
 10 13  1  0  0  0
 13 14  2  0  0  0
 14 15  1  0  0  0
 15 16  2  0  0  0
 16 19  1  0  0  0
 19 20  1  0  0  0
 20 21  1  0  0  0
 21 22  2  0  0  0
 22 23  1  0  0  0
 23 24  2  0  0  0
 24 25  1  0  0  0
 25 26  2  0  0  0
 16 17  1  0  0  0
 17 18  2  0  0  0
 10 27  1  0  0  0
 27 28  2  0  0  0
 28 29  1  0  0  0
 29 30  2  0  0  0
 30 31  1  0  0  0
 31 32  2  0  0  0
 30 33  1  0  0  0
 33 34  1  0  0  0
 33 35  2  0  0  0
  6 37  1  0  0  0
 37 38  1  0  0  0
 37 39  1  0  0  0
 37 40  1  0  0  0
  7  2  1  0  0  0
 18 13  1  0  0  0
 32 27  1  0  0  0
 26 21  1  0  0  0
  1 11  1  0  0  0
  4 12  1  0  0  0
 34 36  1  0  0  0
M  END
> <minimizedAffinity>
2.86740

> <CNNscore>
0.4884715378

> <CNNaffinity>
7.1801033020

> <CNN_VS>
3.5072760582

> <CNNaffinity_variance>
0.4748743474

$$$$
[H]OC(=O)c1c([H])c([H])c(N(C(=O)N2[C@@]([H])(C(C([H])([H])[H])(C([H])([H])[H])C([H])([H])[H])C([H])([H])[C@]([H])(O[H])[C@@]2([H])O[H])c2c([H])c([H])c(OC([H])([H])c3nc([H])c([H])c([H])c3[H])c([H])c2[H])c([H])c1[H]


 40 43  0  0  0  0  0  0  0  0999 V2000
   10.8092   20.8927    2.2359 O   0  0  0  0  0  0  0  0  0  0  0  0
   10.1456   21.8042    2.9789 C   0  0  0  0  0  0  0  0  0  0  0  0
    8.6624   21.3305    3.1066 C   0  0  0  0  0  0  0  0  0  0  0  0
    8.5124   20.4930    4.2032 O   0  0  0  0  0  0  0  0  0  0  0  0
    7.9301   22.6226    3.2397 C   0  0  0  0  0  0  0  0  0  0  0  0
    9.0534   23.6472    3.4871 C   0  0  0  0  0  0  0  0  0  0  0  0
    9.9956   23.1475    2.4934 N   0  0  0  0  0  0  0  0  0  0  0  0
   10.6384   23.8115    1.4507 C   0  0  0  0  0  0  0  0  0  0  0  0
   10.0585   24.9849    1.1101 O   0  0  0  0  0  0  0  0  0  0  0  0
   11.7331   23.6218    0.6376 N   0  0  0  0  0  0  0  0  0  0  0  0
   10.4135   19.9864    2.4393 H   0  0  0  0  0  0  0  0  0  0  0  0
    8.1872   19.6093    3.8420 H   0  0  0  0  0  0  0  0  0  0  0  0
   11.9608   24.5592   -0.4843 C   0  0  0  0  0  0  0  0  0  0  0  0
   11.3794   24.2181   -1.6737 C   0  0  0  0  0  0  0  0  0  0  0  0
   11.5829   25.0727   -2.7341 C   0  0  0  0  0  0  0  0  0  0  0  0
   12.3554   26.2399   -2.5890 C   0  0  0  0  0  0  0  0  0  0  0  0
   12.9206   26.5419   -1.3712 C   0  0  0  0  0  0  0  0  0  0  0  0
   12.7148   25.6867   -0.3166 C   0  0  0  0  0  0  0  0  0  0  0  0
   12.5043   27.0303   -3.6933 O   0  0  0  0  0  0  0  0  0  0  0  0
   13.3342   26.8798   -4.7873 C   0  0  0  0  0  0  0  0  0  0  0  0
   14.7514   27.0538   -4.3702 C   0  0  0  0  0  0  0  0  0  0  0  0
   15.3542   26.2570   -3.4434 C   0  0  0  0  0  0  0  0  0  0  0  0
   16.6657   26.4659   -3.0805 C   0  0  0  0  0  0  0  0  0  0  0  0
   17.3720   27.5118   -3.6794 C   0  0  0  0  0  0  0  0  0  0  0  0
   16.7388   28.2903   -4.6030 C   0  0  0  0  0  0  0  0  0  0  0  0
   15.4678   28.0611   -4.9315 N   0  0  0  0  0  0  0  0  0  0  0  0
   12.7736   22.7076    0.7447 C   0  0  0  0  0  0  0  0  0  0  0  0
   14.1001   23.1391    0.9281 C   0  0  0  0  0  0  0  0  0  0  0  0
   15.1632   22.2696    0.9784 C   0  0  0  0  0  0  0  0  0  0  0  0
   14.9639   20.9128    0.8481 C   0  0  0  0  0  0  0  0  0  0  0  0
   13.6837   20.4490    0.6674 C   0  0  0  0  0  0  0  0  0  0  0  0
   12.6198   21.3244    0.6174 C   0  0  0  0  0  0  0  0  0  0  0  0
   16.1111   20.0115    0.9060 C   0  0  0  0  0  0  0  0  0  0  0  0
   17.2649   20.4023    1.5464 O   0  0  0  0  0  0  0  0  0  0  0  0
   16.0604   18.8781    0.3767 O   0  0  0  0  0  0  0  0  0  0  0  0
   17.6881   21.2867    1.2864 H   0  0  0  0  0  0  0  0  0  0  0  0
    8.5056   24.9661    3.5431 C   0  0  0  0  0  0  0  0  0  0  0  0
    9.4970   26.0760    3.9440 C   0  0  0  0  0  0  0  0  0  0  0  0
    7.5725   24.9142    4.8189 C   0  0  0  0  0  0  0  0  0  0  0  0
    7.5683   25.4454    2.4796 C   0  0  0  0  0  0  0  0  0  0  0  0
  1  2  1  0  0  0
  2  3  1  0  0  0
  3  4  1  0  0  0
  3  5  1  0  0  0
  5  6  1  0  0  0
  6  7  1  0  0  0
  7  8  1  0  0  0
  8  9  2  0  0  0
  8 10  1  0  0  0
 10 13  1  0  0  0
 13 14  2  0  0  0
 14 15  1  0  0  0
 15 16  2  0  0  0
 16 19  1  0  0  0
 19 20  1  0  0  0
 20 21  1  0  0  0
 21 22  2  0  0  0
 22 23  1  0  0  0
 23 24  2  0  0  0
 24 25  1  0  0  0
 25 26  2  0  0  0
 16 17  1  0  0  0
 17 18  2  0  0  0
 10 27  1  0  0  0
 27 28  2  0  0  0
 28 29  1  0  0  0
 29 30  2  0  0  0
 30 31  1  0  0  0
 31 32  2  0  0  0
 30 33  1  0  0  0
 33 34  1  0  0  0
 33 35  2  0  0  0
  6 37  1  0  0  0
 37 38  1  0  0  0
 37 39  1  0  0  0
 37 40  1  0  0  0
  7  2  1  0  0  0
 18 13  1  0  0  0
 32 27  1  0  0  0
 26 21  1  0  0  0
  1 11  1  0  0  0
  4 12  1  0  0  0
 34 36  1  0  0  0
M  END
> <minimizedAffinity>
0.27072

> <CNNscore>
0.4820343852

> <CNNaffinity>
7.2682738304

> <CNN_VS>
3.5035579205

> <CNNaffinity_variance>
0.9097812772

$$$$
[H]OC(=O)c1c([H])c([H])c(N(C(=O)N2[C@@]([H])(C(C([H])([H])[H])(C([H])([H])[H])C([H])([H])[H])C([H])([H])[C@]([H])(O[H])[C@@]2([H])O[H])c2c([H])c([H])c(OC([H])([H])c3nc([H])c([H])c([H])c3[H])c([H])c2[H])c([H])c1[H]


 40 43  0  0  0  0  0  0  0  0999 V2000
   11.5325   20.6801    2.0305 O   0  0  0  0  0  0  0  0  0  0  0  0
   10.8803   21.5620    2.8180 C   0  0  0  0  0  0  0  0  0  0  0  0
    9.4415   21.0075    3.0692 C   0  0  0  0  0  0  0  0  0  0  0  0
    9.4282   20.1763    4.1807 O   0  0  0  0  0  0  0  0  0  0  0  0
    8.6501   22.2581    3.2515 C   0  0  0  0  0  0  0  0  0  0  0  0
    9.7296   23.3470    3.3992 C   0  0  0  0  0  0  0  0  0  0  0  0
   10.6155   22.8888    2.3361 N   0  0  0  0  0  0  0  0  0  0  0  0
   11.1335   23.5750    1.2396 C   0  0  0  0  0  0  0  0  0  0  0  0
   10.4622   24.7098    0.9383 O   0  0  0  0  0  0  0  0  0  0  0  0
   12.1681   23.4370    0.3418 N   0  0  0  0  0  0  0  0  0  0  0  0
   11.2067   19.7556    2.2723 H   0  0  0  0  0  0  0  0  0  0  0  0
    9.1257   19.2715    3.8538 H   0  0  0  0  0  0  0  0  0  0  0  0
   12.2510   24.3720   -0.8019 C   0  0  0  0  0  0  0  0  0  0  0  0
   13.5127   24.7084   -1.2067 C   0  0  0  0  0  0  0  0  0  0  0  0
   13.6147   25.5826   -2.2658 C   0  0  0  0  0  0  0  0  0  0  0  0
   12.4667   26.0996   -2.8945 C   0  0  0  0  0  0  0  0  0  0  0  0
   11.2170   25.7311   -2.4518 C   0  0  0  0  0  0  0  0  0  0  0  0
   11.1204   24.8591   -1.3954 C   0  0  0  0  0  0  0  0  0  0  0  0
   12.6614   26.9597   -3.9379 O   0  0  0  0  0  0  0  0  0  0  0  0
   13.6631   27.8874   -4.1485 C   0  0  0  0  0  0  0  0  0  0  0  0
   14.5836   27.3999   -5.2106 C   0  0  0  0  0  0  0  0  0  0  0  0
   15.8252   27.9238   -5.4127 C   0  0  0  0  0  0  0  0  0  0  0  0
   16.6362   27.4473   -6.4180 C   0  0  0  0  0  0  0  0  0  0  0  0
   16.1645   26.4140   -7.2312 C   0  0  0  0  0  0  0  0  0  0  0  0
   14.9173   25.9124   -7.0019 C   0  0  0  0  0  0  0  0  0  0  0  0
   14.1575   26.3968   -6.0201 N   0  0  0  0  0  0  0  0  0  0  0  0
   13.2641   22.5839    0.3711 C   0  0  0  0  0  0  0  0  0  0  0  0
   13.1677   21.2651   -0.1094 C   0  0  0  0  0  0  0  0  0  0  0  0
   14.2107   20.3728   -0.0427 C   0  0  0  0  0  0  0  0  0  0  0  0
   15.4162   20.7458    0.5099 C   0  0  0  0  0  0  0  0  0  0  0  0
   15.5529   22.0250    0.9913 C   0  0  0  0  0  0  0  0  0  0  0  0
   14.5042   22.9173    0.9226 C   0  0  0  0  0  0  0  0  0  0  0  0
   16.5078   19.7779    0.5675 C   0  0  0  0  0  0  0  0  0  0  0  0
   17.5557   19.9695    1.4389 O   0  0  0  0  0  0  0  0  0  0  0  0
   16.5049   18.7671   -0.1712 O   0  0  0  0  0  0  0  0  0  0  0  0
   18.0450   20.8578    1.4211 H   0  0  0  0  0  0  0  0  0  0  0  0
    9.1140   24.6336    3.4893 C   0  0  0  0  0  0  0  0  0  0  0  0
    8.3153   24.8940    4.7816 C   0  0  0  0  0  0  0  0  0  0  0  0
    7.9499   24.5511    2.4220 C   0  0  0  0  0  0  0  0  0  0  0  0
    9.8544   25.8619    3.0621 C   0  0  0  0  0  0  0  0  0  0  0  0
  1  2  1  0  0  0
  2  3  1  0  0  0
  3  4  1  0  0  0
  3  5  1  0  0  0
  5  6  1  0  0  0
  6  7  1  0  0  0
  7  8  1  0  0  0
  8  9  2  0  0  0
  8 10  1  0  0  0
 10 13  1  0  0  0
 13 14  2  0  0  0
 14 15  1  0  0  0
 15 16  2  0  0  0
 16 19  1  0  0  0
 19 20  1  0  0  0
 20 21  1  0  0  0
 21 22  2  0  0  0
 22 23  1  0  0  0
 23 24  2  0  0  0
 24 25  1  0  0  0
 25 26  2  0  0  0
 16 17  1  0  0  0
 17 18  2  0  0  0
 10 27  1  0  0  0
 27 28  2  0  0  0
 28 29  1  0  0  0
 29 30  2  0  0  0
 30 31  1  0  0  0
 31 32  2  0  0  0
 30 33  1  0  0  0
 33 34  1  0  0  0
 33 35  2  0  0  0
  6 37  1  0  0  0
 37 38  1  0  0  0
 37 39  1  0  0  0
 37 40  1  0  0  0
  7  2  1  0  0  0
 18 13  1  0  0  0
 32 27  1  0  0  0
 26 21  1  0  0  0
  1 11  1  0  0  0
  4 12  1  0  0  0
 34 36  1  0  0  0
M  END
> <minimizedAffinity>
4.25333

> <CNNscore>
0.4342832565

> <CNNaffinity>
6.9955797195

> <CNN_VS>
3.0380630493

> <CNNaffinity_variance>
1.0233042240

$$$$
[H]OC(=O)c1c([H])c([H])c(N(C(=O)N2[C@@]([H])(C(C([H])([H])[H])(C([H])([H])[H])C([H])([H])[H])C([H])([H])[C@]([H])(O[H])[C@@]2([H])O[H])c2c([H])c([H])c(OC([H])([H])c3nc([H])c([H])c([H])c3[H])c([H])c2[H])c([H])c1[H]


 40 43  0  0  0  0  0  0  0  0999 V2000
    7.8406   22.5427    3.5936 O   0  0  0  0  0  0  0  0  0  0  0  0
    7.4176   21.6959    2.6307 C   0  0  0  0  0  0  0  0  0  0  0  0
    7.6573   20.2371    3.1360 C   0  0  0  0  0  0  0  0  0  0  0  0
    6.5605   19.7864    3.8574 O   0  0  0  0  0  0  0  0  0  0  0  0
    7.8772   19.4951    1.8614 C   0  0  0  0  0  0  0  0  0  0  0  0
    7.4410   20.5023    0.7806 C   0  0  0  0  0  0  0  0  0  0  0  0
    8.0709   21.6863    1.3517 N   0  0  0  0  0  0  0  0  0  0  0  0
    8.9596   22.5952    0.7811 C   0  0  0  0  0  0  0  0  0  0  0  0
    9.5759   22.1326   -0.3304 O   0  0  0  0  0  0  0  0  0  0  0  0
    9.4090   23.8744    1.0201 N   0  0  0  0  0  0  0  0  0  0  0  0
    7.6568   22.1070    4.4857 H   0  0  0  0  0  0  0  0  0  0  0  0
    6.8982   19.5770    4.7843 H   0  0  0  0  0  0  0  0  0  0  0  0
   10.5192   24.4067    0.1995 C   0  0  0  0  0  0  0  0  0  0  0  0
   11.5636   24.9532    0.8920 C   0  0  0  0  0  0  0  0  0  0  0  0
   12.6059   25.4608    0.1489 C   0  0  0  0  0  0  0  0  0  0  0  0
   12.5862   25.4142   -1.2574 C   0  0  0  0  0  0  0  0  0  0  0  0
   11.5126   24.8534   -1.9105 C   0  0  0  0  0  0  0  0  0  0  0  0
   10.4756   24.3484   -1.1652 C   0  0  0  0  0  0  0  0  0  0  0  0
   13.6626   25.9404   -1.9137 O   0  0  0  0  0  0  0  0  0  0  0  0
   14.8291   25.3325   -2.3356 C   0  0  0  0  0  0  0  0  0  0  0  0
   14.8882   23.9415   -1.8117 C   0  0  0  0  0  0  0  0  0  0  0  0
   15.3830   23.6342   -0.5797 C   0  0  0  0  0  0  0  0  0  0  0  0
   15.4288   22.3290   -0.1440 C   0  0  0  0  0  0  0  0  0  0  0  0
   14.9583   21.3202   -0.9881 C   0  0  0  0  0  0  0  0  0  0  0  0
   14.4696   21.6622   -2.2146 C   0  0  0  0  0  0  0  0  0  0  0  0
   14.4399   22.9357   -2.6058 N   0  0  0  0  0  0  0  0  0  0  0  0
    8.9156   24.8442    1.8837 C   0  0  0  0  0  0  0  0  0  0  0  0
    7.6535   25.4284    1.6708 C   0  0  0  0  0  0  0  0  0  0  0  0
    7.1564   26.4323    2.4669 C   0  0  0  0  0  0  0  0  0  0  0  0
    7.8929   26.9142    3.5266 C   0  0  0  0  0  0  0  0  0  0  0  0
    9.1310   26.3713    3.7698 C   0  0  0  0  0  0  0  0  0  0  0  0
    9.6262   25.3643    2.9689 C   0  0  0  0  0  0  0  0  0  0  0  0
    7.3405   27.9808    4.3566 C   0  0  0  0  0  0  0  0  0  0  0  0
    7.4718   29.2951    3.9702 O   0  0  0  0  0  0  0  0  0  0  0  0
    6.7437   27.7150    5.4246 O   0  0  0  0  0  0  0  0  0  0  0  0
    8.3971   29.6440    3.7443 H   0  0  0  0  0  0  0  0  0  0  0  0
    7.6861   19.9590   -0.5184 C   0  0  0  0  0  0  0  0  0  0  0  0
    6.8871   18.6868   -0.8632 C   0  0  0  0  0  0  0  0  0  0  0  0
    9.1508   19.3755   -0.3938 C   0  0  0  0  0  0  0  0  0  0  0  0
    7.7993   20.8581   -1.7092 C   0  0  0  0  0  0  0  0  0  0  0  0
  1  2  1  0  0  0
  2  3  1  0  0  0
  3  4  1  0  0  0
  3  5  1  0  0  0
  5  6  1  0  0  0
  6  7  1  0  0  0
  7  8  1  0  0  0
  8  9  2  0  0  0
  8 10  1  0  0  0
 10 13  1  0  0  0
 13 14  2  0  0  0
 14 15  1  0  0  0
 15 16  2  0  0  0
 16 19  1  0  0  0
 19 20  1  0  0  0
 20 21  1  0  0  0
 21 22  2  0  0  0
 22 23  1  0  0  0
 23 24  2  0  0  0
 24 25  1  0  0  0
 25 26  2  0  0  0
 16 17  1  0  0  0
 17 18  2  0  0  0
 10 27  1  0  0  0
 27 28  2  0  0  0
 28 29  1  0  0  0
 29 30  2  0  0  0
 30 31  1  0  0  0
 31 32  2  0  0  0
 30 33  1  0  0  0
 33 34  1  0  0  0
 33 35  2  0  0  0
  6 37  1  0  0  0
 37 38  1  0  0  0
 37 39  1  0  0  0
 37 40  1  0  0  0
  7  2  1  0  0  0
 18 13  1  0  0  0
 32 27  1  0  0  0
 26 21  1  0  0  0
  1 11  1  0  0  0
  4 12  1  0  0  0
 34 36  1  0  0  0
M  END
> <minimizedAffinity>
-0.35727

> <CNNscore>
0.3941679597

> <CNNaffinity>
6.6876878738

> <CNN_VS>
2.6360723972

> <CNNaffinity_variance>
0.5777313113

$$$$
[H]OC(=O)c1c([H])c([H])c(N(C(=O)N2[C@@]([H])(C(C([H])([H])[H])(C([H])([H])[H])C([H])([H])[H])C([H])([H])[C@]([H])(O[H])[C@@]2([H])O[H])c2c([H])c([H])c(OC([H])([H])c3nc([H])c([H])c([H])c3[H])c([H])c2[H])c([H])c1[H]


 40 43  0  0  0  0  0  0  0  0999 V2000
   17.1244   27.3020   -2.0684 O   0  0  0  0  0  0  0  0  0  0  0  0
   17.0470   27.1251   -3.4048 C   0  0  0  0  0  0  0  0  0  0  0  0
   16.9149   28.5335   -4.0679 C   0  0  0  0  0  0  0  0  0  0  0  0
   18.1692   29.0694   -4.3245 O   0  0  0  0  0  0  0  0  0  0  0  0
   16.1342   28.2284   -5.3012 C   0  0  0  0  0  0  0  0  0  0  0  0
   16.1733   26.6904   -5.3786 C   0  0  0  0  0  0  0  0  0  0  0  0
   15.9307   26.4178   -3.9673 N   0  0  0  0  0  0  0  0  0  0  0  0
   14.9647   25.6186   -3.3595 C   0  0  0  0  0  0  0  0  0  0  0  0
   13.9131   25.3288   -4.1590 O   0  0  0  0  0  0  0  0  0  0  0  0
   14.7587   25.0098   -2.1419 N   0  0  0  0  0  0  0  0  0  0  0  0
   17.6194   28.1663   -1.9029 H   0  0  0  0  0  0  0  0  0  0  0  0
   18.2227   29.9287   -3.7992 H   0  0  0  0  0  0  0  0  0  0  0  0
   13.4585   24.3533   -1.8822 C   0  0  0  0  0  0  0  0  0  0  0  0
   13.4872   22.9897   -1.7884 C   0  0  0  0  0  0  0  0  0  0  0  0
   12.2873   22.3562   -1.5532 C   0  0  0  0  0  0  0  0  0  0  0  0
   11.0932   23.0883   -1.4178 C   0  0  0  0  0  0  0  0  0  0  0  0
   11.1142   24.4605   -1.5195 C   0  0  0  0  0  0  0  0  0  0  0  0
   12.3131   25.0878   -1.7540 C   0  0  0  0  0  0  0  0  0  0  0  0
    9.9496   22.3782   -1.1851 O   0  0  0  0  0  0  0  0  0  0  0  0
    9.7139   21.3378   -0.3074 C   0  0  0  0  0  0  0  0  0  0  0  0
    8.6240   20.4734   -0.8345 C   0  0  0  0  0  0  0  0  0  0  0  0
    8.3358   20.3713   -2.1625 C   0  0  0  0  0  0  0  0  0  0  0  0
    7.3080   19.5672   -2.6009 C   0  0  0  0  0  0  0  0  0  0  0  0
    6.5617   18.8544   -1.6593 C   0  0  0  0  0  0  0  0  0  0  0  0
    6.8764   18.9792   -0.3382 C   0  0  0  0  0  0  0  0  0  0  0  0
    7.8778   19.7668    0.0527 N   0  0  0  0  0  0  0  0  0  0  0  0
   15.6394   24.8109   -1.0861 C   0  0  0  0  0  0  0  0  0  0  0  0
   17.0039   24.5597   -1.3193 C   0  0  0  0  0  0  0  0  0  0  0  0
   17.8944   24.2986   -0.3056 C   0  0  0  0  0  0  0  0  0  0  0  0
   17.4734   24.2727    1.0059 C   0  0  0  0  0  0  0  0  0  0  0  0
   16.1486   24.5127    1.2777 C   0  0  0  0  0  0  0  0  0  0  0  0
   15.2584   24.7743    0.2581 C   0  0  0  0  0  0  0  0  0  0  0  0
   18.4408   23.9934    2.0632 C   0  0  0  0  0  0  0  0  0  0  0  0
   18.2019   22.9856    2.9695 O   0  0  0  0  0  0  0  0  0  0  0  0
   19.4940   24.6635    2.1586 O   0  0  0  0  0  0  0  0  0  0  0  0
   17.3183   22.9809    3.4677 H   0  0  0  0  0  0  0  0  0  0  0  0
   15.3762   26.2378   -6.4751 C   0  0  0  0  0  0  0  0  0  0  0  0
   15.4089   24.7184   -6.7319 C   0  0  0  0  0  0  0  0  0  0  0  0
   16.1609   26.7780   -7.7374 C   0  0  0  0  0  0  0  0  0  0  0  0
   14.0013   26.7871   -6.6929 C   0  0  0  0  0  0  0  0  0  0  0  0
  1  2  1  0  0  0
  2  3  1  0  0  0
  3  4  1  0  0  0
  3  5  1  0  0  0
  5  6  1  0  0  0
  6  7  1  0  0  0
  7  8  1  0  0  0
  8  9  2  0  0  0
  8 10  1  0  0  0
 10 13  1  0  0  0
 13 14  2  0  0  0
 14 15  1  0  0  0
 15 16  2  0  0  0
 16 19  1  0  0  0
 19 20  1  0  0  0
 20 21  1  0  0  0
 21 22  2  0  0  0
 22 23  1  0  0  0
 23 24  2  0  0  0
 24 25  1  0  0  0
 25 26  2  0  0  0
 16 17  1  0  0  0
 17 18  2  0  0  0
 10 27  1  0  0  0
 27 28  2  0  0  0
 28 29  1  0  0  0
 29 30  2  0  0  0
 30 31  1  0  0  0
 31 32  2  0  0  0
 30 33  1  0  0  0
 33 34  1  0  0  0
 33 35  2  0  0  0
  6 37  1  0  0  0
 37 38  1  0  0  0
 37 39  1  0  0  0
 37 40  1  0  0  0
  7  2  1  0  0  0
 18 13  1  0  0  0
 32 27  1  0  0  0
 26 21  1  0  0  0
  1 11  1  0  0  0
  4 12  1  0  0  0
 34 36  1  0  0  0
M  END
> <minimizedAffinity>
3.11932

> <CNNscore>
0.3892660737

> <CNNaffinity>
6.9333448410

> <CNN_VS>
2.6989159584

> <CNNaffinity_variance>
0.3584714532

$$$$
[H]OC(=O)c1c([H])c([H])c(N(C(=O)N2[C@@]([H])(C(C([H])([H])[H])(C([H])([H])[H])C([H])([H])[H])C([H])([H])[C@]([H])(O[H])[C@@]2([H])O[H])c2c([H])c([H])c(OC([H])([H])c3nc([H])c([H])c([H])c3[H])c([H])c2[H])c([H])c1[H]


 40 43  0  0  0  0  0  0  0  0999 V2000
   16.8233   25.0998   -1.2262 O   0  0  0  0  0  0  0  0  0  0  0  0
   16.5261   25.5909   -2.4484 C   0  0  0  0  0  0  0  0  0  0  0  0
   17.1049   27.0393   -2.5369 C   0  0  0  0  0  0  0  0  0  0  0  0
   18.4164   27.0116   -2.9904 O   0  0  0  0  0  0  0  0  0  0  0  0
   16.1609   27.6978   -3.4849 C   0  0  0  0  0  0  0  0  0  0  0  0
   15.3585   26.5193   -4.0680 C   0  0  0  0  0  0  0  0  0  0  0  0
   15.1538   25.7880   -2.8237 N   0  0  0  0  0  0  0  0  0  0  0  0
   13.9780   25.3264   -2.2356 C   0  0  0  0  0  0  0  0  0  0  0  0
   12.8601   25.9246   -2.7062 O   0  0  0  0  0  0  0  0  0  0  0  0
   13.6033   24.4036   -1.2851 N   0  0  0  0  0  0  0  0  0  0  0  0
   17.7192   25.4778   -0.9548 H   0  0  0  0  0  0  0  0  0  0  0  0
   18.9773   27.4222   -2.2597 H   0  0  0  0  0  0  0  0  0  0  0  0
   12.1889   24.3566   -0.8535 C   0  0  0  0  0  0  0  0  0  0  0  0
   11.9458   24.7409    0.4358 C   0  0  0  0  0  0  0  0  0  0  0  0
   10.6370   24.6994    0.8619 C   0  0  0  0  0  0  0  0  0  0  0  0
    9.6057   24.2789    0.0017 C   0  0  0  0  0  0  0  0  0  0  0  0
    9.8992   23.9018   -1.2887 C   0  0  0  0  0  0  0  0  0  0  0  0
   11.2059   23.9450   -1.7091 C   0  0  0  0  0  0  0  0  0  0  0  0
    8.3367   24.2697    0.5078 O   0  0  0  0  0  0  0  0  0  0  0  0
    7.8437   23.6826    1.6569 C   0  0  0  0  0  0  0  0  0  0  0  0
    8.0344   24.6010    2.8115 C   0  0  0  0  0  0  0  0  0  0  0  0
    7.6759   25.9153    2.7799 C   0  0  0  0  0  0  0  0  0  0  0  0
    7.8847   26.7292    3.8705 C   0  0  0  0  0  0  0  0  0  0  0  0
    8.4722   26.1846    5.0149 C   0  0  0  0  0  0  0  0  0  0  0  0
    8.8190   24.8656    5.0132 C   0  0  0  0  0  0  0  0  0  0  0  0
    8.6034   24.1054    3.9401 N   0  0  0  0  0  0  0  0  0  0  0  0
   14.3416   23.3877   -0.6912 C   0  0  0  0  0  0  0  0  0  0  0  0
   14.2279   22.0569   -1.1335 C   0  0  0  0  0  0  0  0  0  0  0  0
   14.8950   21.0158   -0.5337 C   0  0  0  0  0  0  0  0  0  0  0  0
   15.7181   21.2427    0.5474 C   0  0  0  0  0  0  0  0  0  0  0  0
   15.8574   22.5280    1.0114 C   0  0  0  0  0  0  0  0  0  0  0  0
   15.1866   23.5698    0.4070 C   0  0  0  0  0  0  0  0  0  0  0  0
   16.4154   20.1185    1.1652 C   0  0  0  0  0  0  0  0  0  0  0  0
   17.1981   20.3190    2.2793 O   0  0  0  0  0  0  0  0  0  0  0  0
   16.3110   18.9642    0.6919 O   0  0  0  0  0  0  0  0  0  0  0  0
   17.9151   21.0358    2.2456 H   0  0  0  0  0  0  0  0  0  0  0  0
   14.3355   27.0097   -4.9372 C   0  0  0  0  0  0  0  0  0  0  0  0
   14.3009   26.3734   -6.3407 C   0  0  0  0  0  0  0  0  0  0  0  0
   14.8245   28.4746   -5.2778 C   0  0  0  0  0  0  0  0  0  0  0  0
   12.9501   27.2454   -4.4231 C   0  0  0  0  0  0  0  0  0  0  0  0
  1  2  1  0  0  0
  2  3  1  0  0  0
  3  4  1  0  0  0
  3  5  1  0  0  0
  5  6  1  0  0  0
  6  7  1  0  0  0
  7  8  1  0  0  0
  8  9  2  0  0  0
  8 10  1  0  0  0
 10 13  1  0  0  0
 13 14  2  0  0  0
 14 15  1  0  0  0
 15 16  2  0  0  0
 16 19  1  0  0  0
 19 20  1  0  0  0
 20 21  1  0  0  0
 21 22  2  0  0  0
 22 23  1  0  0  0
 23 24  2  0  0  0
 24 25  1  0  0  0
 25 26  2  0  0  0
 16 17  1  0  0  0
 17 18  2  0  0  0
 10 27  1  0  0  0
 27 28  2  0  0  0
 28 29  1  0  0  0
 29 30  2  0  0  0
 30 31  1  0  0  0
 31 32  2  0  0  0
 30 33  1  0  0  0
 33 34  1  0  0  0
 33 35  2  0  0  0
  6 37  1  0  0  0
 37 38  1  0  0  0
 37 39  1  0  0  0
 37 40  1  0  0  0
  7  2  1  0  0  0
 18 13  1  0  0  0
 32 27  1  0  0  0
 26 21  1  0  0  0
  1 11  1  0  0  0
  4 12  1  0  0  0
 34 36  1  0  0  0
M  END
> <minimizedAffinity>
1.52606

> <CNNscore>
0.3674885631

> <CNNaffinity>
7.0248060226

> <CNN_VS>
2.5815358162

> <CNNaffinity_variance>
0.3149239123

$$$$
[H]c1c([H])c(-c2noc(C([H])([H])[H])n2)c([H])c([H])c1C(=O)N([H])C(C([H])([H])[H])(C([H])([H])[H])C([H])([H])[H]


 20 21  0  0  0  0  0  0  0  0999 V2000
   13.7159   25.1865   -3.0199 C   0  0  0  0  0  0  0  0  0  0  0  0
   12.6262   25.6795   -2.3551 C   0  0  0  0  0  0  0  0  0  0  0  0
   12.0913   25.0173   -1.2395 C   0  0  0  0  0  0  0  0  0  0  0  0
   12.6488   23.8496   -0.7805 C   0  0  0  0  0  0  0  0  0  0  0  0
   13.7585   23.3573   -1.4661 C   0  0  0  0  0  0  0  0  0  0  0  0
   14.2796   24.0231   -2.5709 C   0  0  0  0  0  0  0  0  0  0  0  0
   15.9764   26.3347   -7.3734 C   0  0  0  0  0  0  0  0  0  0  0  0
   15.2301   26.4052   -6.0697 C   0  0  0  0  0  0  0  0  0  0  0  0
   14.9246   25.4026   -5.2295 N   0  0  0  0  0  0  0  0  0  0  0  0
   14.2419   25.8903   -4.1628 C   0  0  0  0  0  0  0  0  0  0  0  0
   14.1584   27.2299   -4.4128 N   0  0  0  0  0  0  0  0  0  0  0  0
   14.7439   27.4927   -5.5301 O   0  0  0  0  0  0  0  0  0  0  0  0
   12.1306   23.1145    0.3821 C   0  0  0  0  0  0  0  0  0  0  0  0
   12.9084   22.7917    1.3316 O   0  0  0  0  0  0  0  0  0  0  0  0
   10.7845   22.7389    0.5038 N   0  0  0  0  0  0  0  0  0  0  0  0
   10.1282   22.9846   -0.2467 H   0  0  0  0  0  0  0  0  0  0  0  0
   10.2629   22.0129    1.6476 C   0  0  0  0  0  0  0  0  0  0  0  0
   11.1100   20.8088    1.9273 C   0  0  0  0  0  0  0  0  0  0  0  0
    8.8382   21.6164    1.3095 C   0  0  0  0  0  0  0  0  0  0  0  0
   10.2162   22.8933    2.8778 C   0  0  0  0  0  0  0  0  0  0  0  0
  7  8  1  0  0  0
  8  9  2  0  0  0
  9 10  1  0  0  0
 10 11  2  0  0  0
 11 12  1  0  0  0
 10  1  1  0  0  0
  1  2  2  0  0  0
  2  3  1  0  0  0
  3  4  2  0  0  0
  4  5  1  0  0  0
  5  6  2  0  0  0
  4 13  1  0  0  0
 13 14  2  0  0  0
 13 15  1  0  0  0
 15 17  1  0  0  0
 17 18  1  0  0  0
 17 19  1  0  0  0
 17 20  1  0  0  0
 12  8  1  0  0  0
  6  1  1  0  0  0
 15 16  1  0  0  0
M  END
> <minimizedAffinity>
-8.11927

> <CNNscore>
0.4812546372

> <CNNaffinity>
5.8769612312

> <CNN_VS>
2.8283147812

> <CNNaffinity_variance>
0.2366338074

$$$$
[H]c1c([H])c(-c2noc(C([H])([H])[H])n2)c([H])c([H])c1C(=O)N([H])C(C([H])([H])[H])(C([H])([H])[H])C([H])([H])[H]


 20 21  0  0  0  0  0  0  0  0999 V2000
   13.7081   25.2194   -3.0003 C   0  0  0  0  0  0  0  0  0  0  0  0
   14.3067   24.0701   -2.5605 C   0  0  0  0  0  0  0  0  0  0  0  0
   13.8100   23.3671   -1.4523 C   0  0  0  0  0  0  0  0  0  0  0  0
   12.7033   23.8144   -0.7739 C   0  0  0  0  0  0  0  0  0  0  0  0
   12.1023   24.9863   -1.2314 C   0  0  0  0  0  0  0  0  0  0  0  0
   12.6043   25.6744   -2.3314 C   0  0  0  0  0  0  0  0  0  0  0  0
   15.9889   26.3487   -7.3482 C   0  0  0  0  0  0  0  0  0  0  0  0
   15.2398   26.4254   -6.0465 C   0  0  0  0  0  0  0  0  0  0  0  0
   14.9242   25.4253   -5.2068 N   0  0  0  0  0  0  0  0  0  0  0  0
   14.2426   25.9187   -4.1420 C   0  0  0  0  0  0  0  0  0  0  0  0
   14.1703   27.2588   -4.3926 N   0  0  0  0  0  0  0  0  0  0  0  0
   14.7607   27.5168   -5.5084 O   0  0  0  0  0  0  0  0  0  0  0  0
   12.1402   23.1188    0.3921 C   0  0  0  0  0  0  0  0  0  0  0  0
   12.8907   22.7826    1.3587 O   0  0  0  0  0  0  0  0  0  0  0  0
   10.7790   22.7964    0.4987 N   0  0  0  0  0  0  0  0  0  0  0  0
   10.1439   23.0542   -0.2657 H   0  0  0  0  0  0  0  0  0  0  0  0
   10.2130   22.1097    1.6458 C   0  0  0  0  0  0  0  0  0  0  0  0
   10.2036   23.0157    2.8394 C   0  0  0  0  0  0  0  0  0  0  0  0
   11.0683   20.8818    1.8943 C   0  0  0  0  0  0  0  0  0  0  0  0
    8.8035   21.6388    1.3591 C   0  0  0  0  0  0  0  0  0  0  0  0
  7  8  1  0  0  0
  8  9  2  0  0  0
  9 10  1  0  0  0
 10 11  2  0  0  0
 11 12  1  0  0  0
 10  1  1  0  0  0
  1  2  2  0  0  0
  2  3  1  0  0  0
  3  4  2  0  0  0
  4  5  1  0  0  0
  5  6  2  0  0  0
  4 13  1  0  0  0
 13 14  2  0  0  0
 13 15  1  0  0  0
 15 17  1  0  0  0
 17 18  1  0  0  0
 17 19  1  0  0  0
 17 20  1  0  0  0
 12  8  1  0  0  0
  6  1  1  0  0  0
 15 16  1  0  0  0
M  END
> <minimizedAffinity>
-8.08105

> <CNNscore>
0.4784431756

> <CNNaffinity>
5.8722734451

> <CNN_VS>
2.8095490932

> <CNNaffinity_variance>
0.2193154097

$$$$
[H]c1c([H])c(-c2noc(C([H])([H])[H])n2)c([H])c([H])c1C(=O)N([H])C(C([H])([H])[H])(C([H])([H])[H])C([H])([H])[H]


 20 21  0  0  0  0  0  0  0  0999 V2000
   14.4312   25.4966   -2.9015 C   0  0  0  0  0  0  0  0  0  0  0  0
   14.8721   24.2326   -2.6179 C   0  0  0  0  0  0  0  0  0  0  0  0
   14.0296   23.2835   -2.0193 C   0  0  0  0  0  0  0  0  0  0  0  0
   12.7318   23.5973   -1.6993 C   0  0  0  0  0  0  0  0  0  0  0  0
   12.2942   24.8880   -1.9931 C   0  0  0  0  0  0  0  0  0  0  0  0
   13.1393   25.8203   -2.5867 C   0  0  0  0  0  0  0  0  0  0  0  0
   18.4159   28.3673   -4.0253 C   0  0  0  0  0  0  0  0  0  0  0  0
   17.0621   27.7125   -4.0185 C   0  0  0  0  0  0  0  0  0  0  0  0
   16.5957   26.7722   -3.1800 N   0  0  0  0  0  0  0  0  0  0  0  0
   15.3213   26.4492   -3.5168 C   0  0  0  0  0  0  0  0  0  0  0  0
   15.0566   27.2438   -4.5949 N   0  0  0  0  0  0  0  0  0  0  0  0
   16.0916   27.9648   -4.8580 O   0  0  0  0  0  0  0  0  0  0  0  0
   11.8059   22.6435   -1.0720 C   0  0  0  0  0  0  0  0  0  0  0  0
   10.7936   22.2221   -1.7112 O   0  0  0  0  0  0  0  0  0  0  0  0
   11.9843   22.1591    0.2324 N   0  0  0  0  0  0  0  0  0  0  0  0
   12.7932   22.4798    0.7774 H   0  0  0  0  0  0  0  0  0  0  0  0
   11.0758   21.2173    0.8610 C   0  0  0  0  0  0  0  0  0  0  0  0
    9.7729   21.8866    1.1776 C   0  0  0  0  0  0  0  0  0  0  0  0
   11.7570   20.7167    2.1205 C   0  0  0  0  0  0  0  0  0  0  0  0
   10.8245   20.0219   -0.0327 C   0  0  0  0  0  0  0  0  0  0  0  0
  7  8  1  0  0  0
  8  9  2  0  0  0
  9 10  1  0  0  0
 10 11  2  0  0  0
 11 12  1  0  0  0
 10  1  1  0  0  0
  1  2  2  0  0  0
  2  3  1  0  0  0
  3  4  2  0  0  0
  4  5  1  0  0  0
  5  6  2  0  0  0
  4 13  1  0  0  0
 13 14  2  0  0  0
 13 15  1  0  0  0
 15 17  1  0  0  0
 17 18  1  0  0  0
 17 19  1  0  0  0
 17 20  1  0  0  0
 12  8  1  0  0  0
  6  1  1  0  0  0
 15 16  1  0  0  0
M  END
> <minimizedAffinity>
-7.53805

> <CNNscore>
0.4266642332

> <CNNaffinity>
5.8322286606

> <CNN_VS>
2.4884033203

> <CNNaffinity_variance>
0.2889677882

$$$$
[H]c1c([H])c(-c2noc(C([H])([H])[H])n2)c([H])c([H])c1C(=O)N([H])C(C([H])([H])[H])(C([H])([H])[H])C([H])([H])[H]


 20 21  0  0  0  0  0  0  0  0999 V2000
   12.0898   25.1171   -1.4716 C   0  0  0  0  0  0  0  0  0  0  0  0
   11.0455   24.2520   -1.6547 C   0  0  0  0  0  0  0  0  0  0  0  0
   10.3238   23.7391   -0.5660 C   0  0  0  0  0  0  0  0  0  0  0  0
   10.6463   24.0924    0.7209 C   0  0  0  0  0  0  0  0  0  0  0  0
   11.7120   24.9743    0.8946 C   0  0  0  0  0  0  0  0  0  0  0  0
   12.4199   25.4760   -0.1930 C   0  0  0  0  0  0  0  0  0  0  0  0
   15.3075   25.6631   -5.3095 C   0  0  0  0  0  0  0  0  0  0  0  0
   14.2175   25.8766   -4.2957 C   0  0  0  0  0  0  0  0  0  0  0  0
   13.8348   25.0605   -3.2996 N   0  0  0  0  0  0  0  0  0  0  0  0
   12.8116   25.6266   -2.6107 C   0  0  0  0  0  0  0  0  0  0  0  0
   12.6076   26.8168   -3.2477 N   0  0  0  0  0  0  0  0  0  0  0  0
   13.4432   26.9279   -4.2222 O   0  0  0  0  0  0  0  0  0  0  0  0
    9.9253   23.5864    1.8976 C   0  0  0  0  0  0  0  0  0  0  0  0
    8.7641   24.0202    2.1699 O   0  0  0  0  0  0  0  0  0  0  0  0
   10.4656   22.6224    2.7618 N   0  0  0  0  0  0  0  0  0  0  0  0
   11.4032   22.2504    2.5703 H   0  0  0  0  0  0  0  0  0  0  0  0
    9.7619   22.1164    3.9264 C   0  0  0  0  0  0  0  0  0  0  0  0
    9.3754   23.2474    4.8303 C   0  0  0  0  0  0  0  0  0  0  0  0
   10.6986   21.1494    4.6254 C   0  0  0  0  0  0  0  0  0  0  0  0
    8.5225   21.3468    3.5234 C   0  0  0  0  0  0  0  0  0  0  0  0
  7  8  1  0  0  0
  8  9  2  0  0  0
  9 10  1  0  0  0
 10 11  2  0  0  0
 11 12  1  0  0  0
 10  1  1  0  0  0
  1  2  2  0  0  0
  2  3  1  0  0  0
  3  4  2  0  0  0
  4  5  1  0  0  0
  5  6  2  0  0  0
  4 13  1  0  0  0
 13 14  2  0  0  0
 13 15  1  0  0  0
 15 17  1  0  0  0
 17 18  1  0  0  0
 17 19  1  0  0  0
 17 20  1  0  0  0
 12  8  1  0  0  0
  6  1  1  0  0  0
 15 16  1  0  0  0
M  END
> <minimizedAffinity>
-6.95378

> <CNNscore>
0.3970510364

> <CNNaffinity>
5.2607393265

> <CNN_VS>
2.0887820721

> <CNNaffinity_variance>
0.3391818702

$$$$
[H]c1c([H])c(-c2noc(C([H])([H])[H])n2)c([H])c([H])c1C(=O)N([H])C(C([H])([H])[H])(C([H])([H])[H])C([H])([H])[H]


 20 21  0  0  0  0  0  0  0  0999 V2000
   14.0040   25.1866   -3.1758 C   0  0  0  0  0  0  0  0  0  0  0  0
   12.8781   25.6913   -2.5841 C   0  0  0  0  0  0  0  0  0  0  0  0
   12.1925   24.9751   -1.5910 C   0  0  0  0  0  0  0  0  0  0  0  0
   12.6340   23.7410   -1.1822 C   0  0  0  0  0  0  0  0  0  0  0  0
   13.7820   23.2375   -1.7923 C   0  0  0  0  0  0  0  0  0  0  0  0
   14.4529   23.9572   -2.7759 C   0  0  0  0  0  0  0  0  0  0  0  0
   16.0763   28.9188   -5.8511 C   0  0  0  0  0  0  0  0  0  0  0  0
   15.5976   27.5752   -5.3745 C   0  0  0  0  0  0  0  0  0  0  0  0
   14.9302   27.2808   -4.2464 N   0  0  0  0  0  0  0  0  0  0  0  0
   14.6858   25.9469   -4.1932 C   0  0  0  0  0  0  0  0  0  0  0  0
   15.2410   25.4667   -5.3444 N   0  0  0  0  0  0  0  0  0  0  0  0
   15.7619   26.4419   -6.0060 O   0  0  0  0  0  0  0  0  0  0  0  0
   11.9561   22.9475   -0.1472 C   0  0  0  0  0  0  0  0  0  0  0  0
   11.9049   23.3690    1.0489 O   0  0  0  0  0  0  0  0  0  0  0  0
   11.3447   21.7138   -0.4161 N   0  0  0  0  0  0  0  0  0  0  0  0
   11.3678   21.3438   -1.3735 H   0  0  0  0  0  0  0  0  0  0  0  0
   10.6729   20.9226    0.5988 C   0  0  0  0  0  0  0  0  0  0  0  0
   10.1594   19.6461    0.0050 C   0  0  0  0  0  0  0  0  0  0  0  0
    9.5392   21.7703    1.1442 C   0  0  0  0  0  0  0  0  0  0  0  0
   11.6045   20.6048    1.7486 C   0  0  0  0  0  0  0  0  0  0  0  0
  7  8  1  0  0  0
  8  9  2  0  0  0
  9 10  1  0  0  0
 10 11  2  0  0  0
 11 12  1  0  0  0
 10  1  1  0  0  0
  1  2  2  0  0  0
  2  3  1  0  0  0
  3  4  2  0  0  0
  4  5  1  0  0  0
  5  6  2  0  0  0
  4 13  1  0  0  0
 13 14  2  0  0  0
 13 15  1  0  0  0
 15 17  1  0  0  0
 17 18  1  0  0  0
 17 19  1  0  0  0
 17 20  1  0  0  0
 12  8  1  0  0  0
  6  1  1  0  0  0
 15 16  1  0  0  0
M  END
> <minimizedAffinity>
-6.39362

> <CNNscore>
0.3966604471

> <CNNaffinity>
5.7217760086

> <CNN_VS>
2.2696022987

> <CNNaffinity_variance>
0.3027655482

$$$$
[H]c1c([H])c(-c2noc(C([H])([H])[H])n2)c([H])c([H])c1C(=O)N([H])C(C([H])([H])[H])(C([H])([H])[H])C([H])([H])[H]


 20 21  0  0  0  0  0  0  0  0999 V2000
   15.0857   24.8780   -1.7748 C   0  0  0  0  0  0  0  0  0  0  0  0
   13.9643   24.2285   -2.2144 C   0  0  0  0  0  0  0  0  0  0  0  0
   13.2853   23.3114   -1.3978 C   0  0  0  0  0  0  0  0  0  0  0  0
   13.7287   23.0379   -0.1275 C   0  0  0  0  0  0  0  0  0  0  0  0
   14.8721   23.7057    0.3091 C   0  0  0  0  0  0  0  0  0  0  0  0
   15.5366   24.6128   -0.5102 C   0  0  0  0  0  0  0  0  0  0  0  0
   16.1938   28.1189   -5.4693 C   0  0  0  0  0  0  0  0  0  0  0  0
   16.2577   27.2367   -4.2531 C   0  0  0  0  0  0  0  0  0  0  0  0
   15.2978   26.4447   -3.7471 N   0  0  0  0  0  0  0  0  0  0  0  0
   15.7609   25.8146   -2.6379 C   0  0  0  0  0  0  0  0  0  0  0  0
   17.0410   26.2723   -2.5123 N   0  0  0  0  0  0  0  0  0  0  0  0
   17.2950   27.0973   -3.4690 O   0  0  0  0  0  0  0  0  0  0  0  0
   13.0574   22.0875    0.7706 C   0  0  0  0  0  0  0  0  0  0  0  0
   13.6991   21.1065    1.2568 O   0  0  0  0  0  0  0  0  0  0  0  0
   11.7069   22.2084    1.1306 N   0  0  0  0  0  0  0  0  0  0  0  0
   11.1586   22.9909    0.7549 H   0  0  0  0  0  0  0  0  0  0  0  0
   11.0346   21.2753    2.0166 C   0  0  0  0  0  0  0  0  0  0  0  0
   11.1660   19.8773    1.4931 C   0  0  0  0  0  0  0  0  0  0  0  0
    9.5804   21.7010    2.0886 C   0  0  0  0  0  0  0  0  0  0  0  0
   11.6048   21.3450    3.4169 C   0  0  0  0  0  0  0  0  0  0  0  0
  7  8  1  0  0  0
  8  9  2  0  0  0
  9 10  1  0  0  0
 10 11  2  0  0  0
 11 12  1  0  0  0
 10  1  1  0  0  0
  1  2  2  0  0  0
  2  3  1  0  0  0
  3  4  2  0  0  0
  4  5  1  0  0  0
  5  6  2  0  0  0
  4 13  1  0  0  0
 13 14  2  0  0  0
 13 15  1  0  0  0
 15 17  1  0  0  0
 17 18  1  0  0  0
 17 19  1  0  0  0
 17 20  1  0  0  0
 12  8  1  0  0  0
  6  1  1  0  0  0
 15 16  1  0  0  0
M  END
> <minimizedAffinity>
-6.79418

> <CNNscore>
0.3728824556

> <CNNaffinity>
5.8344554901

> <CNN_VS>
2.1755661964

> <CNNaffinity_variance>
0.3976474404

$$$$
[H]c1c([H])c(-c2noc(C([H])([H])[H])n2)c([H])c([H])c1C(=O)N([H])C(C([H])([H])[H])(C([H])([H])[H])C([H])([H])[H]


 20 21  0  0  0  0  0  0  0  0999 V2000
   13.9727   24.9683   -2.5117 C   0  0  0  0  0  0  0  0  0  0  0  0
   14.3243   23.6643   -2.2916 C   0  0  0  0  0  0  0  0  0  0  0  0
   13.4454   22.7678   -1.6648 C   0  0  0  0  0  0  0  0  0  0  0  0
   12.2010   23.1753   -1.2521 C   0  0  0  0  0  0  0  0  0  0  0  0
   11.8543   24.5060   -1.4818 C   0  0  0  0  0  0  0  0  0  0  0  0
   12.7346   25.3853   -2.1044 C   0  0  0  0  0  0  0  0  0  0  0  0
   16.0830   28.3293   -5.6153 C   0  0  0  0  0  0  0  0  0  0  0  0
   15.8336   27.3374   -4.5129 C   0  0  0  0  0  0  0  0  0  0  0  0
   14.7052   26.6613   -4.2401 N   0  0  0  0  0  0  0  0  0  0  0  0
   14.8982   25.8648   -3.1583 C   0  0  0  0  0  0  0  0  0  0  0  0
   16.1952   26.1025   -2.8046 N   0  0  0  0  0  0  0  0  0  0  0  0
   16.7073   26.9639   -3.6144 O   0  0  0  0  0  0  0  0  0  0  0  0
   11.2406   22.2801   -0.5912 C   0  0  0  0  0  0  0  0  0  0  0  0
   11.3138   22.0768    0.6594 O   0  0  0  0  0  0  0  0  0  0  0  0
   10.2175   21.6186   -1.2867 N   0  0  0  0  0  0  0  0  0  0  0  0
   10.1299   21.7612   -2.2997 H   0  0  0  0  0  0  0  0  0  0  0  0
    9.2641   20.7326   -0.6435 C   0  0  0  0  0  0  0  0  0  0  0  0
    9.9792   19.5918    0.0146 C   0  0  0  0  0  0  0  0  0  0  0  0
    8.3185   20.2397   -1.7223 C   0  0  0  0  0  0  0  0  0  0  0  0
    8.4403   21.4734    0.3877 C   0  0  0  0  0  0  0  0  0  0  0  0
  7  8  1  0  0  0
  8  9  2  0  0  0
  9 10  1  0  0  0
 10 11  2  0  0  0
 11 12  1  0  0  0
 10  1  1  0  0  0
  1  2  2  0  0  0
  2  3  1  0  0  0
  3  4  2  0  0  0
  4  5  1  0  0  0
  5  6  2  0  0  0
  4 13  1  0  0  0
 13 14  2  0  0  0
 13 15  1  0  0  0
 15 17  1  0  0  0
 17 18  1  0  0  0
 17 19  1  0  0  0
 17 20  1  0  0  0
 12  8  1  0  0  0
  6  1  1  0  0  0
 15 16  1  0  0  0
M  END
> <minimizedAffinity>
-6.68815

> <CNNscore>
0.3520845771

> <CNNaffinity>
5.6156401634

> <CNN_VS>
1.9771802425

> <CNNaffinity_variance>
0.1827769876

$$$$
[H]c1c([H])c(-c2noc(C([H])([H])[H])n2)c([H])c([H])c1C(=O)N([H])C(C([H])([H])[H])(C([H])([H])[H])C([H])([H])[H]


 20 21  0  0  0  0  0  0  0  0999 V2000
   13.7244   24.8666   -2.4818 C   0  0  0  0  0  0  0  0  0  0  0  0
   14.1634   23.7329   -1.8538 C   0  0  0  0  0  0  0  0  0  0  0  0
   13.4747   23.1936   -0.7566 C   0  0  0  0  0  0  0  0  0  0  0  0
   12.3345   23.7910   -0.2791 C   0  0  0  0  0  0  0  0  0  0  0  0
   11.8971   24.9454   -0.9271 C   0  0  0  0  0  0  0  0  0  0  0  0
   12.5888   25.4704   -2.0141 C   0  0  0  0  0  0  0  0  0  0  0  0
   15.9881   27.9494   -5.7611 C   0  0  0  0  0  0  0  0  0  0  0  0
   15.4499   26.7380   -5.0509 C   0  0  0  0  0  0  0  0  0  0  0  0
   14.7498   26.6864   -3.9055 N   0  0  0  0  0  0  0  0  0  0  0  0
   14.4543   25.3959   -3.6066 C   0  0  0  0  0  0  0  0  0  0  0  0
   15.0135   24.6869   -4.6306 N   0  0  0  0  0  0  0  0  0  0  0  0
   15.5837   25.5003   -5.4513 O   0  0  0  0  0  0  0  0  0  0  0  0
   11.5735   23.2702    0.8655 C   0  0  0  0  0  0  0  0  0  0  0  0
   12.1556   22.5822    1.7592 O   0  0  0  0  0  0  0  0  0  0  0  0
   10.1990   23.4981    1.0297 N   0  0  0  0  0  0  0  0  0  0  0  0
    9.6974   24.0510    0.3248 H   0  0  0  0  0  0  0  0  0  0  0  0
    9.4385   22.9882    2.1562 C   0  0  0  0  0  0  0  0  0  0  0  0
    9.8150   21.5644    2.4337 C   0  0  0  0  0  0  0  0  0  0  0  0
    7.9709   23.1077    1.7914 C   0  0  0  0  0  0  0  0  0  0  0  0
    9.6741   23.8229    3.3965 C   0  0  0  0  0  0  0  0  0  0  0  0
  7  8  1  0  0  0
  8  9  2  0  0  0
  9 10  1  0  0  0
 10 11  2  0  0  0
 11 12  1  0  0  0
 10  1  1  0  0  0
  1  2  2  0  0  0
  2  3  1  0  0  0
  3  4  2  0  0  0
  4  5  1  0  0  0
  5  6  2  0  0  0
  4 13  1  0  0  0
 13 14  2  0  0  0
 13 15  1  0  0  0
 15 17  1  0  0  0
 17 18  1  0  0  0
 17 19  1  0  0  0
 17 20  1  0  0  0
 12  8  1  0  0  0
  6  1  1  0  0  0
 15 16  1  0  0  0
M  END
> <minimizedAffinity>
-7.22981

> <CNNscore>
0.3080421090

> <CNNaffinity>
5.4996423721

> <CNN_VS>
1.6941214800

> <CNNaffinity_variance>
0.2690673470

$$$$
[H]c1c([H])c(-c2noc(C([H])([H])[H])n2)c([H])c([H])c1C(=O)N([H])C(C([H])([H])[H])(C([H])([H])[H])C([H])([H])[H]


 20 21  0  0  0  0  0  0  0  0999 V2000
   13.1333   24.9917   -1.5790 C   0  0  0  0  0  0  0  0  0  0  0  0
   11.8867   24.5186   -1.8867 C   0  0  0  0  0  0  0  0  0  0  0  0
   10.9474   24.2321   -0.8844 C   0  0  0  0  0  0  0  0  0  0  0  0
   11.2536   24.4193    0.4408 C   0  0  0  0  0  0  0  0  0  0  0  0
   12.5265   24.9017    0.7418 C   0  0  0  0  0  0  0  0  0  0  0  0
   13.4492   25.1820   -0.2611 C   0  0  0  0  0  0  0  0  0  0  0  0
   15.2300   26.1757   -6.0043 C   0  0  0  0  0  0  0  0  0  0  0  0
   15.0061   25.7943   -4.5670 C   0  0  0  0  0  0  0  0  0  0  0  0
   13.8399   25.6164   -3.9243 N   0  0  0  0  0  0  0  0  0  0  0  0
   14.0760   25.2766   -2.6317 C   0  0  0  0  0  0  0  0  0  0  0  0
   15.4382   25.2622   -2.5411 N   0  0  0  0  0  0  0  0  0  0  0  0
   15.9452   25.5681   -3.6855 O   0  0  0  0  0  0  0  0  0  0  0  0
   10.3095   24.1363    1.5313 C   0  0  0  0  0  0  0  0  0  0  0  0
   10.0642   25.0199    2.4087 O   0  0  0  0  0  0  0  0  0  0  0  0
    9.6451   22.9074    1.6597 N   0  0  0  0  0  0  0  0  0  0  0  0
    9.8207   22.1705    0.9667 H   0  0  0  0  0  0  0  0  0  0  0  0
    8.7111   22.6180    2.7328 C   0  0  0  0  0  0  0  0  0  0  0  0
    9.4530   22.3444    4.0058 C   0  0  0  0  0  0  0  0  0  0  0  0
    7.8980   21.4125    2.3003 C   0  0  0  0  0  0  0  0  0  0  0  0
    7.7511   23.7685    2.9460 C   0  0  0  0  0  0  0  0  0  0  0  0
  7  8  1  0  0  0
  8  9  2  0  0  0
  9 10  1  0  0  0
 10 11  2  0  0  0
 11 12  1  0  0  0
 10  1  1  0  0  0
  1  2  2  0  0  0
  2  3  1  0  0  0
  3  4  2  0  0  0
  4  5  1  0  0  0
  5  6  2  0  0  0
  4 13  1  0  0  0
 13 14  2  0  0  0
 13 15  1  0  0  0
 15 17  1  0  0  0
 17 18  1  0  0  0
 17 19  1  0  0  0
 17 20  1  0  0  0
 12  8  1  0  0  0
  6  1  1  0  0  0
 15 16  1  0  0  0
M  END
> <minimizedAffinity>
-6.44106

> <CNNscore>
0.2201958895

> <CNNaffinity>
5.2305045128

> <CNN_VS>
1.1517355442

> <CNNaffinity_variance>
0.2614494860

$$$$
[H]OC(=O)C([H])([H])N([H])C(=O)C(=O)N([H])C([H])([H])c1c([H])c([H])c([H])c2c1c([H])c([H])n2S(=O)(=O)c1c([H])c([H])c([H])c(C(F)(F)F)c1[H]


 36 38  0  0  0  0  0  0  0  0999 V2000
   11.8983   22.6233    0.9353 C   0  0  0  0  0  0  0  0  0  0  0  0
   11.2318   23.8165    1.1814 C   0  0  0  0  0  0  0  0  0  0  0  0
   11.6899   25.0156    0.6230 C   0  0  0  0  0  0  0  0  0  0  0  0
   12.8093   24.9735   -0.1689 C   0  0  0  0  0  0  0  0  0  0  0  0
   13.5015   23.8105   -0.4384 C   0  0  0  0  0  0  0  0  0  0  0  0
   14.5742   23.5359   -1.2170 N   0  0  0  0  0  0  0  0  0  0  0  0
   14.7805   22.1639   -1.1414 C   0  0  0  0  0  0  0  0  0  0  0  0
   13.8226   21.6692   -0.3174 C   0  0  0  0  0  0  0  0  0  0  0  0
   13.0121   22.6618    0.1332 C   0  0  0  0  0  0  0  0  0  0  0  0
   15.5938   24.5995   -2.0779 S   0  0  0  0  0  0  0  0  0  0  0  0
   16.3546   25.4616   -1.0940 O   0  0  0  0  0  0  0  0  0  0  0  0
   16.6542   23.7430   -2.7812 O   0  0  0  0  0  0  0  0  0  0  0  0
   14.7573   25.5843   -3.2234 C   0  0  0  0  0  0  0  0  0  0  0  0
   13.6194   26.2828   -2.9698 C   0  0  0  0  0  0  0  0  0  0  0  0
   13.0058   27.0194   -3.9906 C   0  0  0  0  0  0  0  0  0  0  0  0
   13.5573   27.0360   -5.2630 C   0  0  0  0  0  0  0  0  0  0  0  0
   14.7195   26.3176   -5.5101 C   0  0  0  0  0  0  0  0  0  0  0  0
   15.3071   25.6088   -4.5166 C   0  0  0  0  0  0  0  0  0  0  0  0
   15.3409   26.2851   -6.8703 C   0  0  0  0  0  0  0  0  0  0  0  0
   16.2514   27.3410   -6.9770 F   0  0  0  0  0  0  0  0  0  0  0  0
   16.1168   25.1284   -7.0193 F   0  0  0  0  0  0  0  0  0  0  0  0
   14.4136   26.2837   -7.8774 F   0  0  0  0  0  0  0  0  0  0  0  0
   11.5049   21.3327    1.5548 C   0  0  0  0  0  0  0  0  0  0  0  0
    9.5861   21.3918    3.1121 C   0  0  0  0  0  0  0  0  0  0  0  0
    8.8928   20.9813    2.1620 O   0  0  0  0  0  0  0  0  0  0  0  0
   11.0067   21.6152    2.9024 N   0  0  0  0  0  0  0  0  0  0  0  0
   11.6275   21.9423    3.6214 H   0  0  0  0  0  0  0  0  0  0  0  0
    7.6128   21.8599    4.4501 N   0  0  0  0  0  0  0  0  0  0  0  0
    9.0180   21.6433    4.4028 C   0  0  0  0  0  0  0  0  0  0  0  0
    9.6909   21.6673    5.4275 O   0  0  0  0  0  0  0  0  0  0  0  0
    7.0669   21.8285    3.5683 H   0  0  0  0  0  0  0  0  0  0  0  0
    6.9183   22.1209    5.6857 C   0  0  0  0  0  0  0  0  0  0  0  0
    6.0428   24.2810    4.6583 O   0  0  0  0  0  0  0  0  0  0  0  0
    5.8314   23.1344    5.4241 C   0  0  0  0  0  0  0  0  0  0  0  0
    4.6842   22.9799    5.8877 O   0  0  0  0  0  0  0  0  0  0  0  0
    5.6885   25.1532    5.0913 H   0  0  0  0  0  0  0  0  0  0  0  0
 33 34  1  0  0  0
 34 35  2  0  0  0
 34 32  1  0  0  0
 32 28  1  0  0  0
 28 29  1  0  0  0
 29 30  2  0  0  0
 29 24  1  0  0  0
 24 25  2  0  0  0
 24 26  1  0  0  0
 26 23  1  0  0  0
 23  1  1  0  0  0
  1  2  2  0  0  0
  2  3  1  0  0  0
  3  4  2  0  0  0
  4  5  1  0  0  0
  5  6  1  0  0  0
  6  7  1  0  0  0
  7  8  2  0  0  0
  8  9  1  0  0  0
  6 10  1  0  0  0
 10 11  2  0  0  0
 10 12  2  0  0  0
 10 13  1  0  0  0
 13 14  2  0  0  0
 14 15  1  0  0  0
 15 16  2  0  0  0
 16 17  1  0  0  0
 17 18  2  0  0  0
 17 19  1  0  0  0
 19 20  1  0  0  0
 19 21  1  0  0  0
 19 22  1  0  0  0
  9  1  1  0  0  0
 18 13  1  0  0  0
  9  5  2  0  0  0
 33 36  1  0  0  0
 28 31  1  0  0  0
 26 27  1  0  0  0
M  END
> <minimizedAffinity>
-7.64636

> <CNNscore>
0.2966626287

> <CNNaffinity>
6.4450516701

> <CNN_VS>
1.9120060205

> <CNNaffinity_variance>
0.0995951146

$$$$
[H]OC(=O)C([H])([H])N([H])C(=O)C(=O)N([H])C([H])([H])c1c([H])c([H])c([H])c2c1c([H])c([H])n2S(=O)(=O)c1c([H])c([H])c([H])c(C(F)(F)F)c1[H]


 36 38  0  0  0  0  0  0  0  0999 V2000
   13.2891   22.7976   -0.9586 C   0  0  0  0  0  0  0  0  0  0  0  0
   12.5162   23.9069   -1.2756 C   0  0  0  0  0  0  0  0  0  0  0  0
   11.4445   24.2845   -0.4580 C   0  0  0  0  0  0  0  0  0  0  0  0
   11.1853   23.5292    0.6574 C   0  0  0  0  0  0  0  0  0  0  0  0
   11.9273   22.4200    1.0086 C   0  0  0  0  0  0  0  0  0  0  0  0
   11.8826   21.5791    2.0684 N   0  0  0  0  0  0  0  0  0  0  0  0
   12.9291   20.6794    1.9075 C   0  0  0  0  0  0  0  0  0  0  0  0
   13.5602   21.0157    0.7543 C   0  0  0  0  0  0  0  0  0  0  0  0
   12.9670   22.0911    0.1739 C   0  0  0  0  0  0  0  0  0  0  0  0
   10.7517   21.4962    3.3437 S   0  0  0  0  0  0  0  0  0  0  0  0
   10.2787   20.0668    3.4945 O   0  0  0  0  0  0  0  0  0  0  0  0
   11.5045   21.8200    4.6405 O   0  0  0  0  0  0  0  0  0  0  0  0
    9.4064   22.5604    3.1458 C   0  0  0  0  0  0  0  0  0  0  0  0
    8.3773   22.3661    2.2796 C   0  0  0  0  0  0  0  0  0  0  0  0
    7.3565   23.3194    2.1774 C   0  0  0  0  0  0  0  0  0  0  0  0
    7.3948   24.4646    2.9587 C   0  0  0  0  0  0  0  0  0  0  0  0
    8.4518   24.6524    3.8391 C   0  0  0  0  0  0  0  0  0  0  0  0
    9.4343   23.7247    3.9326 C   0  0  0  0  0  0  0  0  0  0  0  0
    8.5507   25.8808    4.6868 C   0  0  0  0  0  0  0  0  0  0  0  0
    8.9315   25.5087    5.9798 F   0  0  0  0  0  0  0  0  0  0  0  0
    9.5911   26.7001    4.2302 F   0  0  0  0  0  0  0  0  0  0  0  0
    7.4059   26.6314    4.6689 F   0  0  0  0  0  0  0  0  0  0  0  0
   14.3920   22.3049   -1.8218 C   0  0  0  0  0  0  0  0  0  0  0  0
   15.5845   24.3254   -2.6003 C   0  0  0  0  0  0  0  0  0  0  0  0
   16.1734   24.3147   -1.5026 O   0  0  0  0  0  0  0  0  0  0  0  0
   14.6048   23.2900   -2.8839 N   0  0  0  0  0  0  0  0  0  0  0  0
   14.0935   23.2334   -3.7470 H   0  0  0  0  0  0  0  0  0  0  0  0
   16.4825   26.5197   -3.1312 N   0  0  0  0  0  0  0  0  0  0  0  0
   15.8532   25.3281   -3.5872 C   0  0  0  0  0  0  0  0  0  0  0  0
   15.5697   25.1825   -4.7712 O   0  0  0  0  0  0  0  0  0  0  0  0
   16.7164   26.6139   -2.1248 H   0  0  0  0  0  0  0  0  0  0  0  0
   16.8091   27.6039   -4.0227 C   0  0  0  0  0  0  0  0  0  0  0  0
   14.2971   27.6168   -4.4440 O   0  0  0  0  0  0  0  0  0  0  0  0
   15.5933   27.9274   -4.8556 C   0  0  0  0  0  0  0  0  0  0  0  0
   15.7039   28.4970   -5.9593 O   0  0  0  0  0  0  0  0  0  0  0  0
   13.7200   27.1533   -5.1691 H   0  0  0  0  0  0  0  0  0  0  0  0
 33 34  1  0  0  0
 34 35  2  0  0  0
 34 32  1  0  0  0
 32 28  1  0  0  0
 28 29  1  0  0  0
 29 30  2  0  0  0
 29 24  1  0  0  0
 24 25  2  0  0  0
 24 26  1  0  0  0
 26 23  1  0  0  0
 23  1  1  0  0  0
  1  2  2  0  0  0
  2  3  1  0  0  0
  3  4  2  0  0  0
  4  5  1  0  0  0
  5  6  1  0  0  0
  6  7  1  0  0  0
  7  8  2  0  0  0
  8  9  1  0  0  0
  6 10  1  0  0  0
 10 11  2  0  0  0
 10 12  2  0  0  0
 10 13  1  0  0  0
 13 14  2  0  0  0
 14 15  1  0  0  0
 15 16  2  0  0  0
 16 17  1  0  0  0
 17 18  2  0  0  0
 17 19  1  0  0  0
 19 20  1  0  0  0
 19 21  1  0  0  0
 19 22  1  0  0  0
  9  1  1  0  0  0
 18 13  1  0  0  0
  9  5  2  0  0  0
 33 36  1  0  0  0
 28 31  1  0  0  0
 26 27  1  0  0  0
M  END
> <minimizedAffinity>
-7.36966

> <CNNscore>
0.1935190707

> <CNNaffinity>
6.5843596458

> <CNN_VS>
1.2741991282

> <CNNaffinity_variance>
0.0851873383

$$$$
[H]OC(=O)C([H])([H])N([H])C(=O)C(=O)N([H])C([H])([H])c1c([H])c([H])c([H])c2c1c([H])c([H])n2S(=O)(=O)c1c([H])c([H])c([H])c(C(F)(F)F)c1[H]


 36 38  0  0  0  0  0  0  0  0999 V2000
   12.6064   20.9840    1.1243 C   0  0  0  0  0  0  0  0  0  0  0  0
   13.9754   20.7556    1.1698 C   0  0  0  0  0  0  0  0  0  0  0  0
   14.8616   21.6086    0.5015 C   0  0  0  0  0  0  0  0  0  0  0  0
   14.3375   22.6688   -0.1936 C   0  0  0  0  0  0  0  0  0  0  0  0
   12.9847   22.9315   -0.2651 C   0  0  0  0  0  0  0  0  0  0  0  0
   12.2685   23.9281   -0.8363 N   0  0  0  0  0  0  0  0  0  0  0  0
   10.9360   23.6924   -0.5205 C   0  0  0  0  0  0  0  0  0  0  0  0
   10.9056   22.5605    0.2275 C   0  0  0  0  0  0  0  0  0  0  0  0
   12.1578   22.0653    0.4068 C   0  0  0  0  0  0  0  0  0  0  0  0
   12.7907   25.2048   -1.8409 S   0  0  0  0  0  0  0  0  0  0  0  0
   11.5888   25.8246   -2.5199 O   0  0  0  0  0  0  0  0  0  0  0  0
   13.3578   26.2990   -0.9276 O   0  0  0  0  0  0  0  0  0  0  0  0
   13.9668   24.7273   -3.0116 C   0  0  0  0  0  0  0  0  0  0  0  0
   14.6904   23.5777   -2.9683 C   0  0  0  0  0  0  0  0  0  0  0  0
   15.6470   23.3129   -3.9562 C   0  0  0  0  0  0  0  0  0  0  0  0
   15.8591   24.2244   -4.9798 C   0  0  0  0  0  0  0  0  0  0  0  0
   15.1144   25.3957   -5.0127 C   0  0  0  0  0  0  0  0  0  0  0  0
   14.1903   25.6433   -4.0539 C   0  0  0  0  0  0  0  0  0  0  0  0
   15.3212   26.4204   -6.0825 C   0  0  0  0  0  0  0  0  0  0  0  0
   15.8545   25.7931   -7.2127 F   0  0  0  0  0  0  0  0  0  0  0  0
   14.0879   26.9316   -6.5066 F   0  0  0  0  0  0  0  0  0  0  0  0
   16.0768   27.4817   -5.6618 F   0  0  0  0  0  0  0  0  0  0  0  0
   11.6122   20.0768    1.7512 C   0  0  0  0  0  0  0  0  0  0  0  0
    9.9799   21.0006    3.3614 C   0  0  0  0  0  0  0  0  0  0  0  0
    9.1392   20.9236    2.4454 O   0  0  0  0  0  0  0  0  0  0  0  0
   11.3440   20.5708    3.1032 N   0  0  0  0  0  0  0  0  0  0  0  0
   12.0738   20.6013    3.7931 H   0  0  0  0  0  0  0  0  0  0  0  0
    8.4791   22.3249    4.7387 N   0  0  0  0  0  0  0  0  0  0  0  0
    9.6330   21.4966    4.6596 C   0  0  0  0  0  0  0  0  0  0  0  0
   10.2808   21.2263    5.6649 O   0  0  0  0  0  0  0  0  0  0  0  0
    7.9464   22.5329    3.8730 H   0  0  0  0  0  0  0  0  0  0  0  0
    8.0218   22.8859    5.9849 C   0  0  0  0  0  0  0  0  0  0  0  0
    5.6948   23.4343    5.1062 O   0  0  0  0  0  0  0  0  0  0  0  0
    6.8904   23.8421    5.6979 C   0  0  0  0  0  0  0  0  0  0  0  0
    6.9826   25.0515    5.9872 O   0  0  0  0  0  0  0  0  0  0  0  0
    5.3805   24.0362    4.3235 H   0  0  0  0  0  0  0  0  0  0  0  0
 33 34  1  0  0  0
 34 35  2  0  0  0
 34 32  1  0  0  0
 32 28  1  0  0  0
 28 29  1  0  0  0
 29 30  2  0  0  0
 29 24  1  0  0  0
 24 25  2  0  0  0
 24 26  1  0  0  0
 26 23  1  0  0  0
 23  1  1  0  0  0
  1  2  2  0  0  0
  2  3  1  0  0  0
  3  4  2  0  0  0
  4  5  1  0  0  0
  5  6  1  0  0  0
  6  7  1  0  0  0
  7  8  2  0  0  0
  8  9  1  0  0  0
  6 10  1  0  0  0
 10 11  2  0  0  0
 10 12  2  0  0  0
 10 13  1  0  0  0
 13 14  2  0  0  0
 14 15  1  0  0  0
 15 16  2  0  0  0
 16 17  1  0  0  0
 17 18  2  0  0  0
 17 19  1  0  0  0
 19 20  1  0  0  0
 19 21  1  0  0  0
 19 22  1  0  0  0
  9  1  1  0  0  0
 18 13  1  0  0  0
  9  5  2  0  0  0
 33 36  1  0  0  0
 28 31  1  0  0  0
 26 27  1  0  0  0
M  END
> <minimizedAffinity>
-7.14599

> <CNNscore>
0.1720731705

> <CNNaffinity>
6.2363686562

> <CNN_VS>
1.0731117725

> <CNNaffinity_variance>
0.1019809395

$$$$
[H]OC(=O)C([H])([H])N([H])C(=O)C(=O)N([H])C([H])([H])c1c([H])c([H])c([H])c2c1c([H])c([H])n2S(=O)(=O)c1c([H])c([H])c([H])c(C(F)(F)F)c1[H]


 36 38  0  0  0  0  0  0  0  0999 V2000
   12.6035   22.9416   -0.6057 C   0  0  0  0  0  0  0  0  0  0  0  0
   11.9125   23.8736   -1.3687 C   0  0  0  0  0  0  0  0  0  0  0  0
   10.5941   24.2183   -1.0486 C   0  0  0  0  0  0  0  0  0  0  0  0
   10.0122   23.6105    0.0349 C   0  0  0  0  0  0  0  0  0  0  0  0
   10.6623   22.6794    0.8190 C   0  0  0  0  0  0  0  0  0  0  0  0
   10.3064   22.0091    1.9398 N   0  0  0  0  0  0  0  0  0  0  0  0
   11.4068   21.2482    2.3152 C   0  0  0  0  0  0  0  0  0  0  0  0
   12.3804   21.4914    1.4017 C   0  0  0  0  0  0  0  0  0  0  0  0
   11.9533   22.3755    0.4630 C   0  0  0  0  0  0  0  0  0  0  0  0
    8.8047   21.9635    2.7490 S   0  0  0  0  0  0  0  0  0  0  0  0
    7.6906   21.9398    1.7252 O   0  0  0  0  0  0  0  0  0  0  0  0
    8.7223   20.6168    3.4787 O   0  0  0  0  0  0  0  0  0  0  0  0
    8.5773   23.2659    3.8596 C   0  0  0  0  0  0  0  0  0  0  0  0
    8.9474   23.2514    5.1672 C   0  0  0  0  0  0  0  0  0  0  0  0
    8.6768   24.3552    5.9855 C   0  0  0  0  0  0  0  0  0  0  0  0
    8.0287   25.4647    5.4634 C   0  0  0  0  0  0  0  0  0  0  0  0
    7.6546   25.4673    4.1263 C   0  0  0  0  0  0  0  0  0  0  0  0
    7.9214   24.3960    3.3416 C   0  0  0  0  0  0  0  0  0  0  0  0
    6.9336   26.6299    3.5214 C   0  0  0  0  0  0  0  0  0  0  0  0
    7.5225   27.8137    3.9765 F   0  0  0  0  0  0  0  0  0  0  0  0
    7.1239   26.6471    2.1337 F   0  0  0  0  0  0  0  0  0  0  0  0
    5.5836   26.5917    3.7451 F   0  0  0  0  0  0  0  0  0  0  0  0
   13.9761   22.4817   -0.9356 C   0  0  0  0  0  0  0  0  0  0  0  0
   15.2483   24.0246   -2.3887 C   0  0  0  0  0  0  0  0  0  0  0  0
   14.8621   23.3282   -3.3467 O   0  0  0  0  0  0  0  0  0  0  0  0
   14.8319   23.6648   -1.0436 N   0  0  0  0  0  0  0  0  0  0  0  0
   15.1015   24.1802   -0.2243 H   0  0  0  0  0  0  0  0  0  0  0  0
   15.7062   26.0713   -3.6154 N   0  0  0  0  0  0  0  0  0  0  0  0
   16.0862   25.1700   -2.5824 C   0  0  0  0  0  0  0  0  0  0  0  0
   17.0807   25.3844   -1.8979 O   0  0  0  0  0  0  0  0  0  0  0  0
   14.8568   25.8681   -4.1756 H   0  0  0  0  0  0  0  0  0  0  0  0
   16.4623   27.2620   -3.9109 C   0  0  0  0  0  0  0  0  0  0  0  0
   15.8303   29.1611   -5.4862 O   0  0  0  0  0  0  0  0  0  0  0  0
   16.0147   27.7991   -5.2480 C   0  0  0  0  0  0  0  0  0  0  0  0
   15.7929   27.0327   -6.2063 O   0  0  0  0  0  0  0  0  0  0  0  0
   14.9377   29.3935   -5.9585 H   0  0  0  0  0  0  0  0  0  0  0  0
 33 34  1  0  0  0
 34 35  2  0  0  0
 34 32  1  0  0  0
 32 28  1  0  0  0
 28 29  1  0  0  0
 29 30  2  0  0  0
 29 24  1  0  0  0
 24 25  2  0  0  0
 24 26  1  0  0  0
 26 23  1  0  0  0
 23  1  1  0  0  0
  1  2  2  0  0  0
  2  3  1  0  0  0
  3  4  2  0  0  0
  4  5  1  0  0  0
  5  6  1  0  0  0
  6  7  1  0  0  0
  7  8  2  0  0  0
  8  9  1  0  0  0
  6 10  1  0  0  0
 10 11  2  0  0  0
 10 12  2  0  0  0
 10 13  1  0  0  0
 13 14  2  0  0  0
 14 15  1  0  0  0
 15 16  2  0  0  0
 16 17  1  0  0  0
 17 18  2  0  0  0
 17 19  1  0  0  0
 19 20  1  0  0  0
 19 21  1  0  0  0
 19 22  1  0  0  0
  9  1  1  0  0  0
 18 13  1  0  0  0
  9  5  2  0  0  0
 33 36  1  0  0  0
 28 31  1  0  0  0
 26 27  1  0  0  0
M  END
> <minimizedAffinity>
-8.91323

> <CNNscore>
0.1519232988

> <CNNaffinity>
6.2517266273

> <CNN_VS>
0.9497829080

> <CNNaffinity_variance>
0.1538744867

$$$$
[H]OC(=O)C([H])([H])N([H])C(=O)C(=O)N([H])C([H])([H])c1c([H])c([H])c([H])c2c1c([H])c([H])n2S(=O)(=O)c1c([H])c([H])c([H])c(C(F)(F)F)c1[H]


 36 38  0  0  0  0  0  0  0  0999 V2000
   10.3622   22.5279    1.1539 C   0  0  0  0  0  0  0  0  0  0  0  0
   10.2764   23.8332    1.6201 C   0  0  0  0  0  0  0  0  0  0  0  0
   11.1678   24.8116    1.1644 C   0  0  0  0  0  0  0  0  0  0  0  0
   12.1206   24.4416    0.2494 C   0  0  0  0  0  0  0  0  0  0  0  0
   12.2412   23.1567   -0.2392 C   0  0  0  0  0  0  0  0  0  0  0  0
   13.0543   22.5951   -1.1642 N   0  0  0  0  0  0  0  0  0  0  0  0
   12.6653   21.2664   -1.2823 C   0  0  0  0  0  0  0  0  0  0  0  0
   11.6335   21.0829   -0.4203 C   0  0  0  0  0  0  0  0  0  0  0  0
   11.3435   22.2343    0.2394 C   0  0  0  0  0  0  0  0  0  0  0  0
   14.3804   23.2701   -1.9997 S   0  0  0  0  0  0  0  0  0  0  0  0
   15.5074   23.5197   -1.0213 O   0  0  0  0  0  0  0  0  0  0  0  0
   14.9026   22.1985   -2.9650 O   0  0  0  0  0  0  0  0  0  0  0  0
   13.9933   24.7176   -2.8578 C   0  0  0  0  0  0  0  0  0  0  0  0
   13.0155   25.5948   -2.5093 C   0  0  0  0  0  0  0  0  0  0  0  0
   12.7654   26.7196   -3.3052 C   0  0  0  0  0  0  0  0  0  0  0  0
   13.5140   26.9396   -4.4518 C   0  0  0  0  0  0  0  0  0  0  0  0
   14.5096   26.0358   -4.7979 C   0  0  0  0  0  0  0  0  0  0  0  0
   14.7456   24.9511   -4.0218 C   0  0  0  0  0  0  0  0  0  0  0  0
   15.3291   26.2161   -6.0362 C   0  0  0  0  0  0  0  0  0  0  0  0
   15.8373   24.9735   -6.4272 F   0  0  0  0  0  0  0  0  0  0  0  0
   14.5130   26.6191   -7.1010 F   0  0  0  0  0  0  0  0  0  0  0  0
   16.3058   27.1646   -5.8926 F   0  0  0  0  0  0  0  0  0  0  0  0
    9.4939   21.4311    1.6512 C   0  0  0  0  0  0  0  0  0  0  0  0
    7.4483   22.2380    2.7803 C   0  0  0  0  0  0  0  0  0  0  0  0
    6.8806   22.1274    1.6770 O   0  0  0  0  0  0  0  0  0  0  0  0
    8.8552   21.8894    2.8864 N   0  0  0  0  0  0  0  0  0  0  0  0
    9.3775   21.9508    3.7426 H   0  0  0  0  0  0  0  0  0  0  0  0
    7.2053   23.9081    4.5282 N   0  0  0  0  0  0  0  0  0  0  0  0
    6.7477   22.6948    3.9431 C   0  0  0  0  0  0  0  0  0  0  0  0
    5.7947   22.0889    4.4207 O   0  0  0  0  0  0  0  0  0  0  0  0
    8.0104   24.4031    4.1000 H   0  0  0  0  0  0  0  0  0  0  0  0
    6.5859   24.4765    5.6988 C   0  0  0  0  0  0  0  0  0  0  0  0
    6.2205   26.9272    5.1086 O   0  0  0  0  0  0  0  0  0  0  0  0
    5.7194   25.6357    5.2721 C   0  0  0  0  0  0  0  0  0  0  0  0
    4.5038   25.4786    5.0426 O   0  0  0  0  0  0  0  0  0  0  0  0
    5.6510   27.6651    5.5612 H   0  0  0  0  0  0  0  0  0  0  0  0
 33 34  1  0  0  0
 34 35  2  0  0  0
 34 32  1  0  0  0
 32 28  1  0  0  0
 28 29  1  0  0  0
 29 30  2  0  0  0
 29 24  1  0  0  0
 24 25  2  0  0  0
 24 26  1  0  0  0
 26 23  1  0  0  0
 23  1  1  0  0  0
  1  2  2  0  0  0
  2  3  1  0  0  0
  3  4  2  0  0  0
  4  5  1  0  0  0
  5  6  1  0  0  0
  6  7  1  0  0  0
  7  8  2  0  0  0
  8  9  1  0  0  0
  6 10  1  0  0  0
 10 11  2  0  0  0
 10 12  2  0  0  0
 10 13  1  0  0  0
 13 14  2  0  0  0
 14 15  1  0  0  0
 15 16  2  0  0  0
 16 17  1  0  0  0
 17 18  2  0  0  0
 17 19  1  0  0  0
 19 20  1  0  0  0
 19 21  1  0  0  0
 19 22  1  0  0  0
  9  1  1  0  0  0
 18 13  1  0  0  0
  9  5  2  0  0  0
 33 36  1  0  0  0
 28 31  1  0  0  0
 26 27  1  0  0  0
M  END
> <minimizedAffinity>
-9.42228

> <CNNscore>
0.1478992552

> <CNNaffinity>
6.1778802872

> <CNN_VS>
0.9137039185

> <CNNaffinity_variance>
0.0742963776

$$$$
[H]OC(=O)C([H])([H])N([H])C(=O)C(=O)N([H])C([H])([H])c1c([H])c([H])c([H])c2c1c([H])c([H])n2S(=O)(=O)c1c([H])c([H])c([H])c(C(F)(F)F)c1[H]


 36 38  0  0  0  0  0  0  0  0999 V2000
   11.4332   22.7963    1.1798 C   0  0  0  0  0  0  0  0  0  0  0  0
   11.1168   24.1372    1.3539 C   0  0  0  0  0  0  0  0  0  0  0  0
   11.7321   25.1209    0.5708 C   0  0  0  0  0  0  0  0  0  0  0  0
   12.6499   24.7199   -0.3666 C   0  0  0  0  0  0  0  0  0  0  0  0
   12.9936   23.3993   -0.5717 C   0  0  0  0  0  0  0  0  0  0  0  0
   13.8154   22.7877   -1.4566 N   0  0  0  0  0  0  0  0  0  0  0  0
   13.7083   21.4224   -1.2216 C   0  0  0  0  0  0  0  0  0  0  0  0
   12.8262   21.2690   -0.2019 C   0  0  0  0  0  0  0  0  0  0  0  0
   12.3625   22.4734    0.2220 C   0  0  0  0  0  0  0  0  0  0  0  0
   14.8816   23.4696   -2.6012 S   0  0  0  0  0  0  0  0  0  0  0  0
   16.2587   23.5897   -1.9856 O   0  0  0  0  0  0  0  0  0  0  0  0
   15.0284   22.4579   -3.7448 O   0  0  0  0  0  0  0  0  0  0  0  0
   14.3570   24.9973   -3.2113 C   0  0  0  0  0  0  0  0  0  0  0  0
   13.1056   25.5078   -3.0683 C   0  0  0  0  0  0  0  0  0  0  0  0
   12.7825   26.7445   -3.6406 C   0  0  0  0  0  0  0  0  0  0  0  0
   13.7385   27.4498   -4.3561 C   0  0  0  0  0  0  0  0  0  0  0  0
   15.0131   26.9174   -4.4962 C   0  0  0  0  0  0  0  0  0  0  0  0
   15.3176   25.7213   -3.9384 C   0  0  0  0  0  0  0  0  0  0  0  0
   16.0726   27.6281   -5.2771 C   0  0  0  0  0  0  0  0  0  0  0  0
   17.2832   27.5379   -4.5831 F   0  0  0  0  0  0  0  0  0  0  0  0
   16.3057   26.9654   -6.4890 F   0  0  0  0  0  0  0  0  0  0  0  0
   15.7325   28.9192   -5.5800 F   0  0  0  0  0  0  0  0  0  0  0  0
   10.8695   21.7143    2.0258 C   0  0  0  0  0  0  0  0  0  0  0  0
    8.4183   21.6640    2.3418 C   0  0  0  0  0  0  0  0  0  0  0  0
    8.6214   22.1927    3.4514 O   0  0  0  0  0  0  0  0  0  0  0  0
    9.5543   21.3624    1.4870 N   0  0  0  0  0  0  0  0  0  0  0  0
    9.4673   20.9395    0.5797 H   0  0  0  0  0  0  0  0  0  0  0  0
    6.3926   20.3505    2.6145 N   0  0  0  0  0  0  0  0  0  0  0  0
    7.0956   21.3522    1.8891 C   0  0  0  0  0  0  0  0  0  0  0  0
    6.5754   21.9143    0.9316 O   0  0  0  0  0  0  0  0  0  0  0  0
    6.8549   19.8951    3.4241 H   0  0  0  0  0  0  0  0  0  0  0  0
    5.0547   19.9460    2.2633 C   0  0  0  0  0  0  0  0  0  0  0  0
    4.6303   18.8573    0.0001 O   0  0  0  0  0  0  0  0  0  0  0  0
    5.1375   18.7895    1.2978 C   0  0  0  0  0  0  0  0  0  0  0  0
    5.6743   17.7138    1.6287 O   0  0  0  0  0  0  0  0  0  0  0  0
    4.0490   18.0440   -0.2726 H   0  0  0  0  0  0  0  0  0  0  0  0
 33 34  1  0  0  0
 34 35  2  0  0  0
 34 32  1  0  0  0
 32 28  1  0  0  0
 28 29  1  0  0  0
 29 30  2  0  0  0
 29 24  1  0  0  0
 24 25  2  0  0  0
 24 26  1  0  0  0
 26 23  1  0  0  0
 23  1  1  0  0  0
  1  2  2  0  0  0
  2  3  1  0  0  0
  3  4  2  0  0  0
  4  5  1  0  0  0
  5  6  1  0  0  0
  6  7  1  0  0  0
  7  8  2  0  0  0
  8  9  1  0  0  0
  6 10  1  0  0  0
 10 11  2  0  0  0
 10 12  2  0  0  0
 10 13  1  0  0  0
 13 14  2  0  0  0
 14 15  1  0  0  0
 15 16  2  0  0  0
 16 17  1  0  0  0
 17 18  2  0  0  0
 17 19  1  0  0  0
 19 20  1  0  0  0
 19 21  1  0  0  0
 19 22  1  0  0  0
  9  1  1  0  0  0
 18 13  1  0  0  0
  9  5  2  0  0  0
 33 36  1  0  0  0
 28 31  1  0  0  0
 26 27  1  0  0  0
M  END
> <minimizedAffinity>
-8.27890

> <CNNscore>
0.1427715123

> <CNNaffinity>
6.2188420296

> <CNN_VS>
0.8878734708

> <CNNaffinity_variance>
0.2305670977

$$$$
[H]OC(=O)C([H])([H])N([H])C(=O)C(=O)N([H])C([H])([H])c1c([H])c([H])c([H])c2c1c([H])c([H])n2S(=O)(=O)c1c([H])c([H])c([H])c(C(F)(F)F)c1[H]


 36 38  0  0  0  0  0  0  0  0999 V2000
    9.7707   22.3460   -0.1308 C   0  0  0  0  0  0  0  0  0  0  0  0
    9.9023   21.0050    0.2050 C   0  0  0  0  0  0  0  0  0  0  0  0
   11.1106   20.3324   -0.0119 C   0  0  0  0  0  0  0  0  0  0  0  0
   12.1519   21.0358   -0.5622 C   0  0  0  0  0  0  0  0  0  0  0  0
   12.0637   22.3681   -0.9108 C   0  0  0  0  0  0  0  0  0  0  0  0
   12.9608   23.2522   -1.4068 N   0  0  0  0  0  0  0  0  0  0  0  0
   12.3071   24.4750   -1.4965 C   0  0  0  0  0  0  0  0  0  0  0  0
   11.0408   24.2751   -1.0517 C   0  0  0  0  0  0  0  0  0  0  0  0
   10.8575   22.9819   -0.6785 C   0  0  0  0  0  0  0  0  0  0  0  0
   14.5621   22.9945   -1.9376 S   0  0  0  0  0  0  0  0  0  0  0  0
   15.3510   22.3321   -0.8292 O   0  0  0  0  0  0  0  0  0  0  0  0
   14.5043   21.9658   -3.0739 O   0  0  0  0  0  0  0  0  0  0  0  0
   15.3555   24.4339   -2.4671 C   0  0  0  0  0  0  0  0  0  0  0  0
   16.2284   25.1635   -1.7237 C   0  0  0  0  0  0  0  0  0  0  0  0
   16.7830   26.3388   -2.2454 C   0  0  0  0  0  0  0  0  0  0  0  0
   16.4411   26.7614   -3.5213 C   0  0  0  0  0  0  0  0  0  0  0  0
   15.5475   26.0081   -4.2708 C   0  0  0  0  0  0  0  0  0  0  0  0
   15.0167   24.8719   -3.7588 C   0  0  0  0  0  0  0  0  0  0  0  0
   15.1295   26.4330   -5.6427 C   0  0  0  0  0  0  0  0  0  0  0  0
   15.9574   27.4779   -6.0644 F   0  0  0  0  0  0  0  0  0  0  0  0
   15.3626   25.4004   -6.5600 F   0  0  0  0  0  0  0  0  0  0  0  0
   13.7997   26.7496   -5.7180 F   0  0  0  0  0  0  0  0  0  0  0  0
    8.4963   23.0950    0.0079 C   0  0  0  0  0  0  0  0  0  0  0  0
    7.4850   23.0646    2.2633 C   0  0  0  0  0  0  0  0  0  0  0  0
    6.7697   22.1309    1.8529 O   0  0  0  0  0  0  0  0  0  0  0  0
    8.4529   23.6605    1.3578 N   0  0  0  0  0  0  0  0  0  0  0  0
    9.0644   24.4138    1.6190 H   0  0  0  0  0  0  0  0  0  0  0  0
    8.5672   24.0788    4.1878 N   0  0  0  0  0  0  0  0  0  0  0  0
    7.3788   23.5591    3.6034 C   0  0  0  0  0  0  0  0  0  0  0  0
    6.3245   23.5503    4.2292 O   0  0  0  0  0  0  0  0  0  0  0  0
    9.4443   24.0790    3.6334 H   0  0  0  0  0  0  0  0  0  0  0  0
    8.5947   24.6086    5.5277 C   0  0  0  0  0  0  0  0  0  0  0  0
    9.3340   26.9789    4.9593 O   0  0  0  0  0  0  0  0  0  0  0  0
    8.3746   26.0999    5.4622 C   0  0  0  0  0  0  0  0  0  0  0  0
    7.3078   26.6097    5.8584 O   0  0  0  0  0  0  0  0  0  0  0  0
    9.5089   27.8060    5.5584 H   0  0  0  0  0  0  0  0  0  0  0  0
 33 34  1  0  0  0
 34 35  2  0  0  0
 34 32  1  0  0  0
 32 28  1  0  0  0
 28 29  1  0  0  0
 29 30  2  0  0  0
 29 24  1  0  0  0
 24 25  2  0  0  0
 24 26  1  0  0  0
 26 23  1  0  0  0
 23  1  1  0  0  0
  1  2  2  0  0  0
  2  3  1  0  0  0
  3  4  2  0  0  0
  4  5  1  0  0  0
  5  6  1  0  0  0
  6  7  1  0  0  0
  7  8  2  0  0  0
  8  9  1  0  0  0
  6 10  1  0  0  0
 10 11  2  0  0  0
 10 12  2  0  0  0
 10 13  1  0  0  0
 13 14  2  0  0  0
 14 15  1  0  0  0
 15 16  2  0  0  0
 16 17  1  0  0  0
 17 18  2  0  0  0
 17 19  1  0  0  0
 19 20  1  0  0  0
 19 21  1  0  0  0
 19 22  1  0  0  0
  9  1  1  0  0  0
 18 13  1  0  0  0
  9  5  2  0  0  0
 33 36  1  0  0  0
 28 31  1  0  0  0
 26 27  1  0  0  0
M  END
> <minimizedAffinity>
-9.45273

> <CNNscore>
0.1422142535

> <CNNaffinity>
6.3437676430

> <CNN_VS>
0.9021741748

> <CNNaffinity_variance>
0.0869292393

$$$$
[H]OC(=O)C([H])([H])N([H])C(=O)C(=O)N([H])C([H])([H])c1c([H])c([H])c([H])c2c1c([H])c([H])n2S(=O)(=O)c1c([H])c([H])c([H])c(C(F)(F)F)c1[H]


 36 38  0  0  0  0  0  0  0  0999 V2000
    9.8865   22.5738    0.5550 C   0  0  0  0  0  0  0  0  0  0  0  0
   10.1311   21.3716    1.2057 C   0  0  0  0  0  0  0  0  0  0  0  0
   11.3644   20.7245    1.0650 C   0  0  0  0  0  0  0  0  0  0  0  0
   12.3155   21.3123    0.2702 C   0  0  0  0  0  0  0  0  0  0  0  0
   12.1139   22.5048   -0.3943 C   0  0  0  0  0  0  0  0  0  0  0  0
   12.9130   23.2741   -1.1701 N   0  0  0  0  0  0  0  0  0  0  0  0
   12.1735   24.4003   -1.5101 C   0  0  0  0  0  0  0  0  0  0  0  0
   10.9572   24.2607   -0.9251 C   0  0  0  0  0  0  0  0  0  0  0  0
   10.8877   23.0993   -0.2241 C   0  0  0  0  0  0  0  0  0  0  0  0
   14.4878   22.9659   -1.7508 S   0  0  0  0  0  0  0  0  0  0  0  0
   15.2916   22.2838   -0.6652 O   0  0  0  0  0  0  0  0  0  0  0  0
   14.3623   21.9351   -2.8798 O   0  0  0  0  0  0  0  0  0  0  0  0
   15.3069   24.3784   -2.3123 C   0  0  0  0  0  0  0  0  0  0  0  0
   16.1876   25.1128   -1.5828 C   0  0  0  0  0  0  0  0  0  0  0  0
   16.7638   26.2654   -2.1311 C   0  0  0  0  0  0  0  0  0  0  0  0
   16.4352   26.6608   -3.4192 C   0  0  0  0  0  0  0  0  0  0  0  0
   15.5334   25.9030   -4.1542 C   0  0  0  0  0  0  0  0  0  0  0  0
   14.9818   24.7888   -3.6166 C   0  0  0  0  0  0  0  0  0  0  0  0
   15.1293   26.2995   -5.5387 C   0  0  0  0  0  0  0  0  0  0  0  0
   16.0000   27.2931   -5.9969 F   0  0  0  0  0  0  0  0  0  0  0  0
   15.3147   25.2277   -6.4215 F   0  0  0  0  0  0  0  0  0  0  0  0
   13.8142   26.6704   -5.6219 F   0  0  0  0  0  0  0  0  0  0  0  0
    8.5770   23.2714    0.6066 C   0  0  0  0  0  0  0  0  0  0  0  0
    6.6257   21.8050    0.9973 C   0  0  0  0  0  0  0  0  0  0  0  0
    6.7262   22.1104    2.2008 O   0  0  0  0  0  0  0  0  0  0  0  0
    7.5670   22.3717    0.0460 N   0  0  0  0  0  0  0  0  0  0  0  0
    7.5456   22.1734   -0.9388 H   0  0  0  0  0  0  0  0  0  0  0  0
    5.9035   19.5249    0.5695 N   0  0  0  0  0  0  0  0  0  0  0  0
    5.6047   20.9152    0.5308 C   0  0  0  0  0  0  0  0  0  0  0  0
    4.5188   21.3119    0.1222 O   0  0  0  0  0  0  0  0  0  0  0  0
    6.8282   19.2168    0.9253 H   0  0  0  0  0  0  0  0  0  0  0  0
    4.9620   18.5257    0.1312 C   0  0  0  0  0  0  0  0  0  0  0  0
    5.1214   16.2904   -1.0796 O   0  0  0  0  0  0  0  0  0  0  0  0
    5.7286   17.3265   -0.3700 C   0  0  0  0  0  0  0  0  0  0  0  0
    6.9542   17.2175   -0.1679 O   0  0  0  0  0  0  0  0  0  0  0  0
    5.3668   15.3421   -0.7415 H   0  0  0  0  0  0  0  0  0  0  0  0
 33 34  1  0  0  0
 34 35  2  0  0  0
 34 32  1  0  0  0
 32 28  1  0  0  0
 28 29  1  0  0  0
 29 30  2  0  0  0
 29 24  1  0  0  0
 24 25  2  0  0  0
 24 26  1  0  0  0
 26 23  1  0  0  0
 23  1  1  0  0  0
  1  2  2  0  0  0
  2  3  1  0  0  0
  3  4  2  0  0  0
  4  5  1  0  0  0
  5  6  1  0  0  0
  6  7  1  0  0  0
  7  8  2  0  0  0
  8  9  1  0  0  0
  6 10  1  0  0  0
 10 11  2  0  0  0
 10 12  2  0  0  0
 10 13  1  0  0  0
 13 14  2  0  0  0
 14 15  1  0  0  0
 15 16  2  0  0  0
 16 17  1  0  0  0
 17 18  2  0  0  0
 17 19  1  0  0  0
 19 20  1  0  0  0
 19 21  1  0  0  0
 19 22  1  0  0  0
  9  1  1  0  0  0
 18 13  1  0  0  0
  9  5  2  0  0  0
 33 36  1  0  0  0
 28 31  1  0  0  0
 26 27  1  0  0  0
M  END
> <minimizedAffinity>
-9.73453

> <CNNscore>
0.1347562075

> <CNNaffinity>
6.3238849640

> <CNN_VS>
0.8521827459

> <CNNaffinity_variance>
0.1463491023

$$$$
[H]OC(=O)C([H])([H])N([H])C(=O)C(=O)N([H])C([H])([H])c1c([H])c([H])c([H])c2c1c([H])c([H])n2S(=O)(=O)c1c([H])c([H])c([H])c(C(F)(F)F)c1[H]


 36 38  0  0  0  0  0  0  0  0999 V2000
   13.4749   22.7068   -1.2531 C   0  0  0  0  0  0  0  0  0  0  0  0
   12.6444   23.7900   -1.5088 C   0  0  0  0  0  0  0  0  0  0  0  0
   11.5690   24.0779   -0.6602 C   0  0  0  0  0  0  0  0  0  0  0  0
   11.3645   23.2619    0.4234 C   0  0  0  0  0  0  0  0  0  0  0  0
   12.1648   22.1758    0.7137 C   0  0  0  0  0  0  0  0  0  0  0  0
   12.1777   21.2874    1.7349 N   0  0  0  0  0  0  0  0  0  0  0  0
   13.2638   20.4480    1.5190 C   0  0  0  0  0  0  0  0  0  0  0  0
   13.8593   20.8658    0.3735 C   0  0  0  0  0  0  0  0  0  0  0  0
   13.2056   21.9357   -0.1494 C   0  0  0  0  0  0  0  0  0  0  0  0
   11.0728   21.0926    3.0207 S   0  0  0  0  0  0  0  0  0  0  0  0
   11.0217   19.6320    3.4132 O   0  0  0  0  0  0  0  0  0  0  0  0
   11.6555   21.8255    4.2358 O   0  0  0  0  0  0  0  0  0  0  0  0
    9.4879   21.6789    2.6660 C   0  0  0  0  0  0  0  0  0  0  0  0
    8.8041   22.5842    3.4142 C   0  0  0  0  0  0  0  0  0  0  0  0
    7.5049   22.9583    3.0490 C   0  0  0  0  0  0  0  0  0  0  0  0
    6.9129   22.4041    1.9239 C   0  0  0  0  0  0  0  0  0  0  0  0
    7.6211   21.4794    1.1681 C   0  0  0  0  0  0  0  0  0  0  0  0
    8.8777   21.1242    1.5279 C   0  0  0  0  0  0  0  0  0  0  0  0
    7.0188   20.8364   -0.0406 C   0  0  0  0  0  0  0  0  0  0  0  0
    8.0271   20.6111   -0.9829 F   0  0  0  0  0  0  0  0  0  0  0  0
    6.5384   19.5602    0.2801 F   0  0  0  0  0  0  0  0  0  0  0  0
    5.9674   21.5485   -0.5522 F   0  0  0  0  0  0  0  0  0  0  0  0
   14.5863   22.3076   -2.1529 C   0  0  0  0  0  0  0  0  0  0  0  0
   15.7667   24.3692   -2.8364 C   0  0  0  0  0  0  0  0  0  0  0  0
   16.4076   24.2706   -1.7727 O   0  0  0  0  0  0  0  0  0  0  0  0
   14.7609   23.3676   -3.1479 N   0  0  0  0  0  0  0  0  0  0  0  0
   14.2079   23.3808   -3.9867 H   0  0  0  0  0  0  0  0  0  0  0  0
   16.6378   26.6015   -3.2380 N   0  0  0  0  0  0  0  0  0  0  0  0
   16.0010   25.4405   -3.7579 C   0  0  0  0  0  0  0  0  0  0  0  0
   15.6829   25.3762   -4.9403 O   0  0  0  0  0  0  0  0  0  0  0  0
   16.9012   26.6266   -2.2347 H   0  0  0  0  0  0  0  0  0  0  0  0
   16.9323   27.7479   -4.0603 C   0  0  0  0  0  0  0  0  0  0  0  0
   14.4187   27.7313   -4.4720 O   0  0  0  0  0  0  0  0  0  0  0  0
   15.7067   28.0878   -4.8720 C   0  0  0  0  0  0  0  0  0  0  0  0
   15.8012   28.7133   -5.9465 O   0  0  0  0  0  0  0  0  0  0  0  0
   13.8477   27.2928   -5.2172 H   0  0  0  0  0  0  0  0  0  0  0  0
 33 34  1  0  0  0
 34 35  2  0  0  0
 34 32  1  0  0  0
 32 28  1  0  0  0
 28 29  1  0  0  0
 29 30  2  0  0  0
 29 24  1  0  0  0
 24 25  2  0  0  0
 24 26  1  0  0  0
 26 23  1  0  0  0
 23  1  1  0  0  0
  1  2  2  0  0  0
  2  3  1  0  0  0
  3  4  2  0  0  0
  4  5  1  0  0  0
  5  6  1  0  0  0
  6  7  1  0  0  0
  7  8  2  0  0  0
  8  9  1  0  0  0
  6 10  1  0  0  0
 10 11  2  0  0  0
 10 12  2  0  0  0
 10 13  1  0  0  0
 13 14  2  0  0  0
 14 15  1  0  0  0
 15 16  2  0  0  0
 16 17  1  0  0  0
 17 18  2  0  0  0
 17 19  1  0  0  0
 19 20  1  0  0  0
 19 21  1  0  0  0
 19 22  1  0  0  0
  9  1  1  0  0  0
 18 13  1  0  0  0
  9  5  2  0  0  0
 33 36  1  0  0  0
 28 31  1  0  0  0
 26 27  1  0  0  0
M  END
> <minimizedAffinity>
-6.67370

> <CNNscore>
0.1345756650

> <CNNaffinity>
6.5441017151

> <CNN_VS>
0.8806768656

> <CNNaffinity_variance>
0.0830266029

$$$$
[H]c1nc([H])c(C([H])([H])N([H])C(=O)N([H])C23C([H])([H])C4([H])C([H])([H])C([H])(C([H])([H])C([H])(C4([H])[H])C2([H])[H])C3([H])[H])c([H])c1[H]


 23 26  0  0  0  0  0  0  0  0999 V2000
   14.5018   23.4223   -0.9701 O   0  0  0  0  0  0  0  0  0  0  0  0
   14.6170   22.5419   -1.8400 C   0  0  0  0  0  0  0  0  0  0  0  0
   14.8480   22.9009   -3.1756 N   0  0  0  0  0  0  0  0  0  0  0  0
   14.5150   21.1897   -1.4828 N   0  0  0  0  0  0  0  0  0  0  0  0
   14.9342   22.1123   -3.8803 H   0  0  0  0  0  0  0  0  0  0  0  0
   14.6089   20.4323   -2.1809 H   0  0  0  0  0  0  0  0  0  0  0  0
   14.9776   24.2420   -3.6643 C   0  0  0  0  0  0  0  0  0  0  0  0
   15.2438   24.3324   -5.1389 C   0  0  0  0  0  0  0  0  0  0  0  0
   15.3934   25.7957   -5.4989 C   0  0  0  0  0  0  0  0  0  0  0  0
   14.1378   26.5824   -5.1678 C   0  0  0  0  0  0  0  0  0  0  0  0
   13.9205   26.4813   -3.6876 C   0  0  0  0  0  0  0  0  0  0  0  0
   15.0443   27.0294   -2.8744 C   0  0  0  0  0  0  0  0  0  0  0  0
   16.3217   26.3272   -3.2820 C   0  0  0  0  0  0  0  0  0  0  0  0
   16.5388   26.4503   -4.7864 C   0  0  0  0  0  0  0  0  0  0  0  0
   16.2003   24.8635   -2.9748 C   0  0  0  0  0  0  0  0  0  0  0  0
   13.7335   25.0205   -3.3386 C   0  0  0  0  0  0  0  0  0  0  0  0
   14.2719   20.8329   -0.1021 C   0  0  0  0  0  0  0  0  0  0  0  0
   12.8301   20.9400    0.2458 C   0  0  0  0  0  0  0  0  0  0  0  0
   11.8597   20.4708   -0.6103 C   0  0  0  0  0  0  0  0  0  0  0  0
   10.5194   20.5937   -0.2462 C   0  0  0  0  0  0  0  0  0  0  0  0
   10.1345   21.1671    0.9378 C   0  0  0  0  0  0  0  0  0  0  0  0
   11.0887   21.6165    1.7561 N   0  0  0  0  0  0  0  0  0  0  0  0
   12.3833   21.5126    1.4340 C   0  0  0  0  0  0  0  0  0  0  0  0
  1  2  2  0  0  0
  2  3  1  0  0  0
  3  7  1  0  0  0
  7  8  1  0  0  0
  8  9  1  0  0  0
  9 10  1  0  0  0
 10 11  1  0  0  0
 11 12  1  0  0  0
 12 13  1  0  0  0
 13 14  1  0  0  0
 13 15  1  0  0  0
 11 16  1  0  0  0
  2  4  1  0  0  0
  4 17  1  0  0  0
 17 18  1  0  0  0
 18 19  2  0  0  0
 19 20  1  0  0  0
 20 21  2  0  0  0
 21 22  1  0  0  0
 22 23  2  0  0  0
 15  7  1  0  0  0
 23 18  1  0  0  0
 16  7  1  0  0  0
 14  9  1  0  0  0
  3  5  1  0  0  0
  4  6  1  0  0  0
M  END
> <minimizedAffinity>
-6.92938

> <CNNscore>
0.3103004992

> <CNNaffinity>
6.4817605019

> <CNN_VS>
2.0112934113

> <CNNaffinity_variance>
0.2221835107

$$$$
[H]c1nc([H])c(C([H])([H])N([H])C(=O)N([H])C23C([H])([H])C4([H])C([H])([H])C([H])(C([H])([H])C([H])(C4([H])[H])C2([H])[H])C3([H])[H])c([H])c1[H]


 23 26  0  0  0  0  0  0  0  0999 V2000
   12.8804   24.0088    0.3526 O   0  0  0  0  0  0  0  0  0  0  0  0
   12.2174   23.6710   -0.6431 C   0  0  0  0  0  0  0  0  0  0  0  0
   10.8995   23.2179   -0.4880 N   0  0  0  0  0  0  0  0  0  0  0  0
   12.7902   23.7438   -1.9211 N   0  0  0  0  0  0  0  0  0  0  0  0
   10.3779   22.9373   -1.3684 H   0  0  0  0  0  0  0  0  0  0  0  0
   12.2655   23.4735   -2.7704 H   0  0  0  0  0  0  0  0  0  0  0  0
   10.2020   23.1042    0.7589 C   0  0  0  0  0  0  0  0  0  0  0  0
   10.5849   21.8978    1.5659 C   0  0  0  0  0  0  0  0  0  0  0  0
    9.7458   21.8921    2.8266 C   0  0  0  0  0  0  0  0  0  0  0  0
    9.9768   23.1428    3.6556 C   0  0  0  0  0  0  0  0  0  0  0  0
    9.5651   24.3186    2.8210 C   0  0  0  0  0  0  0  0  0  0  0  0
    8.1330   24.2907    2.4050 C   0  0  0  0  0  0  0  0  0  0  0  0
    7.8680   22.9912    1.6756 C   0  0  0  0  0  0  0  0  0  0  0  0
    8.2766   21.8036    2.5405 C   0  0  0  0  0  0  0  0  0  0  0  0
    8.7104   22.9406    0.4349 C   0  0  0  0  0  0  0  0  0  0  0  0
   10.4326   24.3416    1.5809 C   0  0  0  0  0  0  0  0  0  0  0  0
   14.1523   24.2087   -2.0669 C   0  0  0  0  0  0  0  0  0  0  0  0
   14.3259   25.0171   -3.3029 C   0  0  0  0  0  0  0  0  0  0  0  0
   15.2613   24.6678   -4.2504 C   0  0  0  0  0  0  0  0  0  0  0  0
   15.3931   25.4552   -5.3935 C   0  0  0  0  0  0  0  0  0  0  0  0
   14.6211   26.5677   -5.6062 C   0  0  0  0  0  0  0  0  0  0  0  0
   13.7189   26.8917   -4.6772 N   0  0  0  0  0  0  0  0  0  0  0  0
   13.5695   26.1554   -3.5698 C   0  0  0  0  0  0  0  0  0  0  0  0
  1  2  2  0  0  0
  2  3  1  0  0  0
  3  7  1  0  0  0
  7  8  1  0  0  0
  8  9  1  0  0  0
  9 10  1  0  0  0
 10 11  1  0  0  0
 11 12  1  0  0  0
 12 13  1  0  0  0
 13 14  1  0  0  0
 13 15  1  0  0  0
 11 16  1  0  0  0
  2  4  1  0  0  0
  4 17  1  0  0  0
 17 18  1  0  0  0
 18 19  2  0  0  0
 19 20  1  0  0  0
 20 21  2  0  0  0
 21 22  1  0  0  0
 22 23  2  0  0  0
 15  7  1  0  0  0
 23 18  1  0  0  0
 16  7  1  0  0  0
 14  9  1  0  0  0
  3  5  1  0  0  0
  4  6  1  0  0  0
M  END
> <minimizedAffinity>
-7.57375

> <CNNscore>
0.2879195511

> <CNNaffinity>
6.0621790886

> <CNN_VS>
1.7454198599

> <CNNaffinity_variance>
0.1257860661

$$$$
[H]c1nc([H])c(C([H])([H])N([H])C(=O)N([H])C23C([H])([H])C4([H])C([H])([H])C([H])(C([H])([H])C([H])(C4([H])[H])C2([H])[H])C3([H])[H])c([H])c1[H]


 23 26  0  0  0  0  0  0  0  0999 V2000
   14.7223   23.5245   -1.0661 O   0  0  0  0  0  0  0  0  0  0  0  0
   14.6802   22.6996   -1.9951 C   0  0  0  0  0  0  0  0  0  0  0  0
   14.8321   23.1280   -3.3215 N   0  0  0  0  0  0  0  0  0  0  0  0
   14.4802   21.3405   -1.7136 N   0  0  0  0  0  0  0  0  0  0  0  0
   14.7838   22.3856   -4.0780 H   0  0  0  0  0  0  0  0  0  0  0  0
   14.4431   20.6279   -2.4623 H   0  0  0  0  0  0  0  0  0  0  0  0
   15.0475   24.4828   -3.7369 C   0  0  0  0  0  0  0  0  0  0  0  0
   16.1518   25.1808   -2.9975 C   0  0  0  0  0  0  0  0  0  0  0  0
   16.2356   26.6020   -3.5137 C   0  0  0  0  0  0  0  0  0  0  0  0
   16.5295   26.6379   -5.0028 C   0  0  0  0  0  0  0  0  0  0  0  0
   15.3961   25.9488   -5.7020 C   0  0  0  0  0  0  0  0  0  0  0  0
   14.0680   26.5874   -5.4716 C   0  0  0  0  0  0  0  0  0  0  0  0
   13.8194   26.6584   -3.9803 C   0  0  0  0  0  0  0  0  0  0  0  0
   14.9712   27.3743   -3.2831 C   0  0  0  0  0  0  0  0  0  0  0  0
   13.7658   25.2667   -3.4217 C   0  0  0  0  0  0  0  0  0  0  0  0
   15.3409   24.5183   -5.2109 C   0  0  0  0  0  0  0  0  0  0  0  0
   14.3203   20.9122   -0.3410 C   0  0  0  0  0  0  0  0  0  0  0  0
   12.9011   20.9917    0.0958 C   0  0  0  0  0  0  0  0  0  0  0  0
   11.8882   20.5069   -0.7002 C   0  0  0  0  0  0  0  0  0  0  0  0
   10.5711   20.6040   -0.2533 C   0  0  0  0  0  0  0  0  0  0  0  0
   10.2499   21.1671    0.9544 C   0  0  0  0  0  0  0  0  0  0  0  0
   11.2446   21.6319    1.7136 N   0  0  0  0  0  0  0  0  0  0  0  0
   12.5185   21.5528    1.3116 C   0  0  0  0  0  0  0  0  0  0  0  0
  1  2  2  0  0  0
  2  3  1  0  0  0
  3  7  1  0  0  0
  7  8  1  0  0  0
  8  9  1  0  0  0
  9 10  1  0  0  0
 10 11  1  0  0  0
 11 12  1  0  0  0
 12 13  1  0  0  0
 13 14  1  0  0  0
 13 15  1  0  0  0
 11 16  1  0  0  0
  2  4  1  0  0  0
  4 17  1  0  0  0
 17 18  1  0  0  0
 18 19  2  0  0  0
 19 20  1  0  0  0
 20 21  2  0  0  0
 21 22  1  0  0  0
 22 23  2  0  0  0
 15  7  1  0  0  0
 23 18  1  0  0  0
 16  7  1  0  0  0
 14  9  1  0  0  0
  3  5  1  0  0  0
  4  6  1  0  0  0
M  END
> <minimizedAffinity>
-7.20545

> <CNNscore>
0.2824414074

> <CNNaffinity>
6.4357771873

> <CNN_VS>
1.8177299500

> <CNNaffinity_variance>
0.1296680421

$$$$
[H]c1nc([H])c(C([H])([H])N([H])C(=O)N([H])C23C([H])([H])C4([H])C([H])([H])C([H])(C([H])([H])C([H])(C4([H])[H])C2([H])[H])C3([H])[H])c([H])c1[H]


 23 26  0  0  0  0  0  0  0  0999 V2000
   11.8130   24.2801   -2.1067 O   0  0  0  0  0  0  0  0  0  0  0  0
   12.4478   23.4178   -1.4754 C   0  0  0  0  0  0  0  0  0  0  0  0
   13.8408   23.3323   -1.6110 N   0  0  0  0  0  0  0  0  0  0  0  0
   11.7681   22.5311   -0.6280 N   0  0  0  0  0  0  0  0  0  0  0  0
   14.3353   22.5764   -1.0544 H   0  0  0  0  0  0  0  0  0  0  0  0
   12.2660   21.8042   -0.0863 H   0  0  0  0  0  0  0  0  0  0  0  0
   14.6482   24.1809   -2.4371 C   0  0  0  0  0  0  0  0  0  0  0  0
   15.6584   24.9913   -1.6780 C   0  0  0  0  0  0  0  0  0  0  0  0
   16.4037   25.8590   -2.6704 C   0  0  0  0  0  0  0  0  0  0  0  0
   17.1175   25.0221   -3.7169 C   0  0  0  0  0  0  0  0  0  0  0  0
   16.0728   24.2457   -4.4615 C   0  0  0  0  0  0  0  0  0  0  0  0
   15.0652   25.1005   -5.1534 C   0  0  0  0  0  0  0  0  0  0  0  0
   14.4298   26.0193   -4.1321 C   0  0  0  0  0  0  0  0  0  0  0  0
   15.5011   26.8137   -3.3928 C   0  0  0  0  0  0  0  0  0  0  0  0
   13.7093   25.1945   -3.1064 C   0  0  0  0  0  0  0  0  0  0  0  0
   15.3568   23.3521   -3.4718 C   0  0  0  0  0  0  0  0  0  0  0  0
   10.3302   22.6269   -0.5005 C   0  0  0  0  0  0  0  0  0  0  0  0
    9.9253   22.9755    0.8872 C   0  0  0  0  0  0  0  0  0  0  0  0
    8.9913   23.9583    1.1253 C   0  0  0  0  0  0  0  0  0  0  0  0
    8.6424   24.2554    2.4421 C   0  0  0  0  0  0  0  0  0  0  0  0
    9.1992   23.6007    3.5099 C   0  0  0  0  0  0  0  0  0  0  0  0
   10.1030   22.6505    3.2608 N   0  0  0  0  0  0  0  0  0  0  0  0
   10.4580   22.3432    2.0077 C   0  0  0  0  0  0  0  0  0  0  0  0
  1  2  2  0  0  0
  2  3  1  0  0  0
  3  7  1  0  0  0
  7  8  1  0  0  0
  8  9  1  0  0  0
  9 10  1  0  0  0
 10 11  1  0  0  0
 11 12  1  0  0  0
 12 13  1  0  0  0
 13 14  1  0  0  0
 13 15  1  0  0  0
 11 16  1  0  0  0
  2  4  1  0  0  0
  4 17  1  0  0  0
 17 18  1  0  0  0
 18 19  2  0  0  0
 19 20  1  0  0  0
 20 21  2  0  0  0
 21 22  1  0  0  0
 22 23  2  0  0  0
 15  7  1  0  0  0
 23 18  1  0  0  0
 16  7  1  0  0  0
 14  9  1  0  0  0
  3  5  1  0  0  0
  4  6  1  0  0  0
M  END
> <minimizedAffinity>
-5.11923

> <CNNscore>
0.2794907987

> <CNNaffinity>
6.0941901207

> <CNN_VS>
1.7032700777

> <CNNaffinity_variance>
0.1817430854

$$$$
[H]c1nc([H])c(C([H])([H])N([H])C(=O)N([H])C23C([H])([H])C4([H])C([H])([H])C([H])(C([H])([H])C([H])(C4([H])[H])C2([H])[H])C3([H])[H])c([H])c1[H]


 23 26  0  0  0  0  0  0  0  0999 V2000
   14.2460   24.2376   -0.5559 O   0  0  0  0  0  0  0  0  0  0  0  0
   13.8268   23.7873   -1.6360 C   0  0  0  0  0  0  0  0  0  0  0  0
   12.6001   23.1098   -1.6851 N   0  0  0  0  0  0  0  0  0  0  0  0
   14.5832   23.9579   -2.8044 N   0  0  0  0  0  0  0  0  0  0  0  0
   12.2891   22.7408   -2.6300 H   0  0  0  0  0  0  0  0  0  0  0  0
   14.2622   23.5984   -3.7196 H   0  0  0  0  0  0  0  0  0  0  0  0
   11.7348   22.8770   -0.5665 C   0  0  0  0  0  0  0  0  0  0  0  0
   12.4560   22.5162    0.6996 C   0  0  0  0  0  0  0  0  0  0  0  0
   11.4188   22.2648    1.7740 C   0  0  0  0  0  0  0  0  0  0  0  0
   10.5610   23.4933    2.0192 C   0  0  0  0  0  0  0  0  0  0  0  0
    9.8465   23.8063    0.7385 C   0  0  0  0  0  0  0  0  0  0  0  0
    8.9617   22.7062    0.2573 C   0  0  0  0  0  0  0  0  0  0  0  0
    9.7897   21.4466    0.1200 C   0  0  0  0  0  0  0  0  0  0  0  0
   10.4988   21.1311    1.4327 C   0  0  0  0  0  0  0  0  0  0  0  0
   10.8561   21.6667   -0.9125 C   0  0  0  0  0  0  0  0  0  0  0  0
   10.8871   24.0942   -0.3221 C   0  0  0  0  0  0  0  0  0  0  0  0
   15.8493   24.6547   -2.7392 C   0  0  0  0  0  0  0  0  0  0  0  0
   15.8656   25.8458   -3.6292 C   0  0  0  0  0  0  0  0  0  0  0  0
   16.7379   26.8861   -3.4021 C   0  0  0  0  0  0  0  0  0  0  0  0
   16.7179   27.9854   -4.2595 C   0  0  0  0  0  0  0  0  0  0  0  0
   15.8572   28.0655   -5.3233 C   0  0  0  0  0  0  0  0  0  0  0  0
   15.0182   27.0478   -5.5289 N   0  0  0  0  0  0  0  0  0  0  0  0
   15.0141   25.9795   -4.7230 C   0  0  0  0  0  0  0  0  0  0  0  0
  1  2  2  0  0  0
  2  3  1  0  0  0
  3  7  1  0  0  0
  7  8  1  0  0  0
  8  9  1  0  0  0
  9 10  1  0  0  0
 10 11  1  0  0  0
 11 12  1  0  0  0
 12 13  1  0  0  0
 13 14  1  0  0  0
 13 15  1  0  0  0
 11 16  1  0  0  0
  2  4  1  0  0  0
  4 17  1  0  0  0
 17 18  1  0  0  0
 18 19  2  0  0  0
 19 20  1  0  0  0
 20 21  2  0  0  0
 21 22  1  0  0  0
 22 23  2  0  0  0
 15  7  1  0  0  0
 23 18  1  0  0  0
 16  7  1  0  0  0
 14  9  1  0  0  0
  3  5  1  0  0  0
  4  6  1  0  0  0
M  END
> <minimizedAffinity>
-7.87271

> <CNNscore>
0.2620676458

> <CNNaffinity>
6.2929754257

> <CNN_VS>
1.6491852999

> <CNNaffinity_variance>
0.0387086570

$$$$
[H]c1nc([H])c(C([H])([H])N([H])C(=O)N([H])C23C([H])([H])C4([H])C([H])([H])C([H])(C([H])([H])C([H])(C4([H])[H])C2([H])[H])C3([H])[H])c([H])c1[H]


 23 26  0  0  0  0  0  0  0  0999 V2000
   11.9772   25.1774   -1.8035 O   0  0  0  0  0  0  0  0  0  0  0  0
   12.7589   24.3067   -1.3840 C   0  0  0  0  0  0  0  0  0  0  0  0
   14.0642   24.2325   -1.8908 N   0  0  0  0  0  0  0  0  0  0  0  0
   12.3325   23.3993   -0.4036 N   0  0  0  0  0  0  0  0  0  0  0  0
   14.6906   23.4688   -1.5033 H   0  0  0  0  0  0  0  0  0  0  0  0
   12.9582   22.6649   -0.0307 H   0  0  0  0  0  0  0  0  0  0  0  0
   14.6193   25.1022   -2.8857 C   0  0  0  0  0  0  0  0  0  0  0  0
   15.8278   25.8646   -2.4258 C   0  0  0  0  0  0  0  0  0  0  0  0
   16.2757   26.7613   -3.5610 C   0  0  0  0  0  0  0  0  0  0  0  0
   16.6319   25.9578   -4.7989 C   0  0  0  0  0  0  0  0  0  0  0  0
   15.3955   25.2292   -5.2338 C   0  0  0  0  0  0  0  0  0  0  0  0
   14.2537   26.1275   -5.5714 C   0  0  0  0  0  0  0  0  0  0  0  0
   13.9673   27.0127   -4.3776 C   0  0  0  0  0  0  0  0  0  0  0  0
   15.2281   27.7590   -3.9549 C   0  0  0  0  0  0  0  0  0  0  0  0
   13.5540   26.1571   -3.2162 C   0  0  0  0  0  0  0  0  0  0  0  0
   14.9742   24.3063   -4.1106 C   0  0  0  0  0  0  0  0  0  0  0  0
   10.9818   23.4837    0.1076 C   0  0  0  0  0  0  0  0  0  0  0  0
   10.8310   22.7348    1.3834 C   0  0  0  0  0  0  0  0  0  0  0  0
    9.6349   22.7324    2.0645 C   0  0  0  0  0  0  0  0  0  0  0  0
    9.5377   22.0192    3.2586 C   0  0  0  0  0  0  0  0  0  0  0  0
   10.5952   21.3189    3.7784 C   0  0  0  0  0  0  0  0  0  0  0  0
   11.7475   21.3320    3.1048 N   0  0  0  0  0  0  0  0  0  0  0  0
   11.8712   22.0073    1.9562 C   0  0  0  0  0  0  0  0  0  0  0  0
  1  2  2  0  0  0
  2  3  1  0  0  0
  3  7  1  0  0  0
  7  8  1  0  0  0
  8  9  1  0  0  0
  9 10  1  0  0  0
 10 11  1  0  0  0
 11 12  1  0  0  0
 12 13  1  0  0  0
 13 14  1  0  0  0
 13 15  1  0  0  0
 11 16  1  0  0  0
  2  4  1  0  0  0
  4 17  1  0  0  0
 17 18  1  0  0  0
 18 19  2  0  0  0
 19 20  1  0  0  0
 20 21  2  0  0  0
 21 22  1  0  0  0
 22 23  2  0  0  0
 15  7  1  0  0  0
 23 18  1  0  0  0
 16  7  1  0  0  0
 14  9  1  0  0  0
  3  5  1  0  0  0
  4  6  1  0  0  0
M  END
> <minimizedAffinity>
-5.77438

> <CNNscore>
0.2616707683

> <CNNaffinity>
6.0236959457

> <CNN_VS>
1.5762251616

> <CNNaffinity_variance>
0.1455771625

$$$$
[H]c1nc([H])c(C([H])([H])N([H])C(=O)N([H])C23C([H])([H])C4([H])C([H])([H])C([H])(C([H])([H])C([H])(C4([H])[H])C2([H])[H])C3([H])[H])c([H])c1[H]


 23 26  0  0  0  0  0  0  0  0999 V2000
   13.5270   24.4309   -0.1782 O   0  0  0  0  0  0  0  0  0  0  0  0
   12.4954   24.7885   -0.7722 C   0  0  0  0  0  0  0  0  0  0  0  0
   12.5761   25.2895   -2.0794 N   0  0  0  0  0  0  0  0  0  0  0  0
   11.2514   24.6901   -0.1324 N   0  0  0  0  0  0  0  0  0  0  0  0
   11.6676   25.5853   -2.5408 H   0  0  0  0  0  0  0  0  0  0  0  0
   10.3737   24.9759   -0.5991 H   0  0  0  0  0  0  0  0  0  0  0  0
   13.7821   25.4331   -2.8404 C   0  0  0  0  0  0  0  0  0  0  0  0
   13.6218   26.2449   -4.0928 C   0  0  0  0  0  0  0  0  0  0  0  0
   14.9581   26.2770   -4.8045 C   0  0  0  0  0  0  0  0  0  0  0  0
   16.0365   26.9018   -3.9375 C   0  0  0  0  0  0  0  0  0  0  0  0
   16.1765   26.0514   -2.7104 C   0  0  0  0  0  0  0  0  0  0  0  0
   16.5650   24.6400   -2.9961 C   0  0  0  0  0  0  0  0  0  0  0  0
   15.5538   24.0457   -3.9527 C   0  0  0  0  0  0  0  0  0  0  0  0
   15.4320   24.9112   -5.2022 C   0  0  0  0  0  0  0  0  0  0  0  0
   14.2041   24.0295   -3.2972 C   0  0  0  0  0  0  0  0  0  0  0  0
   14.8493   26.0539   -1.9829 C   0  0  0  0  0  0  0  0  0  0  0  0
   11.1824   24.1758    1.2180 C   0  0  0  0  0  0  0  0  0  0  0  0
    9.9743   23.3332    1.4222 C   0  0  0  0  0  0  0  0  0  0  0  0
    8.9116   23.3977    0.5496 C   0  0  0  0  0  0  0  0  0  0  0  0
    7.7971   22.5922    0.7799 C   0  0  0  0  0  0  0  0  0  0  0  0
    7.7236   21.7363    1.8481 C   0  0  0  0  0  0  0  0  0  0  0  0
    8.7631   21.6864    2.6841 N   0  0  0  0  0  0  0  0  0  0  0  0
    9.8464   22.4473    2.4891 C   0  0  0  0  0  0  0  0  0  0  0  0
  1  2  2  0  0  0
  2  3  1  0  0  0
  3  7  1  0  0  0
  7  8  1  0  0  0
  8  9  1  0  0  0
  9 10  1  0  0  0
 10 11  1  0  0  0
 11 12  1  0  0  0
 12 13  1  0  0  0
 13 14  1  0  0  0
 13 15  1  0  0  0
 11 16  1  0  0  0
  2  4  1  0  0  0
  4 17  1  0  0  0
 17 18  1  0  0  0
 18 19  2  0  0  0
 19 20  1  0  0  0
 20 21  2  0  0  0
 21 22  1  0  0  0
 22 23  2  0  0  0
 15  7  1  0  0  0
 23 18  1  0  0  0
 16  7  1  0  0  0
 14  9  1  0  0  0
  3  5  1  0  0  0
  4  6  1  0  0  0
M  END
> <minimizedAffinity>
-7.00763

> <CNNscore>
0.2431903034

> <CNNaffinity>
6.1439871788

> <CNN_VS>
1.4941581488

> <CNNaffinity_variance>
0.0755887032

$$$$
[H]c1nc([H])c(C([H])([H])N([H])C(=O)N([H])C23C([H])([H])C4([H])C([H])([H])C([H])(C([H])([H])C([H])(C4([H])[H])C2([H])[H])C3([H])[H])c([H])c1[H]


 23 26  0  0  0  0  0  0  0  0999 V2000
   13.8036   24.8906   -1.1050 O   0  0  0  0  0  0  0  0  0  0  0  0
   14.3030   23.9455   -1.7394 C   0  0  0  0  0  0  0  0  0  0  0  0
   13.7578   22.6586   -1.6266 N   0  0  0  0  0  0  0  0  0  0  0  0
   15.4124   24.1691   -2.5675 N   0  0  0  0  0  0  0  0  0  0  0  0
   14.2232   21.8857   -2.1849 H   0  0  0  0  0  0  0  0  0  0  0  0
   15.8501   23.4059   -3.1112 H   0  0  0  0  0  0  0  0  0  0  0  0
   12.6261   22.3040   -0.8218 C   0  0  0  0  0  0  0  0  0  0  0  0
   12.1165   20.9127   -1.0624 C   0  0  0  0  0  0  0  0  0  0  0  0
   10.9073   20.6972   -0.1766 C   0  0  0  0  0  0  0  0  0  0  0  0
   11.2570   20.8551    1.2923 C   0  0  0  0  0  0  0  0  0  0  0  0
   11.7421   22.2600    1.4910 C   0  0  0  0  0  0  0  0  0  0  0  0
   10.7355   23.3015    1.1349 C   0  0  0  0  0  0  0  0  0  0  0  0
   10.2970   23.0788   -0.2965 C   0  0  0  0  0  0  0  0  0  0  0  0
    9.7921   21.6518   -0.4816 C   0  0  0  0  0  0  0  0  0  0  0  0
   11.4779   23.2476   -1.2067 C   0  0  0  0  0  0  0  0  0  0  0  0
   12.9729   22.4581    0.6328 C   0  0  0  0  0  0  0  0  0  0  0  0
   15.9682   25.5008   -2.6715 C   0  0  0  0  0  0  0  0  0  0  0  0
   15.8011   26.0588   -4.0396 C   0  0  0  0  0  0  0  0  0  0  0  0
   15.4041   25.2578   -5.0862 C   0  0  0  0  0  0  0  0  0  0  0  0
   15.2625   25.8213   -6.3536 C   0  0  0  0  0  0  0  0  0  0  0  0
   15.5056   27.1488   -6.5933 C   0  0  0  0  0  0  0  0  0  0  0  0
   15.8896   27.9110   -5.5670 N   0  0  0  0  0  0  0  0  0  0  0  0
   16.0342   27.3987   -4.3393 C   0  0  0  0  0  0  0  0  0  0  0  0
  1  2  2  0  0  0
  2  3  1  0  0  0
  3  7  1  0  0  0
  7  8  1  0  0  0
  8  9  1  0  0  0
  9 10  1  0  0  0
 10 11  1  0  0  0
 11 12  1  0  0  0
 12 13  1  0  0  0
 13 14  1  0  0  0
 13 15  1  0  0  0
 11 16  1  0  0  0
  2  4  1  0  0  0
  4 17  1  0  0  0
 17 18  1  0  0  0
 18 19  2  0  0  0
 19 20  1  0  0  0
 20 21  2  0  0  0
 21 22  1  0  0  0
 22 23  2  0  0  0
 15  7  1  0  0  0
 23 18  1  0  0  0
 16  7  1  0  0  0
 14  9  1  0  0  0
  3  5  1  0  0  0
  4  6  1  0  0  0
M  END
> <minimizedAffinity>
-7.89708

> <CNNscore>
0.2422777861

> <CNNaffinity>
6.3105707169

> <CNN_VS>
1.5289111137

> <CNNaffinity_variance>
0.0269564930

$$$$
[H]c1nc([H])c(C([H])([H])N([H])C(=O)N([H])C23C([H])([H])C4([H])C([H])([H])C([H])(C([H])([H])C([H])(C4([H])[H])C2([H])[H])C3([H])[H])c([H])c1[H]


 23 26  0  0  0  0  0  0  0  0999 V2000
   14.1994   24.2342   -0.9186 O   0  0  0  0  0  0  0  0  0  0  0  0
   14.4917   23.2762   -1.6548 C   0  0  0  0  0  0  0  0  0  0  0  0
   14.8424   23.5013   -2.9936 N   0  0  0  0  0  0  0  0  0  0  0  0
   14.4696   21.9706   -1.1436 N   0  0  0  0  0  0  0  0  0  0  0  0
   15.0788   22.6500   -3.5812 H   0  0  0  0  0  0  0  0  0  0  0  0
   14.7101   21.1517   -1.7278 H   0  0  0  0  0  0  0  0  0  0  0  0
   14.9080   24.7837   -3.6303 C   0  0  0  0  0  0  0  0  0  0  0  0
   13.6094   25.5367   -3.6240 C   0  0  0  0  0  0  0  0  0  0  0  0
   13.8224   26.8437   -4.3585 C   0  0  0  0  0  0  0  0  0  0  0  0
   14.8943   27.6887   -3.6935 C   0  0  0  0  0  0  0  0  0  0  0  0
   16.1744   26.9091   -3.7384 C   0  0  0  0  0  0  0  0  0  0  0  0
   16.6300   26.5770   -5.1192 C   0  0  0  0  0  0  0  0  0  0  0  0
   15.5189   25.8324   -5.8276 C   0  0  0  0  0  0  0  0  0  0  0  0
   14.2273   26.6420   -5.7881 C   0  0  0  0  0  0  0  0  0  0  0  0
   15.2507   24.5436   -5.1074 C   0  0  0  0  0  0  0  0  0  0  0  0
   15.9676   25.6213   -2.9704 C   0  0  0  0  0  0  0  0  0  0  0  0
   14.1016   21.7516    0.2383 C   0  0  0  0  0  0  0  0  0  0  0  0
   12.6403   21.5192    0.3858 C   0  0  0  0  0  0  0  0  0  0  0  0
   11.9728   20.6589   -0.4562 C   0  0  0  0  0  0  0  0  0  0  0  0
   10.6018   20.4720   -0.2845 C   0  0  0  0  0  0  0  0  0  0  0  0
    9.8946   21.1174    0.6964 C   0  0  0  0  0  0  0  0  0  0  0  0
   10.5577   21.9479    1.5040 N   0  0  0  0  0  0  0  0  0  0  0  0
   11.8734   22.1476    1.3638 C   0  0  0  0  0  0  0  0  0  0  0  0
  1  2  2  0  0  0
  2  3  1  0  0  0
  3  7  1  0  0  0
  7  8  1  0  0  0
  8  9  1  0  0  0
  9 10  1  0  0  0
 10 11  1  0  0  0
 11 12  1  0  0  0
 12 13  1  0  0  0
 13 14  1  0  0  0
 13 15  1  0  0  0
 11 16  1  0  0  0
  2  4  1  0  0  0
  4 17  1  0  0  0
 17 18  1  0  0  0
 18 19  2  0  0  0
 19 20  1  0  0  0
 20 21  2  0  0  0
 21 22  1  0  0  0
 22 23  2  0  0  0
 15  7  1  0  0  0
 23 18  1  0  0  0
 16  7  1  0  0  0
 14  9  1  0  0  0
  3  5  1  0  0  0
  4  6  1  0  0  0
M  END
> <minimizedAffinity>
-6.71217

> <CNNscore>
0.2321917713

> <CNNaffinity>
6.3738865852

> <CNN_VS>
1.4799640179

> <CNNaffinity_variance>
0.1934041530

$$$$
[H]O[C@@]([H])(C(F)(F)F)C([H])([H])[C@@]1([H])C([H])([H])O[C@]1([H])[C@@]1([H])C(F)=C([H])c2c([H])nc(OC([H])([H])[H])c(c2[H])C(=O)N1[H]


 28 30  0  0  0  0  0  0  0  0999 V2000
   16.1080   25.5233   -2.2772 C   0  0  0  0  0  0  0  0  0  0  0  0
   15.4535   26.0807   -3.5064 N   0  0  0  0  0  0  0  0  0  0  0  0
   13.9575   26.1159   -3.6092 C   0  0  0  0  0  0  0  0  0  0  0  0
   13.1158   25.5937   -2.4827 C   0  0  0  0  0  0  0  0  0  0  0  0
   13.7703   25.0363   -1.2535 C   0  0  0  0  0  0  0  0  0  0  0  0
   15.2663   25.0011   -1.1508 C   0  0  0  0  0  0  0  0  0  0  0  0
   15.1075   24.3480    0.2733 C   0  0  0  0  0  0  0  0  0  0  0  0
   16.3491   24.0059    1.0423 O   0  0  0  0  0  0  0  0  0  0  0  0
   13.8548   23.9965    1.0196 N   0  0  0  0  0  0  0  0  0  0  0  0
   12.3856   24.1128    0.7402 C   0  0  0  0  0  0  0  0  0  0  0  0
   11.8632   25.2422   -1.7364 C   0  0  0  0  0  0  0  0  0  0  0  0
   11.5607   24.6288   -0.4013 C   0  0  0  0  0  0  0  0  0  0  0  0
   10.7647   24.6417   -0.4433 F   0  0  0  0  0  0  0  0  0  0  0  0
   14.1376   23.3853    2.3600 H   0  0  0  0  0  0  0  0  0  0  0  0
   10.9621   23.9068    1.1658 C   0  0  0  0  0  0  0  0  0  0  0  0
   10.9638   25.2548    1.8237 O   0  0  0  0  0  0  0  0  0  0  0  0
    9.5403   25.0488    2.2493 C   0  0  0  0  0  0  0  0  0  0  0  0
    9.5386   23.7008    1.5914 C   0  0  0  0  0  0  0  0  0  0  0  0
    9.5369   22.3528    0.9336 C   0  0  0  0  0  0  0  0  0  0  0  0
    9.5353   21.0048    0.2757 C   0  0  0  0  0  0  0  0  0  0  0  0
    8.6515   21.5372   -0.8132 O   0  0  0  0  0  0  0  0  0  0  0  0
    8.1183   20.7811   -1.9939 H   0  0  0  0  0  0  0  0  0  0  0  0
    9.5336   19.6568   -0.3822 C   0  0  0  0  0  0  0  0  0  0  0  0
    9.5321   18.3086   -1.0401 F   0  0  0  0  0  0  0  0  0  0  0  0
   11.0223   19.4895   -0.4598 F   0  0  0  0  0  0  0  0  0  0  0  0
    8.0337   19.6597   -0.3847 F   0  0  0  0  0  0  0  0  0  0  0  0
   18.2691   24.5197   -1.2418 C   0  0  0  0  0  0  0  0  0  0  0  0
   17.6040   25.4881   -2.1744 O   0  0  0  0  0  0  0  0  0  0  0  0
 27 28  1  0  0  0
 28  1  1  0  0  0
  1  2  2  0  0  0
  2  3  1  0  0  0
  3  4  2  0  0  0
  4  5  1  0  0  0
  5  6  2  0  0  0
  6  7  1  0  0  0
  7  8  2  0  0  0
  7  9  1  0  0  0
  9 10  1  0  0  0
 10 15  1  0  0  0
 15 16  1  0  0  0
 16 17  1  0  0  0
 17 18  1  0  0  0
 18 19  1  0  0  0
 19 20  1  0  0  0
 20 21  1  0  0  0
 20 23  1  0  0  0
 23 24  1  0  0  0
 23 25  1  0  0  0
 23 26  1  0  0  0
  4 11  1  0  0  0
 11 12  2  0  0  0
 12 13  1  0  0  0
  6  1  1  0  0  0
 12 10  1  0  0  0
 18 15  1  0  0  0
  9 14  1  0  0  0
 21 22  1  0  0  0
M  END
> <minimizedAffinity>
-2.82161

> <CNNscore>
0.5759886503

> <CNNaffinity>
6.6530508995

> <CNN_VS>
3.8320817947

> <CNNaffinity_variance>
0.9579012990

$$$$
[H]O[C@@]([H])(C(F)(F)F)C([H])([H])[C@@]1([H])C([H])([H])O[C@]1([H])[C@@]1([H])C(F)=C([H])c2c([H])nc(OC([H])([H])[H])c(c2[H])C(=O)N1[H]


 28 30  0  0  0  0  0  0  0  0999 V2000
   15.0024   21.6126    0.8316 C   0  0  0  0  0  0  0  0  0  0  0  0
   16.2295   22.1940    1.4688 N   0  0  0  0  0  0  0  0  0  0  0  0
   16.7463   23.5291    1.0210 C   0  0  0  0  0  0  0  0  0  0  0  0
   16.0359   24.2827   -0.0640 C   0  0  0  0  0  0  0  0  0  0  0  0
   14.8087   23.7013   -0.7012 C   0  0  0  0  0  0  0  0  0  0  0  0
   14.2920   22.3663   -0.2534 C   0  0  0  0  0  0  0  0  0  0  0  0
   13.1338   22.5112   -1.3103 C   0  0  0  0  0  0  0  0  0  0  0  0
   12.1269   21.4046   -1.4196 O   0  0  0  0  0  0  0  0  0  0  0  0
   12.8628   23.6309   -2.2709 N   0  0  0  0  0  0  0  0  0  0  0  0
   13.5211   24.9416   -2.5851 C   0  0  0  0  0  0  0  0  0  0  0  0
   15.7649   25.4024   -1.0246 C   0  0  0  0  0  0  0  0  0  0  0  0
   14.7232   25.6753   -2.0689 C   0  0  0  0  0  0  0  0  0  0  0  0
   14.9874   26.3857   -2.3161 F   0  0  0  0  0  0  0  0  0  0  0  0
   11.6484   23.3814   -3.1154 H   0  0  0  0  0  0  0  0  0  0  0  0
   13.5704   26.2131   -3.3794 C   0  0  0  0  0  0  0  0  0  0  0  0
   12.0830   26.1545   -3.5651 O   0  0  0  0  0  0  0  0  0  0  0  0
   12.1323   27.4260   -4.3594 C   0  0  0  0  0  0  0  0  0  0  0  0
   13.6196   27.4845   -4.1737 C   0  0  0  0  0  0  0  0  0  0  0  0
   15.1068   27.5430   -3.9879 C   0  0  0  0  0  0  0  0  0  0  0  0
   16.5941   27.6016   -3.8021 C   0  0  0  0  0  0  0  0  0  0  0  0
   16.7741   27.7372   -5.2851 O   0  0  0  0  0  0  0  0  0  0  0  0
   18.0701   27.8656   -6.0293 H   0  0  0  0  0  0  0  0  0  0  0  0
   18.0814   27.6601   -3.6163 C   0  0  0  0  0  0  0  0  0  0  0  0
   19.5688   27.7185   -3.4303 F   0  0  0  0  0  0  0  0  0  0  0  0
   18.1763   26.5940   -2.5653 F   0  0  0  0  0  0  0  0  0  0  0  0
   18.1684   28.7413   -4.6523 F   0  0  0  0  0  0  0  0  0  0  0  0
   13.0797   20.1491    1.7862 C   0  0  0  0  0  0  0  0  0  0  0  0
   14.4856   20.2775    1.2795 O   0  0  0  0  0  0  0  0  0  0  0  0
 27 28  1  0  0  0
 28  1  1  0  0  0
  1  2  2  0  0  0
  2  3  1  0  0  0
  3  4  2  0  0  0
  4  5  1  0  0  0
  5  6  2  0  0  0
  6  7  1  0  0  0
  7  8  2  0  0  0
  7  9  1  0  0  0
  9 10  1  0  0  0
 10 15  1  0  0  0
 15 16  1  0  0  0
 16 17  1  0  0  0
 17 18  1  0  0  0
 18 19  1  0  0  0
 19 20  1  0  0  0
 20 21  1  0  0  0
 20 23  1  0  0  0
 23 24  1  0  0  0
 23 25  1  0  0  0
 23 26  1  0  0  0
  4 11  1  0  0  0
 11 12  2  0  0  0
 12 13  1  0  0  0
  6  1  1  0  0  0
 12 10  1  0  0  0
 18 15  1  0  0  0
  9 14  1  0  0  0
 21 22  1  0  0  0
M  END
> <minimizedAffinity>
-0.91763

> <CNNscore>
0.5115714669

> <CNNaffinity>
6.7415008545

> <CNN_VS>
3.4487595558

> <CNNaffinity_variance>
0.6066845655

$$$$
[H]O[C@@]([H])(C(F)(F)F)C([H])([H])[C@@]1([H])C([H])([H])O[C@]1([H])[C@@]1([H])C(F)=C([H])c2c([H])nc(OC([H])([H])[H])c(c2[H])C(=O)N1[H]


 28 30  0  0  0  0  0  0  0  0999 V2000
   14.0557   26.9400   -5.3348 C   0  0  0  0  0  0  0  0  0  0  0  0
   13.1307   27.8045   -4.5306 N   0  0  0  0  0  0  0  0  0  0  0  0
   12.6000   27.3150   -3.2158 C   0  0  0  0  0  0  0  0  0  0  0  0
   12.9945   25.9608   -2.7051 C   0  0  0  0  0  0  0  0  0  0  0  0
   13.9195   25.0963   -3.5094 C   0  0  0  0  0  0  0  0  0  0  0  0
   14.4501   25.5858   -4.8242 C   0  0  0  0  0  0  0  0  0  0  0  0
   15.2334   24.2268   -4.9622 C   0  0  0  0  0  0  0  0  0  0  0  0
   16.0738   24.0103   -6.1857 O   0  0  0  0  0  0  0  0  0  0  0  0
   15.2761   23.0586   -4.0223 N   0  0  0  0  0  0  0  0  0  0  0  0
   14.6506   22.7405   -2.6966 C   0  0  0  0  0  0  0  0  0  0  0  0
   13.0372   24.7927   -1.7652 C   0  0  0  0  0  0  0  0  0  0  0  0
   13.7232   23.4587   -1.7617 C   0  0  0  0  0  0  0  0  0  0  0  0
   13.4483   23.1867   -1.0646 F   0  0  0  0  0  0  0  0  0  0  0  0
   16.1493   21.9480   -4.5263 H   0  0  0  0  0  0  0  0  0  0  0  0
   14.4519   21.7979   -1.5467 C   0  0  0  0  0  0  0  0  0  0  0  0
   13.3933   21.0731   -2.3239 O   0  0  0  0  0  0  0  0  0  0  0  0
   13.1946   20.1305   -1.1741 C   0  0  0  0  0  0  0  0  0  0  0  0
   14.2532   20.8553   -0.3970 C   0  0  0  0  0  0  0  0  0  0  0  0
   15.3118   21.5801    0.3802 C   0  0  0  0  0  0  0  0  0  0  0  0
   16.3704   22.3049    1.1574 C   0  0  0  0  0  0  0  0  0  0  0  0
   15.7449   23.6168    0.7862 O   0  0  0  0  0  0  0  0  0  0  0  0
   16.2138   24.9851    1.1834 H   0  0  0  0  0  0  0  0  0  0  0  0
   17.4291   23.0296    1.9345 C   0  0  0  0  0  0  0  0  0  0  0  0
   18.4878   23.7545    2.7117 F   0  0  0  0  0  0  0  0  0  0  0  0
   17.6191   24.1636    0.9710 F   0  0  0  0  0  0  0  0  0  0  0  0
   17.3676   21.9763    3.0007 F   0  0  0  0  0  0  0  0  0  0  0  0
   16.0270   27.2109   -7.0053 C   0  0  0  0  0  0  0  0  0  0  0  0
   14.5863   27.4295   -6.6496 O   0  0  0  0  0  0  0  0  0  0  0  0
 27 28  1  0  0  0
 28  1  1  0  0  0
  1  2  2  0  0  0
  2  3  1  0  0  0
  3  4  2  0  0  0
  4  5  1  0  0  0
  5  6  2  0  0  0
  6  7  1  0  0  0
  7  8  2  0  0  0
  7  9  1  0  0  0
  9 10  1  0  0  0
 10 15  1  0  0  0
 15 16  1  0  0  0
 16 17  1  0  0  0
 17 18  1  0  0  0
 18 19  1  0  0  0
 19 20  1  0  0  0
 20 21  1  0  0  0
 20 23  1  0  0  0
 23 24  1  0  0  0
 23 25  1  0  0  0
 23 26  1  0  0  0
  4 11  1  0  0  0
 11 12  2  0  0  0
 12 13  1  0  0  0
  6  1  1  0  0  0
 12 10  1  0  0  0
 18 15  1  0  0  0
  9 14  1  0  0  0
 21 22  1  0  0  0
M  END
> <minimizedAffinity>
1.51455

> <CNNscore>
0.4753403068

> <CNNaffinity>
6.6483640671

> <CNN_VS>
3.1602354050

> <CNNaffinity_variance>
0.6828092337

$$$$
[H]O[C@@]([H])(C(F)(F)F)C([H])([H])[C@@]1([H])C([H])([H])O[C@]1([H])[C@@]1([H])C(F)=C([H])c2c([H])nc(OC([H])([H])[H])c(c2[H])C(=O)N1[H]


 28 30  0  0  0  0  0  0  0  0999 V2000
   14.2803   22.1531   -2.2876 C   0  0  0  0  0  0  0  0  0  0  0  0
   15.3209   21.9124   -3.3408 N   0  0  0  0  0  0  0  0  0  0  0  0
   15.6400   22.9856   -4.3390 C   0  0  0  0  0  0  0  0  0  0  0  0
   14.9184   24.2995   -4.2840 C   0  0  0  0  0  0  0  0  0  0  0  0
   13.8778   24.5402   -3.2309 C   0  0  0  0  0  0  0  0  0  0  0  0
   13.5587   23.4670   -2.2327 C   0  0  0  0  0  0  0  0  0  0  0  0
   12.5008   24.4414   -1.5917 C   0  0  0  0  0  0  0  0  0  0  0  0
   11.7158   23.9607   -0.4073 O   0  0  0  0  0  0  0  0  0  0  0  0
   12.1346   25.8392   -1.9941 N   0  0  0  0  0  0  0  0  0  0  0  0
   12.5838   26.7860   -3.0674 C   0  0  0  0  0  0  0  0  0  0  0  0
   14.5523   25.6973   -4.6865 C   0  0  0  0  0  0  0  0  0  0  0  0
   13.5852   26.7273   -4.1825 C   0  0  0  0  0  0  0  0  0  0  0  0
   13.7453   27.3059   -4.7071 F   0  0  0  0  0  0  0  0  0  0  0  0
   11.0693   26.4284   -1.1178 H   0  0  0  0  0  0  0  0  0  0  0  0
   12.4892   28.1211   -3.7447 C   0  0  0  0  0  0  0  0  0  0  0  0
   13.9469   28.3578   -3.4813 O   0  0  0  0  0  0  0  0  0  0  0  0
   13.8523   29.6929   -4.1587 C   0  0  0  0  0  0  0  0  0  0  0  0
   12.3947   29.4560   -4.4220 C   0  0  0  0  0  0  0  0  0  0  0  0
   10.9371   29.2192   -4.6854 C   0  0  0  0  0  0  0  0  0  0  0  0
    9.4796   28.9824   -4.9488 C   0  0  0  0  0  0  0  0  0  0  0  0
    9.2312   30.4610   -4.9041 O   0  0  0  0  0  0  0  0  0  0  0  0
    7.9177   31.1618   -5.0876 H   0  0  0  0  0  0  0  0  0  0  0  0
    8.0220   28.7455   -5.2122 C   0  0  0  0  0  0  0  0  0  0  0  0
    6.5643   28.5087   -5.4755 F   0  0  0  0  0  0  0  0  0  0  0  0
    7.4948   29.7962   -4.2803 F   0  0  0  0  0  0  0  0  0  0  0  0
    8.3742   27.6580   -6.1833 F   0  0  0  0  0  0  0  0  0  0  0  0
   12.5331   20.7156   -1.0106 C   0  0  0  0  0  0  0  0  0  0  0  0
   13.9612   21.0799   -1.2894 O   0  0  0  0  0  0  0  0  0  0  0  0
 27 28  1  0  0  0
 28  1  1  0  0  0
  1  2  2  0  0  0
  2  3  1  0  0  0
  3  4  2  0  0  0
  4  5  1  0  0  0
  5  6  2  0  0  0
  6  7  1  0  0  0
  7  8  2  0  0  0
  7  9  1  0  0  0
  9 10  1  0  0  0
 10 15  1  0  0  0
 15 16  1  0  0  0
 16 17  1  0  0  0
 17 18  1  0  0  0
 18 19  1  0  0  0
 19 20  1  0  0  0
 20 21  1  0  0  0
 20 23  1  0  0  0
 23 24  1  0  0  0
 23 25  1  0  0  0
 23 26  1  0  0  0
  4 11  1  0  0  0
 11 12  2  0  0  0
 12 13  1  0  0  0
  6  1  1  0  0  0
 12 10  1  0  0  0
 18 15  1  0  0  0
  9 14  1  0  0  0
 21 22  1  0  0  0
M  END
> <minimizedAffinity>
12.50649

> <CNNscore>
0.4732728004

> <CNNaffinity>
6.0454697609

> <CNN_VS>
2.8611564636

> <CNNaffinity_variance>
0.8058218956

$$$$
[H]O[C@@]([H])(C(F)(F)F)C([H])([H])[C@@]1([H])C([H])([H])O[C@]1([H])[C@@]1([H])C(F)=C([H])c2c([H])nc(OC([H])([H])[H])c(c2[H])C(=O)N1[H]


 28 30  0  0  0  0  0  0  0  0999 V2000
   15.2511   23.8971    0.8049 C   0  0  0  0  0  0  0  0  0  0  0  0
   13.8616   24.1245    1.3221 N   0  0  0  0  0  0  0  0  0  0  0  0
   12.8472   24.8223    0.4653 C   0  0  0  0  0  0  0  0  0  0  0  0
   13.2224   25.2926   -0.9088 C   0  0  0  0  0  0  0  0  0  0  0  0
   14.6119   25.0652   -1.4260 C   0  0  0  0  0  0  0  0  0  0  0  0
   15.6262   24.3674   -0.5691 C   0  0  0  0  0  0  0  0  0  0  0  0
   16.6646   24.5357   -1.7409 C   0  0  0  0  0  0  0  0  0  0  0  0
   18.0525   24.0016   -1.5447 O   0  0  0  0  0  0  0  0  0  0  0  0
   16.4801   25.1747   -3.0853 N   0  0  0  0  0  0  0  0  0  0  0  0
   15.3414   25.8482   -3.7923 C   0  0  0  0  0  0  0  0  0  0  0  0
   13.0379   25.9315   -2.2532 C   0  0  0  0  0  0  0  0  0  0  0  0
   13.9156   26.1617   -3.4477 C   0  0  0  0  0  0  0  0  0  0  0  0
   13.3860   26.5337   -3.9131 F   0  0  0  0  0  0  0  0  0  0  0  0
   17.7267   25.1295   -3.9183 H   0  0  0  0  0  0  0  0  0  0  0  0
   14.7942   26.5465   -5.0019 C   0  0  0  0  0  0  0  0  0  0  0  0
   15.3125   25.4416   -5.8741 O   0  0  0  0  0  0  0  0  0  0  0  0
   14.7653   26.1399   -7.0836 C   0  0  0  0  0  0  0  0  0  0  0  0
   14.2470   27.2447   -6.2114 C   0  0  0  0  0  0  0  0  0  0  0  0
   13.7288   28.3495   -5.3393 C   0  0  0  0  0  0  0  0  0  0  0  0
   13.2105   29.4543   -4.4671 C   0  0  0  0  0  0  0  0  0  0  0  0
   14.4925   29.4410   -3.6883 O   0  0  0  0  0  0  0  0  0  0  0  0
   14.8501   30.3153   -2.5231 H   0  0  0  0  0  0  0  0  0  0  0  0
   12.6922   30.5592   -3.5949 C   0  0  0  0  0  0  0  0  0  0  0  0
   12.1737   31.6640   -2.7226 F   0  0  0  0  0  0  0  0  0  0  0  0
   11.8177   29.7082   -2.7223 F   0  0  0  0  0  0  0  0  0  0  0  0
   13.5095   31.5521   -4.3668 F   0  0  0  0  0  0  0  0  0  0  0  0
   17.7262   23.4882    1.4807 C   0  0  0  0  0  0  0  0  0  0  0  0
   16.2655   23.1993    1.6618 O   0  0  0  0  0  0  0  0  0  0  0  0
 27 28  1  0  0  0
 28  1  1  0  0  0
  1  2  2  0  0  0
  2  3  1  0  0  0
  3  4  2  0  0  0
  4  5  1  0  0  0
  5  6  2  0  0  0
  6  7  1  0  0  0
  7  8  2  0  0  0
  7  9  1  0  0  0
  9 10  1  0  0  0
 10 15  1  0  0  0
 15 16  1  0  0  0
 16 17  1  0  0  0
 17 18  1  0  0  0
 18 19  1  0  0  0
 19 20  1  0  0  0
 20 21  1  0  0  0
 20 23  1  0  0  0
 23 24  1  0  0  0
 23 25  1  0  0  0
 23 26  1  0  0  0
  4 11  1  0  0  0
 11 12  2  0  0  0
 12 13  1  0  0  0
  6  1  1  0  0  0
 12 10  1  0  0  0
 18 15  1  0  0  0
  9 14  1  0  0  0
 21 22  1  0  0  0
M  END
> <minimizedAffinity>
14.77305

> <CNNscore>
0.4582370818

> <CNNaffinity>
6.3438463211

> <CNN_VS>
2.9069855213

> <CNNaffinity_variance>
0.8639513254

$$$$
[H]O[C@@]([H])(C(F)(F)F)C([H])([H])[C@@]1([H])C([H])([H])O[C@]1([H])[C@@]1([H])C(F)=C([H])c2c([H])nc(OC([H])([H])[H])c(c2[H])C(=O)N1[H]


 28 30  0  0  0  0  0  0  0  0999 V2000
   12.9629   23.4068   -0.6371 C   0  0  0  0  0  0  0  0  0  0  0  0
   13.9269   22.8964    0.3925 N   0  0  0  0  0  0  0  0  0  0  0  0
   15.3311   23.4224    0.4312 C   0  0  0  0  0  0  0  0  0  0  0  0
   15.7713   24.4588   -0.5597 C   0  0  0  0  0  0  0  0  0  0  0  0
   14.8073   24.9692   -1.5894 C   0  0  0  0  0  0  0  0  0  0  0  0
   13.4031   24.4432   -1.6280 C   0  0  0  0  0  0  0  0  0  0  0  0
   13.1284   25.3963   -2.8510 C   0  0  0  0  0  0  0  0  0  0  0  0
   11.7611   25.3873   -3.4679 O   0  0  0  0  0  0  0  0  0  0  0  0
   14.0584   26.3573   -3.5305 N   0  0  0  0  0  0  0  0  0  0  0  0
   15.4901   26.7622   -3.3398 C   0  0  0  0  0  0  0  0  0  0  0  0
   16.7013   25.4198   -1.2392 C   0  0  0  0  0  0  0  0  0  0  0  0
   16.5847   26.3739   -2.3908 C   0  0  0  0  0  0  0  0  0  0  0  0
   17.3281   26.6617   -2.3810 F   0  0  0  0  0  0  0  0  0  0  0  0
   13.4029   27.0838   -4.6674 H   0  0  0  0  0  0  0  0  0  0  0  0
   16.6716   27.5900   -3.7506 C   0  0  0  0  0  0  0  0  0  0  0  0
   17.5718   26.7091   -2.9358 O   0  0  0  0  0  0  0  0  0  0  0  0
   18.7534   27.5368   -3.3466 C   0  0  0  0  0  0  0  0  0  0  0  0
   17.8532   28.4177   -4.1613 C   0  0  0  0  0  0  0  0  0  0  0  0
   16.9531   29.2985   -4.9760 C   0  0  0  0  0  0  0  0  0  0  0  0
   16.0529   30.1793   -5.7908 C   0  0  0  0  0  0  0  0  0  0  0  0
   17.0925   30.2434   -6.8702 O   0  0  0  0  0  0  0  0  0  0  0  0
   16.9992   30.9854   -8.1705 H   0  0  0  0  0  0  0  0  0  0  0  0
   15.1526   31.0601   -6.6054 C   0  0  0  0  0  0  0  0  0  0  0  0
   14.2523   31.9410   -7.4200 F   0  0  0  0  0  0  0  0  0  0  0  0
   14.4616   31.7295   -5.4545 F   0  0  0  0  0  0  0  0  0  0  0  0
   15.7383   30.4939   -7.8649 F   0  0  0  0  0  0  0  0  0  0  0  0
   10.7200   22.8896    0.5677 C   0  0  0  0  0  0  0  0  0  0  0  0
   11.5587   22.8808   -0.6758 O   0  0  0  0  0  0  0  0  0  0  0  0
 27 28  1  0  0  0
 28  1  1  0  0  0
  1  2  2  0  0  0
  2  3  1  0  0  0
  3  4  2  0  0  0
  4  5  1  0  0  0
  5  6  2  0  0  0
  6  7  1  0  0  0
  7  8  2  0  0  0
  7  9  1  0  0  0
  9 10  1  0  0  0
 10 15  1  0  0  0
 15 16  1  0  0  0
 16 17  1  0  0  0
 17 18  1  0  0  0
 18 19  1  0  0  0
 19 20  1  0  0  0
 20 21  1  0  0  0
 20 23  1  0  0  0
 23 24  1  0  0  0
 23 25  1  0  0  0
 23 26  1  0  0  0
  4 11  1  0  0  0
 11 12  2  0  0  0
 12 13  1  0  0  0
  6  1  1  0  0  0
 12 10  1  0  0  0
 18 15  1  0  0  0
  9 14  1  0  0  0
 21 22  1  0  0  0
M  END
> <minimizedAffinity>
15.40689

> <CNNscore>
0.4478400350

> <CNNaffinity>
6.2235441208

> <CNN_VS>
2.7871522903

> <CNNaffinity_variance>
1.1196296215

$$$$
[H]O[C@@]([H])(C(F)(F)F)C([H])([H])[C@@]1([H])C([H])([H])O[C@]1([H])[C@@]1([H])C(F)=C([H])c2c([H])nc(OC([H])([H])[H])c(c2[H])C(=O)N1[H]


 28 30  0  0  0  0  0  0  0  0999 V2000
   15.8119   25.6850   -2.8340 C   0  0  0  0  0  0  0  0  0  0  0  0
   16.9231   25.1453   -1.9833 N   0  0  0  0  0  0  0  0  0  0  0  0
   16.6105   24.4696   -0.6811 C   0  0  0  0  0  0  0  0  0  0  0  0
   15.1865   24.3337   -0.2296 C   0  0  0  0  0  0  0  0  0  0  0  0
   14.0753   24.8734   -1.0803 C   0  0  0  0  0  0  0  0  0  0  0  0
   14.3880   25.5491   -2.3825 C   0  0  0  0  0  0  0  0  0  0  0  0
   12.8425   25.7733   -2.5849 C   0  0  0  0  0  0  0  0  0  0  0  0
   12.3815   26.4750   -3.8279 O   0  0  0  0  0  0  0  0  0  0  0  0
   11.7034   25.3792   -1.6921 N   0  0  0  0  0  0  0  0  0  0  0  0
   11.5845   24.6789   -0.3709 C   0  0  0  0  0  0  0  0  0  0  0  0
   14.0474   23.9396    0.6631 C   0  0  0  0  0  0  0  0  0  0  0  0
   12.5554   24.0826    0.6046 C   0  0  0  0  0  0  0  0  0  0  0  0
   12.3756   23.7257    1.2944 F   0  0  0  0  0  0  0  0  0  0  0  0
   10.3705   25.7793   -2.2518 H   0  0  0  0  0  0  0  0  0  0  0  0
   10.7354   24.1439    0.7439 C   0  0  0  0  0  0  0  0  0  0  0  0
   10.8570   25.4537    1.4649 O   0  0  0  0  0  0  0  0  0  0  0  0
   10.0079   24.9187    2.5797 C   0  0  0  0  0  0  0  0  0  0  0  0
    9.8863   23.6090    1.8587 C   0  0  0  0  0  0  0  0  0  0  0  0
    9.7648   22.2993    1.1378 C   0  0  0  0  0  0  0  0  0  0  0  0
    9.6433   20.9895    0.4168 C   0  0  0  0  0  0  0  0  0  0  0  0
    8.4086   21.4853   -0.2759 O   0  0  0  0  0  0  0  0  0  0  0  0
    7.5686   20.7378   -1.2686 H   0  0  0  0  0  0  0  0  0  0  0  0
    9.5218   19.6797   -0.3041 C   0  0  0  0  0  0  0  0  0  0  0  0
    9.4005   18.3699   -1.0250 F   0  0  0  0  0  0  0  0  0  0  0  0
   10.9894   19.3809   -0.3886 F   0  0  0  0  0  0  0  0  0  0  0  0
    8.0284   19.8200   -0.3075 F   0  0  0  0  0  0  0  0  0  0  0  0
   15.3468   26.0087   -5.3695 C   0  0  0  0  0  0  0  0  0  0  0  0
   16.1246   26.3607   -4.1362 O   0  0  0  0  0  0  0  0  0  0  0  0
 27 28  1  0  0  0
 28  1  1  0  0  0
  1  2  2  0  0  0
  2  3  1  0  0  0
  3  4  2  0  0  0
  4  5  1  0  0  0
  5  6  2  0  0  0
  6  7  1  0  0  0
  7  8  2  0  0  0
  7  9  1  0  0  0
  9 10  1  0  0  0
 10 15  1  0  0  0
 15 16  1  0  0  0
 16 17  1  0  0  0
 17 18  1  0  0  0
 18 19  1  0  0  0
 19 20  1  0  0  0
 20 21  1  0  0  0
 20 23  1  0  0  0
 23 24  1  0  0  0
 23 25  1  0  0  0
 23 26  1  0  0  0
  4 11  1  0  0  0
 11 12  2  0  0  0
 12 13  1  0  0  0
  6  1  1  0  0  0
 12 10  1  0  0  0
 18 15  1  0  0  0
  9 14  1  0  0  0
 21 22  1  0  0  0
M  END
> <minimizedAffinity>
-4.72899

> <CNNscore>
0.4444327056

> <CNNaffinity>
6.4907903671

> <CNN_VS>
2.8847196102

> <CNNaffinity_variance>
0.8567665219

$$$$
[H]O[C@@]([H])(C(F)(F)F)C([H])([H])[C@@]1([H])C([H])([H])O[C@]1([H])[C@@]1([H])C(F)=C([H])c2c([H])nc(OC([H])([H])[H])c(c2[H])C(=O)N1[H]


 28 30  0  0  0  0  0  0  0  0999 V2000
   15.4154   26.0322   -2.4707 C   0  0  0  0  0  0  0  0  0  0  0  0
   14.5167   26.5546   -3.5521 N   0  0  0  0  0  0  0  0  0  0  0  0
   13.0490   26.2464   -3.5215 C   0  0  0  0  0  0  0  0  0  0  0  0
   12.4801   25.4157   -2.4097 C   0  0  0  0  0  0  0  0  0  0  0  0
   13.3788   24.8933   -1.3284 C   0  0  0  0  0  0  0  0  0  0  0  0
   14.8465   25.2016   -1.3589 C   0  0  0  0  0  0  0  0  0  0  0  0
   15.0018   24.3725   -0.0292 C   0  0  0  0  0  0  0  0  0  0  0  0
   16.3681   24.2488    0.5775 O   0  0  0  0  0  0  0  0  0  0  0  0
   13.9533   23.6524    0.7658 N   0  0  0  0  0  0  0  0  0  0  0  0
   12.4733   23.4487    0.6308 C   0  0  0  0  0  0  0  0  0  0  0  0
   11.4316   24.6957   -1.6147 C   0  0  0  0  0  0  0  0  0  0  0  0
   11.4288   23.8809   -0.3552 C   0  0  0  0  0  0  0  0  0  0  0  0
   10.6507   23.7098   -0.3272 F   0  0  0  0  0  0  0  0  0  0  0  0
   14.5171   22.9776    1.9811 H   0  0  0  0  0  0  0  0  0  0  0  0
   11.1902   22.8650    1.1436 C   0  0  0  0  0  0  0  0  0  0  0  0
   11.6022   21.5146    0.6367 O   0  0  0  0  0  0  0  0  0  0  0  0
   10.3191   20.9308    1.1496 C   0  0  0  0  0  0  0  0  0  0  0  0
    9.9072   22.2811    1.6564 C   0  0  0  0  0  0  0  0  0  0  0  0
    9.4954   23.6315    2.1633 C   0  0  0  0  0  0  0  0  0  0  0  0
    9.0835   24.9818    2.6702 C   0  0  0  0  0  0  0  0  0  0  0  0
    7.6412   24.6012    2.5124 O   0  0  0  0  0  0  0  0  0  0  0  0
    6.4443   25.4505    2.8223 H   0  0  0  0  0  0  0  0  0  0  0  0
    8.6717   26.3321    3.1771 C   0  0  0  0  0  0  0  0  0  0  0  0
    8.2600   27.6826    3.6841 F   0  0  0  0  0  0  0  0  0  0  0  0
    9.9430   26.6485    3.9079 F   0  0  0  0  0  0  0  0  0  0  0  0
    7.3404   26.1792    2.5032 F   0  0  0  0  0  0  0  0  0  0  0  0
   17.3778   27.5640   -3.2140 C   0  0  0  0  0  0  0  0  0  0  0  0
   16.8831   26.3405   -2.5012 O   0  0  0  0  0  0  0  0  0  0  0  0
 27 28  1  0  0  0
 28  1  1  0  0  0
  1  2  2  0  0  0
  2  3  1  0  0  0
  3  4  2  0  0  0
  4  5  1  0  0  0
  5  6  2  0  0  0
  6  7  1  0  0  0
  7  8  2  0  0  0
  7  9  1  0  0  0
  9 10  1  0  0  0
 10 15  1  0  0  0
 15 16  1  0  0  0
 16 17  1  0  0  0
 17 18  1  0  0  0
 18 19  1  0  0  0
 19 20  1  0  0  0
 20 21  1  0  0  0
 20 23  1  0  0  0
 23 24  1  0  0  0
 23 25  1  0  0  0
 23 26  1  0  0  0
  4 11  1  0  0  0
 11 12  2  0  0  0
 12 13  1  0  0  0
  6  1  1  0  0  0
 12 10  1  0  0  0
 18 15  1  0  0  0
  9 14  1  0  0  0
 21 22  1  0  0  0
M  END
> <minimizedAffinity>
-7.13029

> <CNNscore>
0.4418963194

> <CNNaffinity>
6.6096472740

> <CNN_VS>
2.9207787514

> <CNNaffinity_variance>
0.5919947624

$$$$
[H]O[C@@]([H])(C(F)(F)F)C([H])([H])[C@@]1([H])C([H])([H])O[C@]1([H])[C@@]1([H])C(F)=C([H])c2c([H])nc(OC([H])([H])[H])c(c2[H])C(=O)N1[H]


 28 30  0  0  0  0  0  0  0  0999 V2000
   15.2296   24.9110   -4.4210 C   0  0  0  0  0  0  0  0  0  0  0  0
   16.0068   23.6316   -4.3262 N   0  0  0  0  0  0  0  0  0  0  0  0
   15.6094   22.5848   -3.3281 C   0  0  0  0  0  0  0  0  0  0  0  0
   14.4347   22.8174   -2.4247 C   0  0  0  0  0  0  0  0  0  0  0  0
   13.6575   24.0968   -2.5196 C   0  0  0  0  0  0  0  0  0  0  0  0
   14.0550   25.1436   -3.5177 C   0  0  0  0  0  0  0  0  0  0  0  0
   12.8604   26.0279   -2.9976 C   0  0  0  0  0  0  0  0  0  0  0  0
   12.6411   27.3710   -3.6286 O   0  0  0  0  0  0  0  0  0  0  0  0
   11.8591   25.7289   -1.9216 N   0  0  0  0  0  0  0  0  0  0  0  0
   11.6121   24.5771   -0.9929 C   0  0  0  0  0  0  0  0  0  0  0  0
   13.4334   22.5184   -1.3487 C   0  0  0  0  0  0  0  0  0  0  0  0
   12.2642   23.2473   -0.7556 C   0  0  0  0  0  0  0  0  0  0  0  0
   12.0426   22.6991   -0.2209 F   0  0  0  0  0  0  0  0  0  0  0  0
   10.8734   26.8430   -1.7290 H   0  0  0  0  0  0  0  0  0  0  0  0
   10.8136   23.9441    0.1079 C   0  0  0  0  0  0  0  0  0  0  0  0
   11.3325   24.9684    1.0731 O   0  0  0  0  0  0  0  0  0  0  0  0
   10.5339   24.3355    2.1739 C   0  0  0  0  0  0  0  0  0  0  0  0
   10.0151   23.3112    1.2087 C   0  0  0  0  0  0  0  0  0  0  0  0
    9.4963   22.2869    0.2435 C   0  0  0  0  0  0  0  0  0  0  0  0
    8.9775   21.2626   -0.7217 C   0  0  0  0  0  0  0  0  0  0  0  0
    9.6015   20.1731    0.0990 O   0  0  0  0  0  0  0  0  0  0  0  0
    9.5628   18.6994   -0.1779 H   0  0  0  0  0  0  0  0  0  0  0  0
    8.4587   20.2384   -1.6869 C   0  0  0  0  0  0  0  0  0  0  0  0
    7.9397   19.2140   -2.6521 F   0  0  0  0  0  0  0  0  0  0  0  0
    7.5947   19.4916   -0.7142 F   0  0  0  0  0  0  0  0  0  0  0  0
    9.2653   20.8649   -2.7854 F   0  0  0  0  0  0  0  0  0  0  0  0
   15.9533   27.3476   -4.9588 C   0  0  0  0  0  0  0  0  0  0  0  0
   15.6271   25.9578   -5.4191 O   0  0  0  0  0  0  0  0  0  0  0  0
 27 28  1  0  0  0
 28  1  1  0  0  0
  1  2  2  0  0  0
  2  3  1  0  0  0
  3  4  2  0  0  0
  4  5  1  0  0  0
  5  6  2  0  0  0
  6  7  1  0  0  0
  7  8  2  0  0  0
  7  9  1  0  0  0
  9 10  1  0  0  0
 10 15  1  0  0  0
 15 16  1  0  0  0
 16 17  1  0  0  0
 17 18  1  0  0  0
 18 19  1  0  0  0
 19 20  1  0  0  0
 20 21  1  0  0  0
 20 23  1  0  0  0
 23 24  1  0  0  0
 23 25  1  0  0  0
 23 26  1  0  0  0
  4 11  1  0  0  0
 11 12  2  0  0  0
 12 13  1  0  0  0
  6  1  1  0  0  0
 12 10  1  0  0  0
 18 15  1  0  0  0
  9 14  1  0  0  0
 21 22  1  0  0  0
M  END
> <minimizedAffinity>
-5.70200

> <CNNscore>
0.4400468767

> <CNNaffinity>
6.6976442337

> <CNN_VS>
2.9472773075

> <CNNaffinity_variance>
0.7592852712

$$$$
[H]OC(=O)C([H])([H])N([H])C(=O)[C@]1([H])c2c([H])c([H])c(Cl)c([H])c2N(c2c([H])c([H])c(S(=O)(=O)C([H])([H])[H])c([H])c2Cl)C([H])([H])C([H])([H])N1c1nc([H])n([H])c(=O)n1


 40 43  0  0  0  0  0  0  0  0999 V2000
   12.9194   23.6651    1.2300 N   0  0  0  0  0  0  0  0  0  0  0  0
   13.9604   24.4618    1.8279 C   0  0  0  0  0  0  0  0  0  0  0  0
   14.5524   25.4449    0.8445 C   0  0  0  0  0  0  0  0  0  0  0  0
   15.2279   24.7058   -0.1979 N   0  0  0  0  0  0  0  0  0  0  0  0
   14.6699   24.1278   -1.4195 C   0  0  0  0  0  0  0  0  0  0  0  0
   13.7584   23.0088   -1.0888 C   0  0  0  0  0  0  0  0  0  0  0  0
   13.7005   22.0679   -2.0766 C   0  0  0  0  0  0  0  0  0  0  0  0
   12.8816   20.9387   -1.9599 C   0  0  0  0  0  0  0  0  0  0  0  0
   12.1236   20.7826   -0.8219 C   0  0  0  0  0  0  0  0  0  0  0  0
   11.0682   19.4062   -0.5827 Cl  0  0  0  0  0  0  0  0  0  0  0  0
   12.1952   21.7272    0.1499 C   0  0  0  0  0  0  0  0  0  0  0  0
   13.0015   22.8623    0.0642 C   0  0  0  0  0  0  0  0  0  0  0  0
   16.6155   24.5023   -0.0342 C   0  0  0  0  0  0  0  0  0  0  0  0
   17.1424   24.2836    1.1748 N   0  0  0  0  0  0  0  0  0  0  0  0
   18.4605   24.0863    1.3625 C   0  0  0  0  0  0  0  0  0  0  0  0
   18.9502   23.8790    2.5175 O   0  0  0  0  0  0  0  0  0  0  0  0
   19.2966   24.1055    0.3111 N   0  0  0  0  0  0  0  0  0  0  0  0
   18.7627   24.3250   -0.8965 C   0  0  0  0  0  0  0  0  0  0  0  0
   17.4407   24.5233   -1.0879 N   0  0  0  0  0  0  0  0  0  0  0  0
   20.3209   23.9551    0.4334 H   0  0  0  0  0  0  0  0  0  0  0  0
    9.1337   23.6758    3.1375 C   0  0  0  0  0  0  0  0  0  0  0  0
    9.8827   22.5196    3.0742 C   0  0  0  0  0  0  0  0  0  0  0  0
   11.1135   22.5283    2.4507 C   0  0  0  0  0  0  0  0  0  0  0  0
   11.6641   23.6531    1.8667 C   0  0  0  0  0  0  0  0  0  0  0  0
   10.8953   24.8107    1.9396 C   0  0  0  0  0  0  0  0  0  0  0  0
   11.5251   26.2910    1.2189 Cl  0  0  0  0  0  0  0  0  0  0  0  0
    9.6660   24.8040    2.5618 C   0  0  0  0  0  0  0  0  0  0  0  0
    6.9970   22.1444    4.4074 C   0  0  0  0  0  0  0  0  0  0  0  0
    7.5615   23.7315    3.9160 S   0  0  0  0  0  0  0  0  0  0  0  0
    6.5834   24.4088    3.0007 O   0  0  0  0  0  0  0  0  0  0  0  0
    7.7223   24.5800    5.1569 O   0  0  0  0  0  0  0  0  0  0  0  0
   14.0233   25.1619   -2.2416 C   0  0  0  0  0  0  0  0  0  0  0  0
   14.6253   26.2827   -2.3682 O   0  0  0  0  0  0  0  0  0  0  0  0
   12.8010   25.0376   -2.9054 N   0  0  0  0  0  0  0  0  0  0  0  0
   12.2389   24.1625   -2.8529 H   0  0  0  0  0  0  0  0  0  0  0  0
   12.2108   26.0910   -3.7123 C   0  0  0  0  0  0  0  0  0  0  0  0
   13.2861   26.7736   -4.4520 C   0  0  0  0  0  0  0  0  0  0  0  0
   14.0422   25.9675   -5.3205 O   0  0  0  0  0  0  0  0  0  0  0  0
   13.6047   27.9665   -4.4025 O   0  0  0  0  0  0  0  0  0  0  0  0
   14.9291   25.5784   -5.0751 H   0  0  0  0  0  0  0  0  0  0  0  0
 28 29  1  0  0  0
 29 30  2  0  0  0
 29 31  2  0  0  0
 29 21  1  0  0  0
 21 22  2  0  0  0
 22 23  1  0  0  0
 23 24  2  0  0  0
 24  1  1  0  0  0
  1  2  1  0  0  0
  2  3  1  0  0  0
  3  4  1  0  0  0
  4  5  1  0  0  0
  5 32  1  0  0  0
 32 33  2  0  0  0
 32 34  1  0  0  0
 34 36  1  0  0  0
 36 37  1  0  0  0
 37 38  1  0  0  0
 37 39  2  0  0  0
  5  6  1  0  0  0
  6  7  2  0  0  0
  7  8  1  0  0  0
  8  9  2  0  0  0
  9 10  1  0  0  0
  9 11  1  0  0  0
 11 12  2  0  0  0
  4 13  1  0  0  0
 13 14  2  0  0  0
 14 15  1  0  0  0
 15 16  2  0  0  0
 15 17  1  0  0  0
 17 18  1  0  0  0
 18 19  2  0  0  0
 24 25  1  0  0  0
 25 26  1  0  0  0
 25 27  2  0  0  0
 27 21  1  0  0  0
 12  1  1  0  0  0
 19 13  1  0  0  0
 12  6  1  0  0  0
 34 35  1  0  0  0
 38 40  1  0  0  0
 17 20  1  0  0  0
M  END
> <minimizedAffinity>
11.14017

> <CNNscore>
0.5520837307

> <CNNaffinity>
7.7237768173

> <CNN_VS>
4.2641716003

> <CNNaffinity_variance>
1.1397720575

$$$$
[H]OC(=O)C([H])([H])N([H])C(=O)[C@]1([H])c2c([H])c([H])c(Cl)c([H])c2N(c2c([H])c([H])c(S(=O)(=O)C([H])([H])[H])c([H])c2Cl)C([H])([H])C([H])([H])N1c1nc([H])n([H])c(=O)n1


 40 43  0  0  0  0  0  0  0  0999 V2000
   14.1492   23.2297   -2.6194 N   0  0  0  0  0  0  0  0  0  0  0  0
   14.7099   21.9541   -2.2527 C   0  0  0  0  0  0  0  0  0  0  0  0
   13.6398   20.9081   -2.0417 C   0  0  0  0  0  0  0  0  0  0  0  0
   12.8435   21.2862   -0.8962 N   0  0  0  0  0  0  0  0  0  0  0  0
   11.6925   22.1861   -0.8378 C   0  0  0  0  0  0  0  0  0  0  0  0
   12.1129   23.5772   -1.1213 C   0  0  0  0  0  0  0  0  0  0  0  0
   11.3184   24.5024   -0.5072 C   0  0  0  0  0  0  0  0  0  0  0  0
   11.5433   25.8750   -0.6645 C   0  0  0  0  0  0  0  0  0  0  0  0
   12.5897   26.2903   -1.4560 C   0  0  0  0  0  0  0  0  0  0  0  0
   12.9514   27.9835   -1.7156 Cl  0  0  0  0  0  0  0  0  0  0  0  0
   13.3696   25.3563   -2.0571 C   0  0  0  0  0  0  0  0  0  0  0  0
   13.1723   23.9823   -1.9196 C   0  0  0  0  0  0  0  0  0  0  0  0
   13.2097   20.7221    0.3453 C   0  0  0  0  0  0  0  0  0  0  0  0
   12.2924   20.4647    1.2830 N   0  0  0  0  0  0  0  0  0  0  0  0
   12.6106   19.9275    2.4754 C   0  0  0  0  0  0  0  0  0  0  0  0
   11.7292   19.6869    3.3597 O   0  0  0  0  0  0  0  0  0  0  0  0
   13.8906   19.6310    2.7559 N   0  0  0  0  0  0  0  0  0  0  0  0
   14.8040   19.8912    1.8127 C   0  0  0  0  0  0  0  0  0  0  0  0
   14.4878   20.4301    0.6155 N   0  0  0  0  0  0  0  0  0  0  0  0
   14.1596   19.2145    3.6729 H   0  0  0  0  0  0  0  0  0  0  0  0
   15.5897   25.0701   -6.1560 C   0  0  0  0  0  0  0  0  0  0  0  0
   14.7598   23.9709   -6.2266 C   0  0  0  0  0  0  0  0  0  0  0  0
   14.2972   23.3804   -5.0687 C   0  0  0  0  0  0  0  0  0  0  0  0
   14.6196   23.8299   -3.8024 C   0  0  0  0  0  0  0  0  0  0  0  0
   15.4576   24.9395   -3.7495 C   0  0  0  0  0  0  0  0  0  0  0  0
   15.9178   25.5772   -2.1718 Cl  0  0  0  0  0  0  0  0  0  0  0  0
   15.9207   25.5307   -4.9047 C   0  0  0  0  0  0  0  0  0  0  0  0
   17.5533   24.9983   -8.3154 C   0  0  0  0  0  0  0  0  0  0  0  0
   16.2120   25.8672   -7.5907 S   0  0  0  0  0  0  0  0  0  0  0  0
   16.5882   27.2786   -7.2449 O   0  0  0  0  0  0  0  0  0  0  0  0
   15.0791   25.9053   -8.5910 O   0  0  0  0  0  0  0  0  0  0  0  0
   10.6196   21.7246   -1.7317 C   0  0  0  0  0  0  0  0  0  0  0  0
   10.2715   22.4964   -2.6898 O   0  0  0  0  0  0  0  0  0  0  0  0
    9.9354   20.5111   -1.6348 N   0  0  0  0  0  0  0  0  0  0  0  0
   10.1486   19.8240   -0.8819 H   0  0  0  0  0  0  0  0  0  0  0  0
    8.8865   20.1014   -2.5518 C   0  0  0  0  0  0  0  0  0  0  0  0
    7.6332   19.9492   -1.7933 C   0  0  0  0  0  0  0  0  0  0  0  0
    6.5799   19.3089   -2.4688 O   0  0  0  0  0  0  0  0  0  0  0  0
    7.3946   20.3150   -0.6373 O   0  0  0  0  0  0  0  0  0  0  0  0
    5.8401   19.8023   -2.9243 H   0  0  0  0  0  0  0  0  0  0  0  0
 28 29  1  0  0  0
 29 30  2  0  0  0
 29 31  2  0  0  0
 29 21  1  0  0  0
 21 22  2  0  0  0
 22 23  1  0  0  0
 23 24  2  0  0  0
 24  1  1  0  0  0
  1  2  1  0  0  0
  2  3  1  0  0  0
  3  4  1  0  0  0
  4  5  1  0  0  0
  5 32  1  0  0  0
 32 33  2  0  0  0
 32 34  1  0  0  0
 34 36  1  0  0  0
 36 37  1  0  0  0
 37 38  1  0  0  0
 37 39  2  0  0  0
  5  6  1  0  0  0
  6  7  2  0  0  0
  7  8  1  0  0  0
  8  9  2  0  0  0
  9 10  1  0  0  0
  9 11  1  0  0  0
 11 12  2  0  0  0
  4 13  1  0  0  0
 13 14  2  0  0  0
 14 15  1  0  0  0
 15 16  2  0  0  0
 15 17  1  0  0  0
 17 18  1  0  0  0
 18 19  2  0  0  0
 24 25  1  0  0  0
 25 26  1  0  0  0
 25 27  2  0  0  0
 27 21  1  0  0  0
 12  1  1  0  0  0
 19 13  1  0  0  0
 12  6  1  0  0  0
 34 35  1  0  0  0
 38 40  1  0  0  0
 17 20  1  0  0  0
M  END
> <minimizedAffinity>
17.01108

> <CNNscore>
0.5463909507

> <CNNaffinity>
7.6004829407

> <CNN_VS>
4.1528348923

> <CNNaffinity_variance>
1.0566740036

$$$$
[H]OC(=O)C([H])([H])N([H])C(=O)[C@]1([H])c2c([H])c([H])c(Cl)c([H])c2N(c2c([H])c([H])c(S(=O)(=O)C([H])([H])[H])c([H])c2Cl)C([H])([H])C([H])([H])N1c1nc([H])n([H])c(=O)n1


 40 43  0  0  0  0  0  0  0  0999 V2000
   13.2629   23.6934   -1.8956 N   0  0  0  0  0  0  0  0  0  0  0  0
   12.2007   22.7617   -2.1773 C   0  0  0  0  0  0  0  0  0  0  0  0
   11.0305   22.9407   -1.2379 C   0  0  0  0  0  0  0  0  0  0  0  0
   11.4555   22.5974    0.1003 N   0  0  0  0  0  0  0  0  0  0  0  0
   12.1226   23.4381    1.0932 C   0  0  0  0  0  0  0  0  0  0  0  0
   13.4930   23.7745    0.6446 C   0  0  0  0  0  0  0  0  0  0  0  0
   14.3508   23.9846    1.6859 C   0  0  0  0  0  0  0  0  0  0  0  0
   15.6898   24.3293    1.4683 C   0  0  0  0  0  0  0  0  0  0  0  0
   16.1414   24.4561    0.1746 C   0  0  0  0  0  0  0  0  0  0  0  0
   17.7972   24.8843   -0.2004 Cl  0  0  0  0  0  0  0  0  0  0  0  0
   15.2748   24.2419   -0.8477 C   0  0  0  0  0  0  0  0  0  0  0  0
   13.9358   23.8966   -0.6641 C   0  0  0  0  0  0  0  0  0  0  0  0
   11.2025   21.2754    0.5269 C   0  0  0  0  0  0  0  0  0  0  0  0
   11.5813   20.8576    1.7389 N   0  0  0  0  0  0  0  0  0  0  0  0
   11.3542   19.6042    2.1736 C   0  0  0  0  0  0  0  0  0  0  0  0
   11.7192   19.2182    3.3288 O   0  0  0  0  0  0  0  0  0  0  0  0
   10.7256   18.7232    1.3776 N   0  0  0  0  0  0  0  0  0  0  0  0
   10.3491   19.1478    0.1654 C   0  0  0  0  0  0  0  0  0  0  0  0
   10.5755   20.4048   -0.2735 N   0  0  0  0  0  0  0  0  0  0  0  0
   10.5395   17.7474    1.6938 H   0  0  0  0  0  0  0  0  0  0  0  0
   14.6577   26.0925   -5.1001 C   0  0  0  0  0  0  0  0  0  0  0  0
   13.6905   26.5672   -4.2392 C   0  0  0  0  0  0  0  0  0  0  0  0
   13.2443   25.7772   -3.1998 C   0  0  0  0  0  0  0  0  0  0  0  0
   13.7160   24.5016   -2.9551 C   0  0  0  0  0  0  0  0  0  0  0  0
   14.6913   24.0384   -3.8329 C   0  0  0  0  0  0  0  0  0  0  0  0
   15.3470   22.4201   -3.5911 Cl  0  0  0  0  0  0  0  0  0  0  0  0
   15.1382   24.8258   -4.8716 C   0  0  0  0  0  0  0  0  0  0  0  0
   16.1046   28.4952   -5.9106 C   0  0  0  0  0  0  0  0  0  0  0  0
   15.2678   27.0469   -6.4409 S   0  0  0  0  0  0  0  0  0  0  0  0
   14.1341   27.3707   -7.3699 O   0  0  0  0  0  0  0  0  0  0  0  0
   16.2571   26.1741   -7.1792 O   0  0  0  0  0  0  0  0  0  0  0  0
   11.3170   24.6304    1.3979 C   0  0  0  0  0  0  0  0  0  0  0  0
   11.6888   25.7439    0.8914 O   0  0  0  0  0  0  0  0  0  0  0  0
   10.1717   24.6653    2.1962 N   0  0  0  0  0  0  0  0  0  0  0  0
    9.8003   23.8069    2.6541 H   0  0  0  0  0  0  0  0  0  0  0  0
    9.4081   25.8724    2.4583 C   0  0  0  0  0  0  0  0  0  0  0  0
    9.2248   26.0049    3.9138 C   0  0  0  0  0  0  0  0  0  0  0  0
    9.5264   27.2648    4.4590 O   0  0  0  0  0  0  0  0  0  0  0  0
    8.8390   25.1451    4.7131 O   0  0  0  0  0  0  0  0  0  0  0  0
   10.3985   27.4783    4.8975 H   0  0  0  0  0  0  0  0  0  0  0  0
 28 29  1  0  0  0
 29 30  2  0  0  0
 29 31  2  0  0  0
 29 21  1  0  0  0
 21 22  2  0  0  0
 22 23  1  0  0  0
 23 24  2  0  0  0
 24  1  1  0  0  0
  1  2  1  0  0  0
  2  3  1  0  0  0
  3  4  1  0  0  0
  4  5  1  0  0  0
  5 32  1  0  0  0
 32 33  2  0  0  0
 32 34  1  0  0  0
 34 36  1  0  0  0
 36 37  1  0  0  0
 37 38  1  0  0  0
 37 39  2  0  0  0
  5  6  1  0  0  0
  6  7  2  0  0  0
  7  8  1  0  0  0
  8  9  2  0  0  0
  9 10  1  0  0  0
  9 11  1  0  0  0
 11 12  2  0  0  0
  4 13  1  0  0  0
 13 14  2  0  0  0
 14 15  1  0  0  0
 15 16  2  0  0  0
 15 17  1  0  0  0
 17 18  1  0  0  0
 18 19  2  0  0  0
 24 25  1  0  0  0
 25 26  1  0  0  0
 25 27  2  0  0  0
 27 21  1  0  0  0
 12  1  1  0  0  0
 19 13  1  0  0  0
 12  6  1  0  0  0
 34 35  1  0  0  0
 38 40  1  0  0  0
 17 20  1  0  0  0
M  END
> <minimizedAffinity>
2.28465

> <CNNscore>
0.5322205424

> <CNNaffinity>
7.4181671143

> <CNN_VS>
3.9481010437

> <CNNaffinity_variance>
0.3420803249

$$$$
[H]OC(=O)C([H])([H])N([H])C(=O)[C@]1([H])c2c([H])c([H])c(Cl)c([H])c2N(c2c([H])c([H])c(S(=O)(=O)C([H])([H])[H])c([H])c2Cl)C([H])([H])C([H])([H])N1c1nc([H])n([H])c(=O)n1


 40 43  0  0  0  0  0  0  0  0999 V2000
   13.8866   23.6467   -1.5951 N   0  0  0  0  0  0  0  0  0  0  0  0
   13.4919   22.2626   -1.6616 C   0  0  0  0  0  0  0  0  0  0  0  0
   12.1799   22.0163   -0.9530 C   0  0  0  0  0  0  0  0  0  0  0  0
   12.3639   22.2636    0.4591 N   0  0  0  0  0  0  0  0  0  0  0  0
   12.2871   23.5308    1.1846 C   0  0  0  0  0  0  0  0  0  0  0  0
   13.4046   24.4179    0.7891 C   0  0  0  0  0  0  0  0  0  0  0  0
   13.7718   25.2772    1.7847 C   0  0  0  0  0  0  0  0  0  0  0  0
   14.8008   26.2081    1.6006 C   0  0  0  0  0  0  0  0  0  0  0  0
   15.4500   26.2497    0.3879 C   0  0  0  0  0  0  0  0  0  0  0  0
   16.7481   27.3780    0.0601 Cl  0  0  0  0  0  0  0  0  0  0  0  0
   15.0724   25.3869   -0.5893 C   0  0  0  0  0  0  0  0  0  0  0  0
   14.0523   24.4477   -0.4370 C   0  0  0  0  0  0  0  0  0  0  0  0
   12.6593   21.1435    1.2663 C   0  0  0  0  0  0  0  0  0  0  0  0
   11.7690   20.6734    2.1459 N   0  0  0  0  0  0  0  0  0  0  0  0
   12.0215   19.6080    2.9287 C   0  0  0  0  0  0  0  0  0  0  0  0
   11.1667   19.1699    3.7618 O   0  0  0  0  0  0  0  0  0  0  0  0
   13.2047   18.9779    2.8405 N   0  0  0  0  0  0  0  0  0  0  0  0
   14.0915   19.4536    1.9580 C   0  0  0  0  0  0  0  0  0  0  0  0
   13.8411   20.5222    1.1712 N   0  0  0  0  0  0  0  0  0  0  0  0
   13.4216   18.1510    3.4370 H   0  0  0  0  0  0  0  0  0  0  0  0
   14.7364   25.5861   -5.2675 C   0  0  0  0  0  0  0  0  0  0  0  0
   13.9455   26.1990   -4.3184 C   0  0  0  0  0  0  0  0  0  0  0  0
   13.6758   25.5579   -3.1268 C   0  0  0  0  0  0  0  0  0  0  0  0
   14.1599   24.3031   -2.8098 C   0  0  0  0  0  0  0  0  0  0  0  0
   14.9559   23.6992   -3.7784 C   0  0  0  0  0  0  0  0  0  0  0  0
   15.6141   22.0966   -3.4531 Cl  0  0  0  0  0  0  0  0  0  0  0  0
   15.2264   24.3378   -4.9690 C   0  0  0  0  0  0  0  0  0  0  0  0
   16.4977   27.4254   -6.6953 C   0  0  0  0  0  0  0  0  0  0  0  0
   15.1171   26.3475   -6.8025 S   0  0  0  0  0  0  0  0  0  0  0  0
   13.8980   27.0577   -7.3148 O   0  0  0  0  0  0  0  0  0  0  0  0
   15.4619   25.2337   -7.7649 O   0  0  0  0  0  0  0  0  0  0  0  0
   10.9708   24.1612    1.0020 C   0  0  0  0  0  0  0  0  0  0  0  0
   10.7965   24.8816   -0.0398 O   0  0  0  0  0  0  0  0  0  0  0  0
    9.8795   24.0484    1.8660 N   0  0  0  0  0  0  0  0  0  0  0  0
    9.9335   23.4871    2.7415 H   0  0  0  0  0  0  0  0  0  0  0  0
    8.5967   24.6878    1.6325 C   0  0  0  0  0  0  0  0  0  0  0  0
    7.5328   23.8034    2.1379 C   0  0  0  0  0  0  0  0  0  0  0  0
    6.7978   24.2898    3.2328 O   0  0  0  0  0  0  0  0  0  0  0  0
    7.2078   22.6876    1.7178 O   0  0  0  0  0  0  0  0  0  0  0  0
    6.9866   24.0305    4.1790 H   0  0  0  0  0  0  0  0  0  0  0  0
 28 29  1  0  0  0
 29 30  2  0  0  0
 29 31  2  0  0  0
 29 21  1  0  0  0
 21 22  2  0  0  0
 22 23  1  0  0  0
 23 24  2  0  0  0
 24  1  1  0  0  0
  1  2  1  0  0  0
  2  3  1  0  0  0
  3  4  1  0  0  0
  4  5  1  0  0  0
  5 32  1  0  0  0
 32 33  2  0  0  0
 32 34  1  0  0  0
 34 36  1  0  0  0
 36 37  1  0  0  0
 37 38  1  0  0  0
 37 39  2  0  0  0
  5  6  1  0  0  0
  6  7  2  0  0  0
  7  8  1  0  0  0
  8  9  2  0  0  0
  9 10  1  0  0  0
  9 11  1  0  0  0
 11 12  2  0  0  0
  4 13  1  0  0  0
 13 14  2  0  0  0
 14 15  1  0  0  0
 15 16  2  0  0  0
 15 17  1  0  0  0
 17 18  1  0  0  0
 18 19  2  0  0  0
 24 25  1  0  0  0
 25 26  1  0  0  0
 25 27  2  0  0  0
 27 21  1  0  0  0
 12  1  1  0  0  0
 19 13  1  0  0  0
 12  6  1  0  0  0
 34 35  1  0  0  0
 38 40  1  0  0  0
 17 20  1  0  0  0
M  END
> <minimizedAffinity>
7.44376

> <CNNscore>
0.5311371684

> <CNNaffinity>
7.5689010620

> <CNN_VS>
4.0201249123

> <CNNaffinity_variance>
0.6046755910

$$$$
[H]OC(=O)C([H])([H])N([H])C(=O)[C@]1([H])c2c([H])c([H])c(Cl)c([H])c2N(c2c([H])c([H])c(S(=O)(=O)C([H])([H])[H])c([H])c2Cl)C([H])([H])C([H])([H])N1c1nc([H])n([H])c(=O)n1


 40 43  0  0  0  0  0  0  0  0999 V2000
   12.8489   24.2754   -1.9967 N   0  0  0  0  0  0  0  0  0  0  0  0
   11.7294   24.8865   -1.3266 C   0  0  0  0  0  0  0  0  0  0  0  0
   11.6497   24.4763    0.1257 C   0  0  0  0  0  0  0  0  0  0  0  0
   11.3700   23.0597    0.1910 N   0  0  0  0  0  0  0  0  0  0  0  0
   12.3059   21.9378    0.1338 C   0  0  0  0  0  0  0  0  0  0  0  0
   12.9200   21.8488   -1.2105 C   0  0  0  0  0  0  0  0  0  0  0  0
   13.2754   20.5731   -1.5431 C   0  0  0  0  0  0  0  0  0  0  0  0
   13.8864   20.2832   -2.7686 C   0  0  0  0  0  0  0  0  0  0  0  0
   14.1289   21.3120   -3.6498 C   0  0  0  0  0  0  0  0  0  0  0  0
   14.8886   21.0515   -5.2056 Cl  0  0  0  0  0  0  0  0  0  0  0  0
   13.7673   22.5733   -3.3027 C   0  0  0  0  0  0  0  0  0  0  0  0
   13.1565   22.8945   -2.0905 C   0  0  0  0  0  0  0  0  0  0  0  0
   10.0153   22.6861    0.3280 C   0  0  0  0  0  0  0  0  0  0  0  0
    9.6043   21.4541    0.0112 N   0  0  0  0  0  0  0  0  0  0  0  0
    8.3203   21.0686    0.1311 C   0  0  0  0  0  0  0  0  0  0  0  0
    7.9412   19.8938   -0.1733 O   0  0  0  0  0  0  0  0  0  0  0  0
    7.4002   21.9368    0.5835 N   0  0  0  0  0  0  0  0  0  0  0  0
    7.8182   23.1686    0.8989 C   0  0  0  0  0  0  0  0  0  0  0  0
    9.1057   23.5583    0.7797 N   0  0  0  0  0  0  0  0  0  0  0  0
    6.4003   21.6597    0.6842 H   0  0  0  0  0  0  0  0  0  0  0  0
   15.5384   26.8639   -4.0058 C   0  0  0  0  0  0  0  0  0  0  0  0
   16.0123   25.8504   -3.1995 C   0  0  0  0  0  0  0  0  0  0  0  0
   15.1273   25.0141   -2.5507 C   0  0  0  0  0  0  0  0  0  0  0  0
   13.7542   25.1270   -2.6573 C   0  0  0  0  0  0  0  0  0  0  0  0
   13.2932   26.1546   -3.4746 C   0  0  0  0  0  0  0  0  0  0  0  0
   11.5538   26.3678   -3.6652 Cl  0  0  0  0  0  0  0  0  0  0  0  0
   14.1754   26.9908   -4.1234 C   0  0  0  0  0  0  0  0  0  0  0  0
   18.1177   28.2317   -4.0012 C   0  0  0  0  0  0  0  0  0  0  0  0
   16.6107   27.9611   -4.8586 S   0  0  0  0  0  0  0  0  0  0  0  0
   15.8861   29.2483   -5.1256 O   0  0  0  0  0  0  0  0  0  0  0  0
   16.9326   27.3093   -6.1842 O   0  0  0  0  0  0  0  0  0  0  0  0
   13.3054   22.0329    1.2086 C   0  0  0  0  0  0  0  0  0  0  0  0
   12.9684   21.6219    2.3715 O   0  0  0  0  0  0  0  0  0  0  0  0
   14.6024   22.5347    1.0816 N   0  0  0  0  0  0  0  0  0  0  0  0
   14.9600   22.8968    0.1730 H   0  0  0  0  0  0  0  0  0  0  0  0
   15.5533   22.5985    2.1774 C   0  0  0  0  0  0  0  0  0  0  0  0
   16.9114   22.4397    1.6298 C   0  0  0  0  0  0  0  0  0  0  0  0
   17.3217   21.1193    1.3772 O   0  0  0  0  0  0  0  0  0  0  0  0
   17.7332   23.3240    1.3659 O   0  0  0  0  0  0  0  0  0  0  0  0
   17.8873   20.5903    2.0084 H   0  0  0  0  0  0  0  0  0  0  0  0
 28 29  1  0  0  0
 29 30  2  0  0  0
 29 31  2  0  0  0
 29 21  1  0  0  0
 21 22  2  0  0  0
 22 23  1  0  0  0
 23 24  2  0  0  0
 24  1  1  0  0  0
  1  2  1  0  0  0
  2  3  1  0  0  0
  3  4  1  0  0  0
  4  5  1  0  0  0
  5 32  1  0  0  0
 32 33  2  0  0  0
 32 34  1  0  0  0
 34 36  1  0  0  0
 36 37  1  0  0  0
 37 38  1  0  0  0
 37 39  2  0  0  0
  5  6  1  0  0  0
  6  7  2  0  0  0
  7  8  1  0  0  0
  8  9  2  0  0  0
  9 10  1  0  0  0
  9 11  1  0  0  0
 11 12  2  0  0  0
  4 13  1  0  0  0
 13 14  2  0  0  0
 14 15  1  0  0  0
 15 16  2  0  0  0
 15 17  1  0  0  0
 17 18  1  0  0  0
 18 19  2  0  0  0
 24 25  1  0  0  0
 25 26  1  0  0  0
 25 27  2  0  0  0
 27 21  1  0  0  0
 12  1  1  0  0  0
 19 13  1  0  0  0
 12  6  1  0  0  0
 34 35  1  0  0  0
 38 40  1  0  0  0
 17 20  1  0  0  0
M  END
> <minimizedAffinity>
8.23193

> <CNNscore>
0.4589578807

> <CNNaffinity>
7.4435911179

> <CNN_VS>
3.4162948132

> <CNNaffinity_variance>
0.3900839388

$$$$
[H]OC(=O)C([H])([H])N([H])C(=O)[C@]1([H])c2c([H])c([H])c(Cl)c([H])c2N(c2c([H])c([H])c(S(=O)(=O)C([H])([H])[H])c([H])c2Cl)C([H])([H])C([H])([H])N1c1nc([H])n([H])c(=O)n1


 40 43  0  0  0  0  0  0  0  0999 V2000
   13.2089   24.5080   -2.1660 N   0  0  0  0  0  0  0  0  0  0  0  0
   12.2561   25.1510   -1.2974 C   0  0  0  0  0  0  0  0  0  0  0  0
   12.5094   24.8248    0.1563 C   0  0  0  0  0  0  0  0  0  0  0  0
   12.2767   23.4130    0.3605 N   0  0  0  0  0  0  0  0  0  0  0  0
   13.1963   22.2944    0.1574 C   0  0  0  0  0  0  0  0  0  0  0  0
   13.4968   22.1312   -1.2832 C   0  0  0  0  0  0  0  0  0  0  0  0
   13.7919   20.8402   -1.6160 C   0  0  0  0  0  0  0  0  0  0  0  0
   14.1195   20.4833   -2.9292 C   0  0  0  0  0  0  0  0  0  0  0  0
   14.1411   21.4608   -3.8976 C   0  0  0  0  0  0  0  0  0  0  0  0
   14.5394   21.1149   -5.5671 Cl  0  0  0  0  0  0  0  0  0  0  0  0
   13.8434   22.7381   -3.5485 C   0  0  0  0  0  0  0  0  0  0  0  0
   13.5125   23.1255   -2.2500 C   0  0  0  0  0  0  0  0  0  0  0  0
   10.9935   23.0409    0.8172 C   0  0  0  0  0  0  0  0  0  0  0  0
   10.0763   23.9639    1.1235 N   0  0  0  0  0  0  0  0  0  0  0  0
    8.8453   23.6404    1.5611 C   0  0  0  0  0  0  0  0  0  0  0  0
    7.9809   24.5273    1.8493 O   0  0  0  0  0  0  0  0  0  0  0  0
    8.5033   22.3490    1.7033 N   0  0  0  0  0  0  0  0  0  0  0  0
    9.4262   21.4299    1.3950 C   0  0  0  0  0  0  0  0  0  0  0  0
   10.6621   21.7514    0.9556 N   0  0  0  0  0  0  0  0  0  0  0  0
    7.5556   22.0756    2.0407 H   0  0  0  0  0  0  0  0  0  0  0  0
   15.4181   26.9471   -4.8381 C   0  0  0  0  0  0  0  0  0  0  0  0
   14.0458   27.0586   -4.7599 C   0  0  0  0  0  0  0  0  0  0  0  0
   13.3374   26.2594   -3.8864 C   0  0  0  0  0  0  0  0  0  0  0  0
   13.9288   25.3247   -3.0581 C   0  0  0  0  0  0  0  0  0  0  0  0
   15.3138   25.2252   -3.1498 C   0  0  0  0  0  0  0  0  0  0  0  0
   16.1473   24.0564   -2.1268 Cl  0  0  0  0  0  0  0  0  0  0  0  0
   16.0230   26.0225   -4.0215 C   0  0  0  0  0  0  0  0  0  0  0  0
   16.7402   27.1135   -7.4358 C   0  0  0  0  0  0  0  0  0  0  0  0
   16.3772   27.9339   -5.9277 S   0  0  0  0  0  0  0  0  0  0  0  0
   17.6266   28.3739   -5.2216 O   0  0  0  0  0  0  0  0  0  0  0  0
   15.5498   29.1590   -6.2444 O   0  0  0  0  0  0  0  0  0  0  0  0
   14.4084   22.4565    0.9747 C   0  0  0  0  0  0  0  0  0  0  0  0
   14.6120   21.6088    1.9099 O   0  0  0  0  0  0  0  0  0  0  0  0
   15.3700   23.4583    0.8273 N   0  0  0  0  0  0  0  0  0  0  0  0
   15.2823   24.1945    0.0960 H   0  0  0  0  0  0  0  0  0  0  0  0
   16.5552   23.5670    1.6595 C   0  0  0  0  0  0  0  0  0  0  0  0
   17.0577   22.2112    1.9398 C   0  0  0  0  0  0  0  0  0  0  0  0
   17.5109   21.4816    0.8271 O   0  0  0  0  0  0  0  0  0  0  0  0
   17.1294   21.6372    3.0318 O   0  0  0  0  0  0  0  0  0  0  0  0
   16.9526   20.8028    0.3517 H   0  0  0  0  0  0  0  0  0  0  0  0
 28 29  1  0  0  0
 29 30  2  0  0  0
 29 31  2  0  0  0
 29 21  1  0  0  0
 21 22  2  0  0  0
 22 23  1  0  0  0
 23 24  2  0  0  0
 24  1  1  0  0  0
  1  2  1  0  0  0
  2  3  1  0  0  0
  3  4  1  0  0  0
  4  5  1  0  0  0
  5 32  1  0  0  0
 32 33  2  0  0  0
 32 34  1  0  0  0
 34 36  1  0  0  0
 36 37  1  0  0  0
 37 38  1  0  0  0
 37 39  2  0  0  0
  5  6  1  0  0  0
  6  7  2  0  0  0
  7  8  1  0  0  0
  8  9  2  0  0  0
  9 10  1  0  0  0
  9 11  1  0  0  0
 11 12  2  0  0  0
  4 13  1  0  0  0
 13 14  2  0  0  0
 14 15  1  0  0  0
 15 16  2  0  0  0
 15 17  1  0  0  0
 17 18  1  0  0  0
 18 19  2  0  0  0
 24 25  1  0  0  0
 25 26  1  0  0  0
 25 27  2  0  0  0
 27 21  1  0  0  0
 12  1  1  0  0  0
 19 13  1  0  0  0
 12  6  1  0  0  0
 34 35  1  0  0  0
 38 40  1  0  0  0
 17 20  1  0  0  0
M  END
> <minimizedAffinity>
12.06461

> <CNNscore>
0.4296937287

> <CNNaffinity>
7.5602860451

> <CNN_VS>
3.2486073971

> <CNNaffinity_variance>
0.4445708394

$$$$
[H]OC(=O)C([H])([H])N([H])C(=O)[C@]1([H])c2c([H])c([H])c(Cl)c([H])c2N(c2c([H])c([H])c(S(=O)(=O)C([H])([H])[H])c([H])c2Cl)C([H])([H])C([H])([H])N1c1nc([H])n([H])c(=O)n1


 40 43  0  0  0  0  0  0  0  0999 V2000
   12.9431   24.1844   -1.9147 N   0  0  0  0  0  0  0  0  0  0  0  0
   11.9061   24.7404   -1.0832 C   0  0  0  0  0  0  0  0  0  0  0  0
   12.0808   24.3560    0.3679 C   0  0  0  0  0  0  0  0  0  0  0  0
   11.9042   22.9267    0.4916 N   0  0  0  0  0  0  0  0  0  0  0  0
   12.8882   21.8624    0.2998 C   0  0  0  0  0  0  0  0  0  0  0  0
   13.2886   21.7830   -1.1235 C   0  0  0  0  0  0  0  0  0  0  0  0
   13.6669   20.5246   -1.4942 C   0  0  0  0  0  0  0  0  0  0  0  0
   14.0954   20.2470   -2.7976 C   0  0  0  0  0  0  0  0  0  0  0  0
   14.1319   21.2704   -3.7169 C   0  0  0  0  0  0  0  0  0  0  0  0
   14.6534   21.0244   -5.3701 Cl  0  0  0  0  0  0  0  0  0  0  0  0
   13.7507   22.5143   -3.3308 C   0  0  0  0  0  0  0  0  0  0  0  0
   13.3183   22.8228   -2.0409 C   0  0  0  0  0  0  0  0  0  0  0  0
   10.6139   22.4750    0.8444 C   0  0  0  0  0  0  0  0  0  0  0  0
   10.1711   22.5670    2.1024 N   0  0  0  0  0  0  0  0  0  0  0  0
    8.9467   22.1453    2.4691 C   0  0  0  0  0  0  0  0  0  0  0  0
    8.5364   22.2382    3.6690 O   0  0  0  0  0  0  0  0  0  0  0  0
    8.1218   21.6086    1.5545 N   0  0  0  0  0  0  0  0  0  0  0  0
    8.5712   21.5193    0.2969 C   0  0  0  0  0  0  0  0  0  0  0  0
    9.7991   21.9416   -0.0740 N   0  0  0  0  0  0  0  0  0  0  0  0
    7.1693   21.2755    1.8163 H   0  0  0  0  0  0  0  0  0  0  0  0
   15.1989   26.8476   -4.3206 C   0  0  0  0  0  0  0  0  0  0  0  0
   13.8212   26.9094   -4.3100 C   0  0  0  0  0  0  0  0  0  0  0  0
   13.0977   26.0373   -3.5229 C   0  0  0  0  0  0  0  0  0  0  0  0
   13.6785   25.0753   -2.7188 C   0  0  0  0  0  0  0  0  0  0  0  0
   15.0690   25.0268   -2.7414 C   0  0  0  0  0  0  0  0  0  0  0  0
   15.8898   23.8277   -1.7435 Cl  0  0  0  0  0  0  0  0  0  0  0  0
   15.7934   25.8968   -3.5268 C   0  0  0  0  0  0  0  0  0  0  0  0
   16.3089   27.3932   -6.9652 C   0  0  0  0  0  0  0  0  0  0  0  0
   16.1771   27.9277   -5.2991 S   0  0  0  0  0  0  0  0  0  0  0  0
   17.5258   28.0849   -4.6591 O   0  0  0  0  0  0  0  0  0  0  0  0
   15.4828   29.2706   -5.2880 O   0  0  0  0  0  0  0  0  0  0  0  0
   14.0358   22.0396    1.2026 C   0  0  0  0  0  0  0  0  0  0  0  0
   13.8560   21.8011    2.4458 O   0  0  0  0  0  0  0  0  0  0  0  0
   15.3181   22.4481    0.8300 N   0  0  0  0  0  0  0  0  0  0  0  0
   15.5532   22.6697   -0.1600 H   0  0  0  0  0  0  0  0  0  0  0  0
   16.4194   22.5996    1.7643 C   0  0  0  0  0  0  0  0  0  0  0  0
   17.2073   23.7810    1.3733 C   0  0  0  0  0  0  0  0  0  0  0  0
   16.4881   24.8268    0.7692 O   0  0  0  0  0  0  0  0  0  0  0  0
   18.4215   23.9652    1.5109 O   0  0  0  0  0  0  0  0  0  0  0  0
   16.4404   24.9600   -0.2199 H   0  0  0  0  0  0  0  0  0  0  0  0
 28 29  1  0  0  0
 29 30  2  0  0  0
 29 31  2  0  0  0
 29 21  1  0  0  0
 21 22  2  0  0  0
 22 23  1  0  0  0
 23 24  2  0  0  0
 24  1  1  0  0  0
  1  2  1  0  0  0
  2  3  1  0  0  0
  3  4  1  0  0  0
  4  5  1  0  0  0
  5 32  1  0  0  0
 32 33  2  0  0  0
 32 34  1  0  0  0
 34 36  1  0  0  0
 36 37  1  0  0  0
 37 38  1  0  0  0
 37 39  2  0  0  0
  5  6  1  0  0  0
  6  7  2  0  0  0
  7  8  1  0  0  0
  8  9  2  0  0  0
  9 10  1  0  0  0
  9 11  1  0  0  0
 11 12  2  0  0  0
  4 13  1  0  0  0
 13 14  2  0  0  0
 14 15  1  0  0  0
 15 16  2  0  0  0
 15 17  1  0  0  0
 17 18  1  0  0  0
 18 19  2  0  0  0
 24 25  1  0  0  0
 25 26  1  0  0  0
 25 27  2  0  0  0
 27 21  1  0  0  0
 12  1  1  0  0  0
 19 13  1  0  0  0
 12  6  1  0  0  0
 34 35  1  0  0  0
 38 40  1  0  0  0
 17 20  1  0  0  0
M  END
> <minimizedAffinity>
4.61218

> <CNNscore>
0.4281533957

> <CNNaffinity>
7.6668748856

> <CNN_VS>
3.2825984955

> <CNNaffinity_variance>
0.3538492322

$$$$
[H]OC(=O)C([H])([H])N([H])C(=O)[C@]1([H])c2c([H])c([H])c(Cl)c([H])c2N(c2c([H])c([H])c(S(=O)(=O)C([H])([H])[H])c([H])c2Cl)C([H])([H])C([H])([H])N1c1nc([H])n([H])c(=O)n1


 40 43  0  0  0  0  0  0  0  0999 V2000
   15.1659   24.5585   -1.9982 N   0  0  0  0  0  0  0  0  0  0  0  0
   15.7939   25.6957   -1.3751 C   0  0  0  0  0  0  0  0  0  0  0  0
   15.3926   26.9937   -2.0369 C   0  0  0  0  0  0  0  0  0  0  0  0
   15.9074   27.0021   -3.3875 N   0  0  0  0  0  0  0  0  0  0  0  0
   15.3139   26.4349   -4.5974 C   0  0  0  0  0  0  0  0  0  0  0  0
   15.2937   24.9566   -4.5155 C   0  0  0  0  0  0  0  0  0  0  0  0
   15.3600   24.3609   -5.7423 C   0  0  0  0  0  0  0  0  0  0  0  0
   15.3378   22.9678   -5.8777 C   0  0  0  0  0  0  0  0  0  0  0  0
   15.2479   22.1917   -4.7449 C   0  0  0  0  0  0  0  0  0  0  0  0
   15.2123   20.4424   -4.8100 Cl  0  0  0  0  0  0  0  0  0  0  0  0
   15.1845   22.8014   -3.5340 C   0  0  0  0  0  0  0  0  0  0  0  0
   15.2052   24.1860   -3.3658 C   0  0  0  0  0  0  0  0  0  0  0  0
   17.1515   27.6389   -3.5884 C   0  0  0  0  0  0  0  0  0  0  0  0
   18.2911   27.0687   -3.1844 N   0  0  0  0  0  0  0  0  0  0  0  0
   19.4917   27.6508   -3.3618 C   0  0  0  0  0  0  0  0  0  0  0  0
   20.5691   27.0986   -2.9733 O   0  0  0  0  0  0  0  0  0  0  0  0
   19.5722   28.8489   -3.9643 N   0  0  0  0  0  0  0  0  0  0  0  0
   18.4276   29.4143   -4.3663 C   0  0  0  0  0  0  0  0  0  0  0  0
   17.2216   28.8327   -4.1898 N   0  0  0  0  0  0  0  0  0  0  0  0
   20.4914   29.3179   -4.1120 H   0  0  0  0  0  0  0  0  0  0  0  0
   12.9101   21.9637    0.4814 C   0  0  0  0  0  0  0  0  0  0  0  0
   14.2704   21.7880    0.3377 C   0  0  0  0  0  0  0  0  0  0  0  0
   14.9942   22.6389   -0.4721 C   0  0  0  0  0  0  0  0  0  0  0  0
   14.4303   23.6888   -1.1715 C   0  0  0  0  0  0  0  0  0  0  0  0
   13.0572   23.8517   -1.0152 C   0  0  0  0  0  0  0  0  0  0  0  0
   12.2587   25.1684   -1.8733 Cl  0  0  0  0  0  0  0  0  0  0  0  0
   12.3327   23.0031   -0.2069 C   0  0  0  0  0  0  0  0  0  0  0  0
   10.7584   19.9927    0.5761 C   0  0  0  0  0  0  0  0  0  0  0  0
   11.9328   20.9167    1.4960 S   0  0  0  0  0  0  0  0  0  0  0  0
   11.2753   21.7414    2.5641 O   0  0  0  0  0  0  0  0  0  0  0  0
   12.8830   19.9453    2.1585 O   0  0  0  0  0  0  0  0  0  0  0  0
   13.9821   27.0072   -4.8467 C   0  0  0  0  0  0  0  0  0  0  0  0
   13.5693   27.0465   -6.0561 O   0  0  0  0  0  0  0  0  0  0  0  0
   13.1140   27.5184   -3.8796 N   0  0  0  0  0  0  0  0  0  0  0  0
   13.3702   27.5325   -2.8703 H   0  0  0  0  0  0  0  0  0  0  0  0
   11.8034   28.0662   -4.1812 C   0  0  0  0  0  0  0  0  0  0  0  0
   11.8259   29.5136   -3.9090 C   0  0  0  0  0  0  0  0  0  0  0  0
   10.6491   30.2160   -4.2213 O   0  0  0  0  0  0  0  0  0  0  0  0
   12.7514   30.1851   -3.4404 O   0  0  0  0  0  0  0  0  0  0  0  0
   10.5246   30.7276   -5.0705 H   0  0  0  0  0  0  0  0  0  0  0  0
 28 29  1  0  0  0
 29 30  2  0  0  0
 29 31  2  0  0  0
 29 21  1  0  0  0
 21 22  2  0  0  0
 22 23  1  0  0  0
 23 24  2  0  0  0
 24  1  1  0  0  0
  1  2  1  0  0  0
  2  3  1  0  0  0
  3  4  1  0  0  0
  4  5  1  0  0  0
  5 32  1  0  0  0
 32 33  2  0  0  0
 32 34  1  0  0  0
 34 36  1  0  0  0
 36 37  1  0  0  0
 37 38  1  0  0  0
 37 39  2  0  0  0
  5  6  1  0  0  0
  6  7  2  0  0  0
  7  8  1  0  0  0
  8  9  2  0  0  0
  9 10  1  0  0  0
  9 11  1  0  0  0
 11 12  2  0  0  0
  4 13  1  0  0  0
 13 14  2  0  0  0
 14 15  1  0  0  0
 15 16  2  0  0  0
 15 17  1  0  0  0
 17 18  1  0  0  0
 18 19  2  0  0  0
 24 25  1  0  0  0
 25 26  1  0  0  0
 25 27  2  0  0  0
 27 21  1  0  0  0
 12  1  1  0  0  0
 19 13  1  0  0  0
 12  6  1  0  0  0
 34 35  1  0  0  0
 38 40  1  0  0  0
 17 20  1  0  0  0
M  END
> <minimizedAffinity>
13.07819

> <CNNscore>
0.4180167317

> <CNNaffinity>
7.7168173790

> <CNN_VS>
3.2257587910

> <CNNaffinity_variance>
1.0078763962

$$$$
[H]OC(=O)C([H])([H])N([H])C(=O)[C@]1([H])c2c([H])c([H])c(Cl)c([H])c2N(c2c([H])c([H])c(S(=O)(=O)C([H])([H])[H])c([H])c2Cl)C([H])([H])C([H])([H])N1c1nc([H])n([H])c(=O)n1


 40 43  0  0  0  0  0  0  0  0999 V2000
   12.7370   23.9067   -1.3370 N   0  0  0  0  0  0  0  0  0  0  0  0
   12.7322   25.3226   -1.6035 C   0  0  0  0  0  0  0  0  0  0  0  0
   13.4252   25.6532   -2.9052 C   0  0  0  0  0  0  0  0  0  0  0  0
   14.8266   25.3222   -2.7796 N   0  0  0  0  0  0  0  0  0  0  0  0
   15.4856   24.0338   -2.9885 C   0  0  0  0  0  0  0  0  0  0  0  0
   15.0690   23.0685   -1.9460 C   0  0  0  0  0  0  0  0  0  0  0  0
   16.0274   22.1322   -1.6828 C   0  0  0  0  0  0  0  0  0  0  0  0
   15.8179   21.1212   -0.7377 C   0  0  0  0  0  0  0  0  0  0  0  0
   14.6182   21.0791   -0.0648 C   0  0  0  0  0  0  0  0  0  0  0  0
   14.2607   19.8541    1.1340 Cl  0  0  0  0  0  0  0  0  0  0  0  0
   13.6781   22.0189   -0.3385 C   0  0  0  0  0  0  0  0  0  0  0  0
   13.8565   23.0389   -1.2732 C   0  0  0  0  0  0  0  0  0  0  0  0
   15.6950   26.3705   -2.4047 C   0  0  0  0  0  0  0  0  0  0  0  0
   16.3383   27.0955   -3.3253 N   0  0  0  0  0  0  0  0  0  0  0  0
   17.1720   28.1005   -2.9990 C   0  0  0  0  0  0  0  0  0  0  0  0
   17.7784   28.7834   -3.8837 O   0  0  0  0  0  0  0  0  0  0  0  0
   17.3810   28.4042   -1.7071 N   0  0  0  0  0  0  0  0  0  0  0  0
   16.7340   27.6744   -0.7904 C   0  0  0  0  0  0  0  0  0  0  0  0
   15.8968   26.6655   -1.1147 N   0  0  0  0  0  0  0  0  0  0  0  0
   18.0225   29.1784   -1.4316 H   0  0  0  0  0  0  0  0  0  0  0  0
    8.9944   22.0711   -0.5668 C   0  0  0  0  0  0  0  0  0  0  0  0
    9.7837   21.6403   -1.6124 C   0  0  0  0  0  0  0  0  0  0  0  0
   11.0000   22.2454   -1.8533 C   0  0  0  0  0  0  0  0  0  0  0  0
   11.4967   23.2874   -1.0937 C   0  0  0  0  0  0  0  0  0  0  0  0
   10.6877   23.7095   -0.0432 C   0  0  0  0  0  0  0  0  0  0  0  0
   11.2476   25.0346    0.9757 Cl  0  0  0  0  0  0  0  0  0  0  0  0
    9.4727   23.1065    0.1991 C   0  0  0  0  0  0  0  0  0  0  0  0
    7.5840   19.6965    0.3796 C   0  0  0  0  0  0  0  0  0  0  0  0
    7.4379   21.3438   -0.2072 S   0  0  0  0  0  0  0  0  0  0  0  0
    6.5651   21.4226   -1.4259 O   0  0  0  0  0  0  0  0  0  0  0  0
    6.8110   22.1799    0.8853 O   0  0  0  0  0  0  0  0  0  0  0  0
   15.2445   23.5358   -4.3513 C   0  0  0  0  0  0  0  0  0  0  0  0
   14.9033   22.3109   -4.4845 O   0  0  0  0  0  0  0  0  0  0  0  0
   15.3535   24.2794   -5.5284 N   0  0  0  0  0  0  0  0  0  0  0  0
   15.6320   25.2827   -5.5152 H   0  0  0  0  0  0  0  0  0  0  0  0
   15.0958   23.7378   -6.8510 C   0  0  0  0  0  0  0  0  0  0  0  0
   15.2724   24.8139   -7.8411 C   0  0  0  0  0  0  0  0  0  0  0  0
   14.2507   24.9424   -8.7978 O   0  0  0  0  0  0  0  0  0  0  0  0
   16.2076   25.6163   -7.9336 O   0  0  0  0  0  0  0  0  0  0  0  0
   14.3090   24.5571   -9.7178 H   0  0  0  0  0  0  0  0  0  0  0  0
 28 29  1  0  0  0
 29 30  2  0  0  0
 29 31  2  0  0  0
 29 21  1  0  0  0
 21 22  2  0  0  0
 22 23  1  0  0  0
 23 24  2  0  0  0
 24  1  1  0  0  0
  1  2  1  0  0  0
  2  3  1  0  0  0
  3  4  1  0  0  0
  4  5  1  0  0  0
  5 32  1  0  0  0
 32 33  2  0  0  0
 32 34  1  0  0  0
 34 36  1  0  0  0
 36 37  1  0  0  0
 37 38  1  0  0  0
 37 39  2  0  0  0
  5  6  1  0  0  0
  6  7  2  0  0  0
  7  8  1  0  0  0
  8  9  2  0  0  0
  9 10  1  0  0  0
  9 11  1  0  0  0
 11 12  2  0  0  0
  4 13  1  0  0  0
 13 14  2  0  0  0
 14 15  1  0  0  0
 15 16  2  0  0  0
 15 17  1  0  0  0
 17 18  1  0  0  0
 18 19  2  0  0  0
 24 25  1  0  0  0
 25 26  1  0  0  0
 25 27  2  0  0  0
 27 21  1  0  0  0
 12  1  1  0  0  0
 19 13  1  0  0  0
 12  6  1  0  0  0
 34 35  1  0  0  0
 38 40  1  0  0  0
 17 20  1  0  0  0
M  END
> <minimizedAffinity>
12.87500

> <CNNscore>
0.4085871875

> <CNNaffinity>
7.5875778198

> <CNN_VS>
3.1001870632

> <CNNaffinity_variance>
0.8182695508

$$$$
[H]OC(=O)C([H])([H])[C@@]([H])(C(=O)N([H])[C@@]([H])(Oc1c([H])c([H])c(-c2c([H])c([H])c([H])c([H])c2[H])c([H])c1[H])C(=O)N([H])[C@@]([H])(C(C([H])([H])[H])(C([H])([H])[H])C([H])([H])[H])[C@]([H])(C([H])([H])[H])C([H])([H])C([H])([H])[H])N([H])C(=O)[C@@]([H])(N([H])C(=O)[C@@]([H])(N([H])C(=O)C(=O)N([H])[H])C([H])([H])C([H])([H])C([H])([H])C([H])([H])C([H])([H])S[H])C([H])([H])c1c([H])c([H])c(O[H])c([H])c1[H]


 72 74  0  0  0  0  0  0  0  0999 V2000
   10.3189   20.3254    2.9873 C   0  0  0  0  0  0  0  0  0  0  0  0
   10.8842   21.1277    1.8833 N   0  0  0  0  0  0  0  0  0  0  0  0
   11.1077   20.4689    0.6475 C   0  0  0  0  0  0  0  0  0  0  0  0
   10.8410   19.2192    0.5209 O   0  0  0  0  0  0  0  0  0  0  0  0
   11.1144   22.1248    1.9882 H   0  0  0  0  0  0  0  0  0  0  0  0
   11.6458   21.1005   -0.5774 C   0  0  0  0  0  0  0  0  0  0  0  0
   11.8405   22.5366   -0.3498 N   0  0  0  0  0  0  0  0  0  0  0  0
   11.3284   23.4733   -1.2797 C   0  0  0  0  0  0  0  0  0  0  0  0
   10.7246   23.0416   -2.3180 O   0  0  0  0  0  0  0  0  0  0  0  0
   12.3467   22.8831    0.4827 H   0  0  0  0  0  0  0  0  0  0  0  0
   11.4751   24.9372   -1.0739 C   0  0  0  0  0  0  0  0  0  0  0  0
   11.3133   25.2363    0.3064 N   0  0  0  0  0  0  0  0  0  0  0  0
   10.2804   24.6761    1.1062 C   0  0  0  0  0  0  0  0  0  0  0  0
    9.4742   23.8828    0.5495 O   0  0  0  0  0  0  0  0  0  0  0  0
   11.9716   25.8688    0.7918 H   0  0  0  0  0  0  0  0  0  0  0  0
   10.1141   24.9736    2.5127 C   0  0  0  0  0  0  0  0  0  0  0  0
   10.2657   23.9659    3.5021 N   0  0  0  0  0  0  0  0  0  0  0  0
    9.8296   26.1304    2.9308 O   0  0  0  0  0  0  0  0  0  0  0  0
    9.8618   23.0239    3.3867 H   0  0  0  0  0  0  0  0  0  0  0  0
   10.7964   24.1498    4.3874 H   0  0  0  0  0  0  0  0  0  0  0  0
   12.7218   25.4608   -1.7251 C   0  0  0  0  0  0  0  0  0  0  0  0
   12.5863   26.2420   -2.9634 C   0  0  0  0  0  0  0  0  0  0  0  0
   13.6950   26.2387   -3.9453 C   0  0  0  0  0  0  0  0  0  0  0  0
   14.9603   25.5725   -3.4445 C   0  0  0  0  0  0  0  0  0  0  0  0
   16.1306   26.5413   -3.4784 C   0  0  0  0  0  0  0  0  0  0  0  0
   15.9911   27.5762   -4.9684 S   0  0  0  0  0  0  0  0  0  0  0  0
   15.0377   28.5940   -4.7540 H   0  0  0  0  0  0  0  0  0  0  0  0
   13.0303   20.4832   -0.7703 C   0  0  0  0  0  0  0  0  0  0  0  0
   14.1258   21.3446   -0.3160 C   0  0  0  0  0  0  0  0  0  0  0  0
   14.8791   20.9285    0.7727 C   0  0  0  0  0  0  0  0  0  0  0  0
   15.9373   21.6892    1.2541 C   0  0  0  0  0  0  0  0  0  0  0  0
   16.1922   22.8801    0.5844 C   0  0  0  0  0  0  0  0  0  0  0  0
   17.2483   23.6711    1.0405 O   0  0  0  0  0  0  0  0  0  0  0  0
   15.4483   23.2955   -0.4951 C   0  0  0  0  0  0  0  0  0  0  0  0
   14.3966   22.5326   -0.9677 C   0  0  0  0  0  0  0  0  0  0  0  0
   17.0350   24.3766    1.7582 H   0  0  0  0  0  0  0  0  0  0  0  0
    8.3695   20.3078    4.5493 N   0  0  0  0  0  0  0  0  0  0  0  0
    9.0399   20.8563    3.4701 C   0  0  0  0  0  0  0  0  0  0  0  0
    8.5263   21.8468    2.8849 O   0  0  0  0  0  0  0  0  0  0  0  0
    8.7915   19.4613    5.0263 H   0  0  0  0  0  0  0  0  0  0  0  0
    7.1186   20.7507    5.1339 C   0  0  0  0  0  0  0  0  0  0  0  0
    6.2525   20.4473    2.7941 N   0  0  0  0  0  0  0  0  0  0  0  0
    6.0770   20.9710    4.0580 C   0  0  0  0  0  0  0  0  0  0  0  0
    5.1208   21.6347    4.4511 O   0  0  0  0  0  0  0  0  0  0  0  0
    7.2338   19.8971    2.7329 H   0  0  0  0  0  0  0  0  0  0  0  0
    5.4918   20.4330    1.5876 C   0  0  0  0  0  0  0  0  0  0  0  0
    6.1721   20.8917    0.3583 C   0  0  0  0  0  0  0  0  0  0  0  0
    5.1048   21.1155   -0.7732 C   0  0  0  0  0  0  0  0  0  0  0  0
    6.6961   22.2884    0.6038 C   0  0  0  0  0  0  0  0  0  0  0  0
    7.2667   20.0502   -0.1924 C   0  0  0  0  0  0  0  0  0  0  0  0
    4.5915   19.2807    1.5530 C   0  0  0  0  0  0  0  0  0  0  0  0
    3.1992   19.3989    2.0387 C   0  0  0  0  0  0  0  0  0  0  0  0
    4.1684   17.0616    2.6960 C   0  0  0  0  0  0  0  0  0  0  0  0
    5.1807   18.0111    2.1598 C   0  0  0  0  0  0  0  0  0  0  0  0
    7.3536   21.9944    5.7510 O   0  0  0  0  0  0  0  0  0  0  0  0
    6.9350   23.1965    5.2676 C   0  0  0  0  0  0  0  0  0  0  0  0
    6.1103   24.0486    5.9485 C   0  0  0  0  0  0  0  0  0  0  0  0
    5.6887   25.2844    5.4381 C   0  0  0  0  0  0  0  0  0  0  0  0
    6.1043   25.6970    4.1933 C   0  0  0  0  0  0  0  0  0  0  0  0
    6.9346   24.8366    3.5109 C   0  0  0  0  0  0  0  0  0  0  0  0
    7.3466   23.6374    3.9996 C   0  0  0  0  0  0  0  0  0  0  0  0
    5.7212   26.9651    3.5900 C   0  0  0  0  0  0  0  0  0  0  0  0
    4.4634   27.4658    3.7346 C   0  0  0  0  0  0  0  0  0  0  0  0
    4.1316   28.6645    3.1543 C   0  0  0  0  0  0  0  0  0  0  0  0
    5.0629   29.3798    2.4176 C   0  0  0  0  0  0  0  0  0  0  0  0
    6.3466   28.8680    2.2704 C   0  0  0  0  0  0  0  0  0  0  0  0
    6.6798   27.6624    2.8542 C   0  0  0  0  0  0  0  0  0  0  0  0
   11.3801   20.1778    4.0577 C   0  0  0  0  0  0  0  0  0  0  0  0
   11.7447   18.8259    4.4323 C   0  0  0  0  0  0  0  0  0  0  0  0
   10.7952   18.1597    5.2552 O   0  0  0  0  0  0  0  0  0  0  0  0
   12.7411   18.1542    4.1556 O   0  0  0  0  0  0  0  0  0  0  0  0
   11.0678   17.7720    6.1593 H   0  0  0  0  0  0  0  0  0  0  0  0
 53 54  1  0  0  0
 54 51  1  0  0  0
 51 52  1  0  0  0
 51 46  1  0  0  0
 46 42  1  0  0  0
 42 43  1  0  0  0
 43 44  2  0  0  0
 43 41  1  0  0  0
 41 37  1  0  0  0
 37 38  1  0  0  0
 38 39  2  0  0  0
 38  1  1  0  0  0
  1 68  1  0  0  0
 68 69  1  0  0  0
 69 70  1  0  0  0
 69 71  2  0  0  0
  1  2  1  0  0  0
  2  3  1  0  0  0
  3  4  2  0  0  0
  3  6  1  0  0  0
  6 28  1  0  0  0
 28 29  1  0  0  0
 29 30  2  0  0  0
 30 31  1  0  0  0
 31 32  2  0  0  0
 32 33  1  0  0  0
 32 34  1  0  0  0
 34 35  2  0  0  0
  6  7  1  0  0  0
  7  8  1  0  0  0
  8  9  2  0  0  0
  8 11  1  0  0  0
 11 21  1  0  0  0
 21 22  1  0  0  0
 22 23  1  0  0  0
 23 24  1  0  0  0
 24 25  1  0  0  0
 25 26  1  0  0  0
 11 12  1  0  0  0
 12 13  1  0  0  0
 13 14  2  0  0  0
 13 16  1  0  0  0
 16 17  1  0  0  0
 16 18  2  0  0  0
 41 55  1  0  0  0
 55 56  1  0  0  0
 56 57  2  0  0  0
 57 58  1  0  0  0
 58 59  2  0  0  0
 59 60  1  0  0  0
 60 61  2  0  0  0
 59 62  1  0  0  0
 62 63  2  0  0  0
 63 64  1  0  0  0
 64 65  2  0  0  0
 65 66  1  0  0  0
 66 67  2  0  0  0
 46 47  1  0  0  0
 47 48  1  0  0  0
 47 49  1  0  0  0
 47 50  1  0  0  0
 35 29  1  0  0  0
 61 56  1  0  0  0
 67 62  1  0  0  0
 42 45  1  0  0  0
 37 40  1  0  0  0
 70 72  1  0  0  0
  2  5  1  0  0  0
 33 36  1  0  0  0
  7 10  1  0  0  0
 26 27  1  0  0  0
 12 15  1  0  0  0
 17 19  1  0  0  0
 17 20  1  0  0  0
M  END
> <minimizedAffinity>
-6.04354

> <CNNscore>
0.4019109309

> <CNNaffinity>
8.2202463150

> <CNN_VS>
3.3038067818

> <CNNaffinity_variance>
0.2134984732

$$$$
[H]OC(=O)C([H])([H])[C@@]([H])(C(=O)N([H])[C@@]([H])(Oc1c([H])c([H])c(-c2c([H])c([H])c([H])c([H])c2[H])c([H])c1[H])C(=O)N([H])[C@@]([H])(C(C([H])([H])[H])(C([H])([H])[H])C([H])([H])[H])[C@]([H])(C([H])([H])[H])C([H])([H])C([H])([H])[H])N([H])C(=O)[C@@]([H])(N([H])C(=O)[C@@]([H])(N([H])C(=O)C(=O)N([H])[H])C([H])([H])C([H])([H])C([H])([H])C([H])([H])C([H])([H])S[H])C([H])([H])c1c([H])c([H])c(O[H])c([H])c1[H]


 72 74  0  0  0  0  0  0  0  0999 V2000
    8.1416   23.3498    2.3091 C   0  0  0  0  0  0  0  0  0  0  0  0
    9.4586   23.1759    1.6630 N   0  0  0  0  0  0  0  0  0  0  0  0
   10.2865   24.3221    1.5532 C   0  0  0  0  0  0  0  0  0  0  0  0
    9.8797   25.4603    1.9867 O   0  0  0  0  0  0  0  0  0  0  0  0
    9.7789   22.2683    1.2998 H   0  0  0  0  0  0  0  0  0  0  0  0
   11.6412   24.3491    0.9591 C   0  0  0  0  0  0  0  0  0  0  0  0
   11.8243   23.1820    0.0895 N   0  0  0  0  0  0  0  0  0  0  0  0
   11.8241   21.8807    0.6470 C   0  0  0  0  0  0  0  0  0  0  0  0
   11.6883   21.7529    1.9096 O   0  0  0  0  0  0  0  0  0  0  0  0
   11.9532   23.2894   -0.9309 H   0  0  0  0  0  0  0  0  0  0  0  0
   11.9752   20.6690   -0.1992 C   0  0  0  0  0  0  0  0  0  0  0  0
   13.2263   20.0543    0.0793 N   0  0  0  0  0  0  0  0  0  0  0  0
   14.4323   20.7883    0.2443 C   0  0  0  0  0  0  0  0  0  0  0  0
   14.3744   22.0423    0.1298 O   0  0  0  0  0  0  0  0  0  0  0  0
   13.2982   19.0295    0.1969 H   0  0  0  0  0  0  0  0  0  0  0  0
   15.7075   20.1678    0.5326 C   0  0  0  0  0  0  0  0  0  0  0  0
   16.6914   20.8328    1.3116 N   0  0  0  0  0  0  0  0  0  0  0  0
   16.0101   19.0161    0.1129 O   0  0  0  0  0  0  0  0  0  0  0  0
   16.9139   21.8303    1.1726 H   0  0  0  0  0  0  0  0  0  0  0  0
   17.2266   20.3265    2.0577 H   0  0  0  0  0  0  0  0  0  0  0  0
   10.7662   19.7841   -0.1113 C   0  0  0  0  0  0  0  0  0  0  0  0
    9.4470   20.3775   -0.3751 C   0  0  0  0  0  0  0  0  0  0  0  0
    8.5308   19.7089   -1.3272 C   0  0  0  0  0  0  0  0  0  0  0  0
    7.4519   18.8772   -0.6641 C   0  0  0  0  0  0  0  0  0  0  0  0
    6.3147   18.5964   -1.6323 C   0  0  0  0  0  0  0  0  0  0  0  0
    5.1575   17.4281   -0.8533 S   0  0  0  0  0  0  0  0  0  0  0  0
    4.3304   18.1147    0.0606 H   0  0  0  0  0  0  0  0  0  0  0  0
   11.6599   25.5863    0.0625 C   0  0  0  0  0  0  0  0  0  0  0  0
   12.6637   25.5237   -1.0038 C   0  0  0  0  0  0  0  0  0  0  0  0
   13.9197   25.0214   -0.6936 C   0  0  0  0  0  0  0  0  0  0  0  0
   14.9184   24.9251   -1.6546 C   0  0  0  0  0  0  0  0  0  0  0  0
   14.5850   25.3580   -2.9325 C   0  0  0  0  0  0  0  0  0  0  0  0
   15.5641   25.2765   -3.9244 O   0  0  0  0  0  0  0  0  0  0  0  0
   13.3414   25.8559   -3.2437 C   0  0  0  0  0  0  0  0  0  0  0  0
   12.3531   25.9487   -2.2814 C   0  0  0  0  0  0  0  0  0  0  0  0
   16.1807   26.0905   -4.0482 H   0  0  0  0  0  0  0  0  0  0  0  0
    7.1879   24.2880    4.4187 N   0  0  0  0  0  0  0  0  0  0  0  0
    8.2540   23.7584    3.7130 C   0  0  0  0  0  0  0  0  0  0  0  0
    9.3588   23.6268    4.3041 O   0  0  0  0  0  0  0  0  0  0  0  0
    6.2657   24.4186    3.9139 H   0  0  0  0  0  0  0  0  0  0  0  0
    7.1641   24.7067    5.8068 C   0  0  0  0  0  0  0  0  0  0  0  0
    6.1762   22.4338    6.2244 N   0  0  0  0  0  0  0  0  0  0  0  0
    6.3569   23.7360    6.6417 C   0  0  0  0  0  0  0  0  0  0  0  0
    5.9214   24.2435    7.6722 O   0  0  0  0  0  0  0  0  0  0  0  0
    6.6847   22.2681    5.2328 H   0  0  0  0  0  0  0  0  0  0  0  0
    5.5232   21.2809    6.7526 C   0  0  0  0  0  0  0  0  0  0  0  0
    4.1394   21.0256    6.3006 C   0  0  0  0  0  0  0  0  0  0  0  0
    3.3225   20.3714    7.4728 C   0  0  0  0  0  0  0  0  0  0  0  0
    3.4507   22.3590    6.1175 C   0  0  0  0  0  0  0  0  0  0  0  0
    3.9420   20.2031    5.0783 C   0  0  0  0  0  0  0  0  0  0  0  0
    6.4677   20.1759    6.9152 C   0  0  0  0  0  0  0  0  0  0  0  0
    6.0330   18.8973    7.5188 C   0  0  0  0  0  0  0  0  0  0  0  0
    8.8732   20.9119    6.6294 C   0  0  0  0  0  0  0  0  0  0  0  0
    7.7816   20.5722    7.5816 C   0  0  0  0  0  0  0  0  0  0  0  0
    6.5114   25.9531    5.8646 O   0  0  0  0  0  0  0  0  0  0  0  0
    6.3491   26.7984    4.8096 C   0  0  0  0  0  0  0  0  0  0  0  0
    7.3812   27.2955    4.0630 C   0  0  0  0  0  0  0  0  0  0  0  0
    7.1983   28.1643    2.9781 C   0  0  0  0  0  0  0  0  0  0  0  0
    5.9320   28.5599    2.6142 C   0  0  0  0  0  0  0  0  0  0  0  0
    4.8954   28.0572    3.3681 C   0  0  0  0  0  0  0  0  0  0  0  0
    5.0658   27.2151    4.4209 C   0  0  0  0  0  0  0  0  0  0  0  0
    5.6507   29.4524    1.4993 C   0  0  0  0  0  0  0  0  0  0  0  0
    6.0016   29.1249    0.2252 C   0  0  0  0  0  0  0  0  0  0  0  0
    5.7227   29.9868   -0.8059 C   0  0  0  0  0  0  0  0  0  0  0  0
    5.0848   31.1948   -0.5701 C   0  0  0  0  0  0  0  0  0  0  0  0
    4.7270   31.5284    0.7307 C   0  0  0  0  0  0  0  0  0  0  0  0
    5.0076   30.6612    1.7673 C   0  0  0  0  0  0  0  0  0  0  0  0
    7.3342   22.0878    2.0867 C   0  0  0  0  0  0  0  0  0  0  0  0
    7.6844   20.9384    2.8973 C   0  0  0  0  0  0  0  0  0  0  0  0
    9.0813   20.7341    3.0683 O   0  0  0  0  0  0  0  0  0  0  0  0
    6.9733   20.1069    3.4661 O   0  0  0  0  0  0  0  0  0  0  0  0
    9.5155   19.8470    2.8099 H   0  0  0  0  0  0  0  0  0  0  0  0
 53 54  1  0  0  0
 54 51  1  0  0  0
 51 52  1  0  0  0
 51 46  1  0  0  0
 46 42  1  0  0  0
 42 43  1  0  0  0
 43 44  2  0  0  0
 43 41  1  0  0  0
 41 37  1  0  0  0
 37 38  1  0  0  0
 38 39  2  0  0  0
 38  1  1  0  0  0
  1 68  1  0  0  0
 68 69  1  0  0  0
 69 70  1  0  0  0
 69 71  2  0  0  0
  1  2  1  0  0  0
  2  3  1  0  0  0
  3  4  2  0  0  0
  3  6  1  0  0  0
  6 28  1  0  0  0
 28 29  1  0  0  0
 29 30  2  0  0  0
 30 31  1  0  0  0
 31 32  2  0  0  0
 32 33  1  0  0  0
 32 34  1  0  0  0
 34 35  2  0  0  0
  6  7  1  0  0  0
  7  8  1  0  0  0
  8  9  2  0  0  0
  8 11  1  0  0  0
 11 21  1  0  0  0
 21 22  1  0  0  0
 22 23  1  0  0  0
 23 24  1  0  0  0
 24 25  1  0  0  0
 25 26  1  0  0  0
 11 12  1  0  0  0
 12 13  1  0  0  0
 13 14  2  0  0  0
 13 16  1  0  0  0
 16 17  1  0  0  0
 16 18  2  0  0  0
 41 55  1  0  0  0
 55 56  1  0  0  0
 56 57  2  0  0  0
 57 58  1  0  0  0
 58 59  2  0  0  0
 59 60  1  0  0  0
 60 61  2  0  0  0
 59 62  1  0  0  0
 62 63  2  0  0  0
 63 64  1  0  0  0
 64 65  2  0  0  0
 65 66  1  0  0  0
 66 67  2  0  0  0
 46 47  1  0  0  0
 47 48  1  0  0  0
 47 49  1  0  0  0
 47 50  1  0  0  0
 35 29  1  0  0  0
 61 56  1  0  0  0
 67 62  1  0  0  0
 42 45  1  0  0  0
 37 40  1  0  0  0
 70 72  1  0  0  0
  2  5  1  0  0  0
 33 36  1  0  0  0
  7 10  1  0  0  0
 26 27  1  0  0  0
 12 15  1  0  0  0
 17 19  1  0  0  0
 17 20  1  0  0  0
M  END
> <minimizedAffinity>
-4.60517

> <CNNscore>
0.3444294631

> <CNNaffinity>
8.1254501343

> <CNN_VS>
2.7986445427

> <CNNaffinity_variance>
0.3730774522

$$$$
[H]OC(=O)C([H])([H])[C@@]([H])(C(=O)N([H])[C@@]([H])(Oc1c([H])c([H])c(-c2c([H])c([H])c([H])c([H])c2[H])c([H])c1[H])C(=O)N([H])[C@@]([H])(C(C([H])([H])[H])(C([H])([H])[H])C([H])([H])[H])[C@]([H])(C([H])([H])[H])C([H])([H])C([H])([H])[H])N([H])C(=O)[C@@]([H])(N([H])C(=O)[C@@]([H])(N([H])C(=O)C(=O)N([H])[H])C([H])([H])C([H])([H])C([H])([H])C([H])([H])C([H])([H])S[H])C([H])([H])c1c([H])c([H])c(O[H])c([H])c1[H]


 72 74  0  0  0  0  0  0  0  0999 V2000
   11.1023   20.8582    3.5891 C   0  0  0  0  0  0  0  0  0  0  0  0
   12.1369   21.3432    2.6528 N   0  0  0  0  0  0  0  0  0  0  0  0
   13.0399   20.3846    2.1267 C   0  0  0  0  0  0  0  0  0  0  0  0
   12.9565   19.1526    2.4791 O   0  0  0  0  0  0  0  0  0  0  0  0
   12.2158   22.3327    2.3828 H   0  0  0  0  0  0  0  0  0  0  0  0
   14.1279   20.6671    1.1647 C   0  0  0  0  0  0  0  0  0  0  0  0
   13.5952   21.4129    0.0192 N   0  0  0  0  0  0  0  0  0  0  0  0
   14.1950   21.2702   -1.2552 C   0  0  0  0  0  0  0  0  0  0  0  0
   15.2113   20.5074   -1.3744 O   0  0  0  0  0  0  0  0  0  0  0  0
   12.7833   22.0450    0.1225 H   0  0  0  0  0  0  0  0  0  0  0  0
   13.6699   21.9818   -2.4489 C   0  0  0  0  0  0  0  0  0  0  0  0
   12.8050   23.0290   -2.0290 N   0  0  0  0  0  0  0  0  0  0  0  0
   11.5246   22.7962   -1.4575 C   0  0  0  0  0  0  0  0  0  0  0  0
   11.1500   21.5994   -1.3287 O   0  0  0  0  0  0  0  0  0  0  0  0
   13.0953   24.0184   -2.1060 H   0  0  0  0  0  0  0  0  0  0  0  0
   10.6423   23.8583   -1.0242 C   0  0  0  0  0  0  0  0  0  0  0  0
    9.3681   23.5756   -0.4640 N   0  0  0  0  0  0  0  0  0  0  0  0
   10.9540   25.0781   -1.1190 O   0  0  0  0  0  0  0  0  0  0  0  0
    8.7396   22.8660   -0.8704 H   0  0  0  0  0  0  0  0  0  0  0  0
    9.0240   24.0837    0.3861 H   0  0  0  0  0  0  0  0  0  0  0  0
   14.7753   22.3695   -3.3870 C   0  0  0  0  0  0  0  0  0  0  0  0
   15.2923   23.7446   -3.3251 C   0  0  0  0  0  0  0  0  0  0  0  0
   15.0116   24.6736   -4.4438 C   0  0  0  0  0  0  0  0  0  0  0  0
   14.3215   25.9551   -4.0228 C   0  0  0  0  0  0  0  0  0  0  0  0
   14.8920   27.1473   -4.7729 C   0  0  0  0  0  0  0  0  0  0  0  0
   16.6225   27.3858   -4.2640 S   0  0  0  0  0  0  0  0  0  0  0  0
   17.4478   26.4561   -4.9314 H   0  0  0  0  0  0  0  0  0  0  0  0
   15.0838   21.6013    1.9053 C   0  0  0  0  0  0  0  0  0  0  0  0
   15.4653   22.7857    1.1305 C   0  0  0  0  0  0  0  0  0  0  0  0
   14.4785   23.7092    0.8155 C   0  0  0  0  0  0  0  0  0  0  0  0
   14.7676   24.8587    0.0907 C   0  0  0  0  0  0  0  0  0  0  0  0
   16.0925   25.0248   -0.2947 C   0  0  0  0  0  0  0  0  0  0  0  0
   16.4203   26.1686   -1.0250 O   0  0  0  0  0  0  0  0  0  0  0  0
   17.0732   24.1121    0.0160 C   0  0  0  0  0  0  0  0  0  0  0  0
   16.7770   22.9705    0.7374 C   0  0  0  0  0  0  0  0  0  0  0  0
   16.3599   26.1086   -2.0502 H   0  0  0  0  0  0  0  0  0  0  0  0
    8.6236   20.8800    3.8990 N   0  0  0  0  0  0  0  0  0  0  0  0
    9.7479   21.2421    3.1780 C   0  0  0  0  0  0  0  0  0  0  0  0
    9.5949   21.9251    2.1304 O   0  0  0  0  0  0  0  0  0  0  0  0
    8.7523   20.2869    4.7673 H   0  0  0  0  0  0  0  0  0  0  0  0
    7.2417   21.2130    3.6125 C   0  0  0  0  0  0  0  0  0  0  0  0
    6.4770   20.5291    1.3182 N   0  0  0  0  0  0  0  0  0  0  0  0
    6.6414   20.2108    2.6501 C   0  0  0  0  0  0  0  0  0  0  0  0
    6.3469   19.1486    3.1925 O   0  0  0  0  0  0  0  0  0  0  0  0
    6.8283   21.5815    1.1226 H   0  0  0  0  0  0  0  0  0  0  0  0
    5.9905   19.8456    0.1646 C   0  0  0  0  0  0  0  0  0  0  0  0
    4.8713   20.4746   -0.5677 C   0  0  0  0  0  0  0  0  0  0  0  0
    3.6945   20.7654    0.4323 C   0  0  0  0  0  0  0  0  0  0  0  0
    5.3036   21.8614   -0.9867 C   0  0  0  0  0  0  0  0  0  0  0  0
    4.3160   19.7601   -1.7469 C   0  0  0  0  0  0  0  0  0  0  0  0
    7.0861   19.2036   -0.5613 C   0  0  0  0  0  0  0  0  0  0  0  0
    7.9796   19.9986   -1.4319 C   0  0  0  0  0  0  0  0  0  0  0  0
    7.2832   16.6967   -0.8557 C   0  0  0  0  0  0  0  0  0  0  0  0
    6.6715   17.9618   -1.3446 C   0  0  0  0  0  0  0  0  0  0  0  0
    7.2295   22.4675    2.9731 O   0  0  0  0  0  0  0  0  0  0  0  0
    6.9096   23.6465    3.5745 C   0  0  0  0  0  0  0  0  0  0  0  0
    7.2550   24.8742    3.0815 C   0  0  0  0  0  0  0  0  0  0  0  0
    6.9171   26.0801    3.7115 C   0  0  0  0  0  0  0  0  0  0  0  0
    6.2019   26.0701    4.8866 C   0  0  0  0  0  0  0  0  0  0  0  0
    5.8558   24.8322    5.3799 C   0  0  0  0  0  0  0  0  0  0  0  0
    6.1804   23.6597    4.7744 C   0  0  0  0  0  0  0  0  0  0  0  0
    5.8034   27.2728    5.6031 C   0  0  0  0  0  0  0  0  0  0  0  0
    5.7037   28.4736    4.9691 C   0  0  0  0  0  0  0  0  0  0  0  0
    5.3251   29.5905    5.6713 C   0  0  0  0  0  0  0  0  0  0  0  0
    5.0404   29.5161    7.0260 C   0  0  0  0  0  0  0  0  0  0  0  0
    5.1424   28.2901    7.6725 C   0  0  0  0  0  0  0  0  0  0  0  0
    5.5232   27.1671    6.9658 C   0  0  0  0  0  0  0  0  0  0  0  0
   11.4822   21.3018    4.9865 C   0  0  0  0  0  0  0  0  0  0  0  0
   10.5429   20.9930    6.0465 C   0  0  0  0  0  0  0  0  0  0  0  0
   10.2886   19.6059    6.2308 O   0  0  0  0  0  0  0  0  0  0  0  0
    9.9271   21.7320    6.8179 O   0  0  0  0  0  0  0  0  0  0  0  0
    9.3370   19.2387    6.1884 H   0  0  0  0  0  0  0  0  0  0  0  0
 53 54  1  0  0  0
 54 51  1  0  0  0
 51 52  1  0  0  0
 51 46  1  0  0  0
 46 42  1  0  0  0
 42 43  1  0  0  0
 43 44  2  0  0  0
 43 41  1  0  0  0
 41 37  1  0  0  0
 37 38  1  0  0  0
 38 39  2  0  0  0
 38  1  1  0  0  0
  1 68  1  0  0  0
 68 69  1  0  0  0
 69 70  1  0  0  0
 69 71  2  0  0  0
  1  2  1  0  0  0
  2  3  1  0  0  0
  3  4  2  0  0  0
  3  6  1  0  0  0
  6 28  1  0  0  0
 28 29  1  0  0  0
 29 30  2  0  0  0
 30 31  1  0  0  0
 31 32  2  0  0  0
 32 33  1  0  0  0
 32 34  1  0  0  0
 34 35  2  0  0  0
  6  7  1  0  0  0
  7  8  1  0  0  0
  8  9  2  0  0  0
  8 11  1  0  0  0
 11 21  1  0  0  0
 21 22  1  0  0  0
 22 23  1  0  0  0
 23 24  1  0  0  0
 24 25  1  0  0  0
 25 26  1  0  0  0
 11 12  1  0  0  0
 12 13  1  0  0  0
 13 14  2  0  0  0
 13 16  1  0  0  0
 16 17  1  0  0  0
 16 18  2  0  0  0
 41 55  1  0  0  0
 55 56  1  0  0  0
 56 57  2  0  0  0
 57 58  1  0  0  0
 58 59  2  0  0  0
 59 60  1  0  0  0
 60 61  2  0  0  0
 59 62  1  0  0  0
 62 63  2  0  0  0
 63 64  1  0  0  0
 64 65  2  0  0  0
 65 66  1  0  0  0
 66 67  2  0  0  0
 46 47  1  0  0  0
 47 48  1  0  0  0
 47 49  1  0  0  0
 47 50  1  0  0  0
 35 29  1  0  0  0
 61 56  1  0  0  0
 67 62  1  0  0  0
 42 45  1  0  0  0
 37 40  1  0  0  0
 70 72  1  0  0  0
  2  5  1  0  0  0
 33 36  1  0  0  0
  7 10  1  0  0  0
 26 27  1  0  0  0
 12 15  1  0  0  0
 17 19  1  0  0  0
 17 20  1  0  0  0
M  END
> <minimizedAffinity>
-3.47936

> <CNNscore>
0.3218622208

> <CNNaffinity>
7.7575178146

> <CNN_VS>
2.4968519211

> <CNNaffinity_variance>
0.0350387692

$$$$
[H]OC(=O)C([H])([H])[C@@]([H])(C(=O)N([H])[C@@]([H])(Oc1c([H])c([H])c(-c2c([H])c([H])c([H])c([H])c2[H])c([H])c1[H])C(=O)N([H])[C@@]([H])(C(C([H])([H])[H])(C([H])([H])[H])C([H])([H])[H])[C@]([H])(C([H])([H])[H])C([H])([H])C([H])([H])[H])N([H])C(=O)[C@@]([H])(N([H])C(=O)[C@@]([H])(N([H])C(=O)C(=O)N([H])[H])C([H])([H])C([H])([H])C([H])([H])C([H])([H])C([H])([H])S[H])C([H])([H])c1c([H])c([H])c(O[H])c([H])c1[H]


 72 74  0  0  0  0  0  0  0  0999 V2000
    5.8188   20.4276    2.2082 C   0  0  0  0  0  0  0  0  0  0  0  0
    6.2466   21.0334    0.9307 N   0  0  0  0  0  0  0  0  0  0  0  0
    7.2203   20.3348    0.1724 C   0  0  0  0  0  0  0  0  0  0  0  0
    7.7122   19.2313    0.6072 O   0  0  0  0  0  0  0  0  0  0  0  0
    5.8661   21.9261    0.5892 H   0  0  0  0  0  0  0  0  0  0  0  0
    7.7609   20.7651   -1.1359 C   0  0  0  0  0  0  0  0  0  0  0  0
    9.1941   21.0514   -1.0098 N   0  0  0  0  0  0  0  0  0  0  0  0
    9.6392   22.0282   -0.0867 C   0  0  0  0  0  0  0  0  0  0  0  0
    8.7726   22.6613    0.6039 O   0  0  0  0  0  0  0  0  0  0  0  0
    9.8929   20.5504   -1.5843 H   0  0  0  0  0  0  0  0  0  0  0  0
   11.0825   22.3286    0.0963 C   0  0  0  0  0  0  0  0  0  0  0  0
   11.4834   21.9314    1.4011 N   0  0  0  0  0  0  0  0  0  0  0  0
   11.3850   20.5931    1.8696 C   0  0  0  0  0  0  0  0  0  0  0  0
   10.9127   19.7302    1.0813 O   0  0  0  0  0  0  0  0  0  0  0  0
   11.8914   22.6151    2.0608 H   0  0  0  0  0  0  0  0  0  0  0  0
   11.7960   20.1826    3.1951 C   0  0  0  0  0  0  0  0  0  0  0  0
   11.9353   21.1251    4.2485 N   0  0  0  0  0  0  0  0  0  0  0  0
   12.0491   18.9797    3.4832 O   0  0  0  0  0  0  0  0  0  0  0  0
   12.3939   22.0379    4.1058 H   0  0  0  0  0  0  0  0  0  0  0  0
   11.5740   20.9206    5.2113 H   0  0  0  0  0  0  0  0  0  0  0  0
   11.9028   21.7952   -1.0417 C   0  0  0  0  0  0  0  0  0  0  0  0
   13.3354   22.1238   -1.0826 C   0  0  0  0  0  0  0  0  0  0  0  0
   13.8003   23.2224   -1.9602 C   0  0  0  0  0  0  0  0  0  0  0  0
   14.3636   24.4132   -1.2118 C   0  0  0  0  0  0  0  0  0  0  0  0
   15.7065   24.8284   -1.7895 C   0  0  0  0  0  0  0  0  0  0  0  0
   15.5444   24.9834   -3.5951 S   0  0  0  0  0  0  0  0  0  0  0  0
   14.9255   26.2106   -3.9143 H   0  0  0  0  0  0  0  0  0  0  0  0
    7.6235   19.5453   -2.0459 C   0  0  0  0  0  0  0  0  0  0  0  0
    6.3911   18.7832   -1.8245 C   0  0  0  0  0  0  0  0  0  0  0  0
    6.4977   17.4995   -1.3081 C   0  0  0  0  0  0  0  0  0  0  0  0
    5.3728   16.7212   -1.0650 C   0  0  0  0  0  0  0  0  0  0  0  0
    4.1470   17.3022   -1.3674 C   0  0  0  0  0  0  0  0  0  0  0  0
    2.9942   16.5493   -1.1364 O   0  0  0  0  0  0  0  0  0  0  0  0
    4.0374   18.5741   -1.8787 C   0  0  0  0  0  0  0  0  0  0  0  0
    5.1620   19.3420   -2.1180 C   0  0  0  0  0  0  0  0  0  0  0  0
    2.6543   15.9569   -1.9056 H   0  0  0  0  0  0  0  0  0  0  0  0
    7.5815   21.6761    3.4629 N   0  0  0  0  0  0  0  0  0  0  0  0
    6.8489   20.5220    3.2478 C   0  0  0  0  0  0  0  0  0  0  0  0
    7.0815   19.5193    3.9742 O   0  0  0  0  0  0  0  0  0  0  0  0
    7.4003   22.5111    2.8367 H   0  0  0  0  0  0  0  0  0  0  0  0
    8.6045   21.9026    4.4654 C   0  0  0  0  0  0  0  0  0  0  0  0
    6.6966   22.7099    5.8883 N   0  0  0  0  0  0  0  0  0  0  0  0
    7.9755   22.1996    5.8097 C   0  0  0  0  0  0  0  0  0  0  0  0
    8.7191   21.9348    6.7511 O   0  0  0  0  0  0  0  0  0  0  0  0
    6.2722   22.8591    4.8553 H   0  0  0  0  0  0  0  0  0  0  0  0
    5.8109   23.0685    6.9474 C   0  0  0  0  0  0  0  0  0  0  0  0
    5.3316   24.4662    6.9790 C   0  0  0  0  0  0  0  0  0  0  0  0
    6.4450   25.3831    7.6028 C   0  0  0  0  0  0  0  0  0  0  0  0
    5.2462   24.9667    5.5550 C   0  0  0  0  0  0  0  0  0  0  0  0
    4.0488   24.7515    7.6737 C   0  0  0  0  0  0  0  0  0  0  0  0
    4.9052   21.9648    7.2653 C   0  0  0  0  0  0  0  0  0  0  0  0
    5.4393   20.6454    7.6681 C   0  0  0  0  0  0  0  0  0  0  0  0
    3.6609   20.2921    5.8289 C   0  0  0  0  0  0  0  0  0  0  0  0
    3.8281   21.7197    6.2132 C   0  0  0  0  0  0  0  0  0  0  0  0
    9.3318   23.0455    4.0811 O   0  0  0  0  0  0  0  0  0  0  0  0
    8.7880   24.2681    3.8294 C   0  0  0  0  0  0  0  0  0  0  0  0
    8.9564   25.3598    4.6353 C   0  0  0  0  0  0  0  0  0  0  0  0
    8.3911   26.6133    4.3622 C   0  0  0  0  0  0  0  0  0  0  0  0
    7.6221   26.7950    3.2361 C   0  0  0  0  0  0  0  0  0  0  0  0
    7.4548   25.6936    2.4271 C   0  0  0  0  0  0  0  0  0  0  0  0
    7.9997   24.4760    2.6861 C   0  0  0  0  0  0  0  0  0  0  0  0
    7.0036   28.0615    2.8727 C   0  0  0  0  0  0  0  0  0  0  0  0
    6.9702   29.1079    3.7432 C   0  0  0  0  0  0  0  0  0  0  0  0
    6.3803   30.2902    3.3719 C   0  0  0  0  0  0  0  0  0  0  0  0
    5.8133   30.4382    2.1155 C   0  0  0  0  0  0  0  0  0  0  0  0
    5.8477   29.3697    1.2276 C   0  0  0  0  0  0  0  0  0  0  0  0
    6.4412   28.1808    1.6015 C   0  0  0  0  0  0  0  0  0  0  0  0
    5.3392   19.0186    1.9276 C   0  0  0  0  0  0  0  0  0  0  0  0
    3.9138   18.7808    2.0394 C   0  0  0  0  0  0  0  0  0  0  0  0
    3.5591   17.6479    2.8225 O   0  0  0  0  0  0  0  0  0  0  0  0
    2.9547   19.3976    1.5700 O   0  0  0  0  0  0  0  0  0  0  0  0
    2.9775   16.9046    2.4333 H   0  0  0  0  0  0  0  0  0  0  0  0
 53 54  1  0  0  0
 54 51  1  0  0  0
 51 52  1  0  0  0
 51 46  1  0  0  0
 46 42  1  0  0  0
 42 43  1  0  0  0
 43 44  2  0  0  0
 43 41  1  0  0  0
 41 37  1  0  0  0
 37 38  1  0  0  0
 38 39  2  0  0  0
 38  1  1  0  0  0
  1 68  1  0  0  0
 68 69  1  0  0  0
 69 70  1  0  0  0
 69 71  2  0  0  0
  1  2  1  0  0  0
  2  3  1  0  0  0
  3  4  2  0  0  0
  3  6  1  0  0  0
  6 28  1  0  0  0
 28 29  1  0  0  0
 29 30  2  0  0  0
 30 31  1  0  0  0
 31 32  2  0  0  0
 32 33  1  0  0  0
 32 34  1  0  0  0
 34 35  2  0  0  0
  6  7  1  0  0  0
  7  8  1  0  0  0
  8  9  2  0  0  0
  8 11  1  0  0  0
 11 21  1  0  0  0
 21 22  1  0  0  0
 22 23  1  0  0  0
 23 24  1  0  0  0
 24 25  1  0  0  0
 25 26  1  0  0  0
 11 12  1  0  0  0
 12 13  1  0  0  0
 13 14  2  0  0  0
 13 16  1  0  0  0
 16 17  1  0  0  0
 16 18  2  0  0  0
 41 55  1  0  0  0
 55 56  1  0  0  0
 56 57  2  0  0  0
 57 58  1  0  0  0
 58 59  2  0  0  0
 59 60  1  0  0  0
 60 61  2  0  0  0
 59 62  1  0  0  0
 62 63  2  0  0  0
 63 64  1  0  0  0
 64 65  2  0  0  0
 65 66  1  0  0  0
 66 67  2  0  0  0
 46 47  1  0  0  0
 47 48  1  0  0  0
 47 49  1  0  0  0
 47 50  1  0  0  0
 35 29  1  0  0  0
 61 56  1  0  0  0
 67 62  1  0  0  0
 42 45  1  0  0  0
 37 40  1  0  0  0
 70 72  1  0  0  0
  2  5  1  0  0  0
 33 36  1  0  0  0
  7 10  1  0  0  0
 26 27  1  0  0  0
 12 15  1  0  0  0
 17 19  1  0  0  0
 17 20  1  0  0  0
M  END
> <minimizedAffinity>
-6.66052

> <CNNscore>
0.3021345437

> <CNNaffinity>
7.8371491432

> <CNN_VS>
2.3678734303

> <CNNaffinity_variance>
0.2276134491

$$$$
[H]OC(=O)C([H])([H])[C@@]([H])(C(=O)N([H])[C@@]([H])(Oc1c([H])c([H])c(-c2c([H])c([H])c([H])c([H])c2[H])c([H])c1[H])C(=O)N([H])[C@@]([H])(C(C([H])([H])[H])(C([H])([H])[H])C([H])([H])[H])[C@]([H])(C([H])([H])[H])C([H])([H])C([H])([H])[H])N([H])C(=O)[C@@]([H])(N([H])C(=O)[C@@]([H])(N([H])C(=O)C(=O)N([H])[H])C([H])([H])C([H])([H])C([H])([H])C([H])([H])C([H])([H])S[H])C([H])([H])c1c([H])c([H])c(O[H])c([H])c1[H]


 72 74  0  0  0  0  0  0  0  0999 V2000
    7.7906   23.3727    2.1586 C   0  0  0  0  0  0  0  0  0  0  0  0
    6.8509   22.2561    2.3872 N   0  0  0  0  0  0  0  0  0  0  0  0
    7.4045   20.9591    2.5368 C   0  0  0  0  0  0  0  0  0  0  0  0
    8.6735   20.7817    2.4531 O   0  0  0  0  0  0  0  0  0  0  0  0
    5.8327   22.3941    2.4374 H   0  0  0  0  0  0  0  0  0  0  0  0
    6.6353   19.7211    2.7908 C   0  0  0  0  0  0  0  0  0  0  0  0
    6.7880   19.3221    4.1942 N   0  0  0  0  0  0  0  0  0  0  0  0
    6.1980   20.1029    5.2172 C   0  0  0  0  0  0  0  0  0  0  0  0
    5.5613   21.1606    4.8933 O   0  0  0  0  0  0  0  0  0  0  0  0
    7.3206   18.4749    4.4553 H   0  0  0  0  0  0  0  0  0  0  0  0
    6.3008   19.7199    6.6489 C   0  0  0  0  0  0  0  0  0  0  0  0
    5.1841   18.9137    7.0009 N   0  0  0  0  0  0  0  0  0  0  0  0
    5.1069   17.5246    6.7094 C   0  0  0  0  0  0  0  0  0  0  0  0
    6.0799   16.9985    6.1049 O   0  0  0  0  0  0  0  0  0  0  0  0
    4.3814   19.3158    7.5137 H   0  0  0  0  0  0  0  0  0  0  0  0
    3.9747   16.6985    7.0697 C   0  0  0  0  0  0  0  0  0  0  0  0
    2.8175   17.2572    7.6748 N   0  0  0  0  0  0  0  0  0  0  0  0
    3.9544   15.4524    6.8677 O   0  0  0  0  0  0  0  0  0  0  0  0
    2.8814   17.9543    8.4323 H   0  0  0  0  0  0  0  0  0  0  0  0
    1.8550   16.9759    7.3683 H   0  0  0  0  0  0  0  0  0  0  0  0
    7.6542   19.1568    6.9706 C   0  0  0  0  0  0  0  0  0  0  0  0
    8.8418   19.8792    6.4913 C   0  0  0  0  0  0  0  0  0  0  0  0
    9.7530   20.5062    7.4762 C   0  0  0  0  0  0  0  0  0  0  0  0
    9.5215   21.9905    7.6728 C   0  0  0  0  0  0  0  0  0  0  0  0
   10.4789   22.8044    6.8181 C   0  0  0  0  0  0  0  0  0  0  0  0
   11.0677   21.7644    5.4462 S   0  0  0  0  0  0  0  0  0  0  0  0
   10.0810   21.6999    4.4397 H   0  0  0  0  0  0  0  0  0  0  0  0
    5.1717   20.1115    2.5902 C   0  0  0  0  0  0  0  0  0  0  0  0
    4.6145   19.6636    1.3105 C   0  0  0  0  0  0  0  0  0  0  0  0
    5.4630   19.0359    0.4095 C   0  0  0  0  0  0  0  0  0  0  0  0
    5.0038   18.5782   -0.8193 C   0  0  0  0  0  0  0  0  0  0  0  0
    3.6558   18.7853   -1.0870 C   0  0  0  0  0  0  0  0  0  0  0  0
    3.1586   18.3387   -2.3127 O   0  0  0  0  0  0  0  0  0  0  0  0
    2.8118   19.4064   -0.1964 C   0  0  0  0  0  0  0  0  0  0  0  0
    3.2770   19.8593    1.0242 C   0  0  0  0  0  0  0  0  0  0  0  0
    3.1903   18.9957   -3.1036 H   0  0  0  0  0  0  0  0  0  0  0  0
    9.6281   23.8953    0.5490 N   0  0  0  0  0  0  0  0  0  0  0  0
    8.3919   23.3362    0.8215 C   0  0  0  0  0  0  0  0  0  0  0  0
    7.7651   22.7785   -0.1184 O   0  0  0  0  0  0  0  0  0  0  0  0
   10.1438   24.3833    1.3352 H   0  0  0  0  0  0  0  0  0  0  0  0
   10.3366   23.9061   -0.7162 C   0  0  0  0  0  0  0  0  0  0  0  0
   12.0188   22.1300   -0.1400 N   0  0  0  0  0  0  0  0  0  0  0  0
   11.0040   22.5703   -0.9637 C   0  0  0  0  0  0  0  0  0  0  0  0
   10.5386   21.9793   -1.9350 O   0  0  0  0  0  0  0  0  0  0  0  0
   12.2344   22.8966    0.6570 H   0  0  0  0  0  0  0  0  0  0  0  0
   12.8240   20.9552   -0.0617 C   0  0  0  0  0  0  0  0  0  0  0  0
   14.2885   21.1461   -0.0070 C   0  0  0  0  0  0  0  0  0  0  0  0
   14.9289   20.0049    0.8630 C   0  0  0  0  0  0  0  0  0  0  0  0
   14.8506   20.8718   -1.3834 C   0  0  0  0  0  0  0  0  0  0  0  0
   14.8073   22.4512    0.4801 C   0  0  0  0  0  0  0  0  0  0  0  0
   12.1763   19.9336    0.7608 C   0  0  0  0  0  0  0  0  0  0  0  0
   10.8983   19.3230    0.3341 C   0  0  0  0  0  0  0  0  0  0  0  0
   12.1013   19.1669    3.1725 C   0  0  0  0  0  0  0  0  0  0  0  0
   12.0315   20.3164    2.2304 C   0  0  0  0  0  0  0  0  0  0  0  0
   11.3556   24.8736   -0.6255 O   0  0  0  0  0  0  0  0  0  0  0  0
   12.2079   25.2057   -1.6341 C   0  0  0  0  0  0  0  0  0  0  0  0
   13.3538   24.5181   -1.9237 C   0  0  0  0  0  0  0  0  0  0  0  0
   14.2212   24.8715   -2.9669 C   0  0  0  0  0  0  0  0  0  0  0  0
   13.9402   25.9581   -3.7623 C   0  0  0  0  0  0  0  0  0  0  0  0
   12.7857   26.6478   -3.4677 C   0  0  0  0  0  0  0  0  0  0  0  0
   11.9409   26.3109   -2.4581 C   0  0  0  0  0  0  0  0  0  0  0  0
   14.7805   26.3912   -4.8691 C   0  0  0  0  0  0  0  0  0  0  0  0
   14.8941   25.6477   -6.0040 C   0  0  0  0  0  0  0  0  0  0  0  0
   15.6940   26.0822   -7.0313 C   0  0  0  0  0  0  0  0  0  0  0  0
   16.3938   27.2747   -6.9321 C   0  0  0  0  0  0  0  0  0  0  0  0
   16.2774   28.0331   -5.7733 C   0  0  0  0  0  0  0  0  0  0  0  0
   15.4728   27.5957   -4.7405 C   0  0  0  0  0  0  0  0  0  0  0  0
    8.7913   23.3904    3.2953 C   0  0  0  0  0  0  0  0  0  0  0  0
    9.1125   24.6857    3.8610 C   0  0  0  0  0  0  0  0  0  0  0  0
    8.8316   24.8151    5.2491 O   0  0  0  0  0  0  0  0  0  0  0  0
    9.5906   25.6961    3.3404 O   0  0  0  0  0  0  0  0  0  0  0  0
    8.2226   25.5591    5.5922 H   0  0  0  0  0  0  0  0  0  0  0  0
 53 54  1  0  0  0
 54 51  1  0  0  0
 51 52  1  0  0  0
 51 46  1  0  0  0
 46 42  1  0  0  0
 42 43  1  0  0  0
 43 44  2  0  0  0
 43 41  1  0  0  0
 41 37  1  0  0  0
 37 38  1  0  0  0
 38 39  2  0  0  0
 38  1  1  0  0  0
  1 68  1  0  0  0
 68 69  1  0  0  0
 69 70  1  0  0  0
 69 71  2  0  0  0
  1  2  1  0  0  0
  2  3  1  0  0  0
  3  4  2  0  0  0
  3  6  1  0  0  0
  6 28  1  0  0  0
 28 29  1  0  0  0
 29 30  2  0  0  0
 30 31  1  0  0  0
 31 32  2  0  0  0
 32 33  1  0  0  0
 32 34  1  0  0  0
 34 35  2  0  0  0
  6  7  1  0  0  0
  7  8  1  0  0  0
  8  9  2  0  0  0
  8 11  1  0  0  0
 11 21  1  0  0  0
 21 22  1  0  0  0
 22 23  1  0  0  0
 23 24  1  0  0  0
 24 25  1  0  0  0
 25 26  1  0  0  0
 11 12  1  0  0  0
 12 13  1  0  0  0
 13 14  2  0  0  0
 13 16  1  0  0  0
 16 17  1  0  0  0
 16 18  2  0  0  0
 41 55  1  0  0  0
 55 56  1  0  0  0
 56 57  2  0  0  0
 57 58  1  0  0  0
 58 59  2  0  0  0
 59 60  1  0  0  0
 60 61  2  0  0  0
 59 62  1  0  0  0
 62 63  2  0  0  0
 63 64  1  0  0  0
 64 65  2  0  0  0
 65 66  1  0  0  0
 66 67  2  0  0  0
 46 47  1  0  0  0
 47 48  1  0  0  0
 47 49  1  0  0  0
 47 50  1  0  0  0
 35 29  1  0  0  0
 61 56  1  0  0  0
 67 62  1  0  0  0
 42 45  1  0  0  0
 37 40  1  0  0  0
 70 72  1  0  0  0
  2  5  1  0  0  0
 33 36  1  0  0  0
  7 10  1  0  0  0
 26 27  1  0  0  0
 12 15  1  0  0  0
 17 19  1  0  0  0
 17 20  1  0  0  0
M  END
> <minimizedAffinity>
-4.71479

> <CNNscore>
0.3011220992

> <CNNaffinity>
7.6598815918

> <CNN_VS>
2.3065595627

> <CNNaffinity_variance>
0.5815425515

$$$$
[H]OC(=O)C([H])([H])[C@@]([H])(C(=O)N([H])[C@@]([H])(Oc1c([H])c([H])c(-c2c([H])c([H])c([H])c([H])c2[H])c([H])c1[H])C(=O)N([H])[C@@]([H])(C(C([H])([H])[H])(C([H])([H])[H])C([H])([H])[H])[C@]([H])(C([H])([H])[H])C([H])([H])C([H])([H])[H])N([H])C(=O)[C@@]([H])(N([H])C(=O)[C@@]([H])(N([H])C(=O)C(=O)N([H])[H])C([H])([H])C([H])([H])C([H])([H])C([H])([H])C([H])([H])S[H])C([H])([H])c1c([H])c([H])c(O[H])c([H])c1[H]


 72 74  0  0  0  0  0  0  0  0999 V2000
    8.4169   23.4135    1.8109 C   0  0  0  0  0  0  0  0  0  0  0  0
    9.0094   23.2495    0.4677 N   0  0  0  0  0  0  0  0  0  0  0  0
    9.3958   21.9407    0.0817 C   0  0  0  0  0  0  0  0  0  0  0  0
    9.2464   20.9549    0.8908 O   0  0  0  0  0  0  0  0  0  0  0  0
    9.1456   24.0410   -0.1751 H   0  0  0  0  0  0  0  0  0  0  0  0
    9.9863   21.5694   -1.2230 C   0  0  0  0  0  0  0  0  0  0  0  0
   11.4070   21.9344   -1.2458 N   0  0  0  0  0  0  0  0  0  0  0  0
   11.7861   23.2758   -1.4932 C   0  0  0  0  0  0  0  0  0  0  0  0
   10.8749   24.1407   -1.7178 O   0  0  0  0  0  0  0  0  0  0  0  0
   12.1442   21.2278   -1.0824 H   0  0  0  0  0  0  0  0  0  0  0  0
   13.2110   23.6964   -1.4950 C   0  0  0  0  0  0  0  0  0  0  0  0
   14.0078   22.6593   -0.9378 N   0  0  0  0  0  0  0  0  0  0  0  0
   14.5117   22.6960    0.3907 C   0  0  0  0  0  0  0  0  0  0  0  0
   14.2351   23.7051    1.0938 O   0  0  0  0  0  0  0  0  0  0  0  0
   14.2335   21.8123   -1.4863 H   0  0  0  0  0  0  0  0  0  0  0  0
   15.3192   21.6409    0.9642 C   0  0  0  0  0  0  0  0  0  0  0  0
   14.9111   20.2820    0.8985 N   0  0  0  0  0  0  0  0  0  0  0  0
   16.4165   21.8683    1.5458 O   0  0  0  0  0  0  0  0  0  0  0  0
   13.9383   19.9956    1.0868 H   0  0  0  0  0  0  0  0  0  0  0  0
   15.5912   19.5220    0.6552 H   0  0  0  0  0  0  0  0  0  0  0  0
   13.6313   24.2055   -2.8427 C   0  0  0  0  0  0  0  0  0  0  0  0
   13.5821   25.6546   -3.0871 C   0  0  0  0  0  0  0  0  0  0  0  0
   14.7549   26.3259   -3.6930 C   0  0  0  0  0  0  0  0  0  0  0  0
   14.4347   27.1143   -4.9465 C   0  0  0  0  0  0  0  0  0  0  0  0
   15.6455   27.1886   -5.8620 C   0  0  0  0  0  0  0  0  0  0  0  0
   15.4602   25.9476   -7.1797 S   0  0  0  0  0  0  0  0  0  0  0  0
   14.5723   26.4283   -8.1653 H   0  0  0  0  0  0  0  0  0  0  0  0
    9.9122   20.0440   -1.2758 C   0  0  0  0  0  0  0  0  0  0  0  0
    8.5480   19.5269   -1.4175 C   0  0  0  0  0  0  0  0  0  0  0  0
    7.6201   20.3023   -2.0985 C   0  0  0  0  0  0  0  0  0  0  0  0
    6.3109   19.8734   -2.2783 C   0  0  0  0  0  0  0  0  0  0  0  0
    5.9917   18.6325   -1.7400 C   0  0  0  0  0  0  0  0  0  0  0  0
    4.6848   18.1689   -1.9010 O   0  0  0  0  0  0  0  0  0  0  0  0
    6.9086   17.8611   -1.0651 C   0  0  0  0  0  0  0  0  0  0  0  0
    8.2095   18.2954   -0.8902 C   0  0  0  0  0  0  0  0  0  0  0  0
    4.0025   18.4150   -1.1715 H   0  0  0  0  0  0  0  0  0  0  0  0
    8.7604   22.0654    3.8857 N   0  0  0  0  0  0  0  0  0  0  0  0
    9.2653   22.8593    2.8709 C   0  0  0  0  0  0  0  0  0  0  0  0
   10.4995   23.1122    2.8645 O   0  0  0  0  0  0  0  0  0  0  0  0
    7.7190   21.8720    3.9022 H   0  0  0  0  0  0  0  0  0  0  0  0
    9.4925   21.4429    4.9716 C   0  0  0  0  0  0  0  0  0  0  0  0
    7.8655   20.2481    6.4689 N   0  0  0  0  0  0  0  0  0  0  0  0
    8.7842   20.1905    5.4417 C   0  0  0  0  0  0  0  0  0  0  0  0
    9.1231   19.1894    4.8155 O   0  0  0  0  0  0  0  0  0  0  0  0
    7.7761   21.3033    6.8534 H   0  0  0  0  0  0  0  0  0  0  0  0
    7.0190   19.3069    7.1263 C   0  0  0  0  0  0  0  0  0  0  0  0
    5.6484   19.1500    6.5959 C   0  0  0  0  0  0  0  0  0  0  0  0
    5.6998   18.3240    5.2600 C   0  0  0  0  0  0  0  0  0  0  0  0
    4.8860   18.2337    7.5257 C   0  0  0  0  0  0  0  0  0  0  0  0
    4.8455   20.3776    6.3550 C   0  0  0  0  0  0  0  0  0  0  0  0
    7.7822   18.1407    7.5700 C   0  0  0  0  0  0  0  0  0  0  0  0
    9.2568   18.2008    7.6715 C   0  0  0  0  0  0  0  0  0  0  0  0
    8.5936   16.1359    6.2538 C   0  0  0  0  0  0  0  0  0  0  0  0
    7.4269   16.8489    6.8404 C   0  0  0  0  0  0  0  0  0  0  0  0
    9.5051   22.3476    6.0506 O   0  0  0  0  0  0  0  0  0  0  0  0
    8.6869   23.4292    6.1713 C   0  0  0  0  0  0  0  0  0  0  0  0
    7.5606   23.4526    6.9463 C   0  0  0  0  0  0  0  0  0  0  0  0
    6.7284   24.5748    7.0618 C   0  0  0  0  0  0  0  0  0  0  0  0
    7.0259   25.7303    6.3771 C   0  0  0  0  0  0  0  0  0  0  0  0
    8.1606   25.7030    5.5980 C   0  0  0  0  0  0  0  0  0  0  0  0
    8.9713   24.6187    5.4814 C   0  0  0  0  0  0  0  0  0  0  0  0
    6.2221   26.9420    6.4443 C   0  0  0  0  0  0  0  0  0  0  0  0
    5.8228   27.4606    7.6382 C   0  0  0  0  0  0  0  0  0  0  0  0
    5.0657   28.6050    7.6699 C   0  0  0  0  0  0  0  0  0  0  0  0
    4.6977   29.2468    6.4975 C   0  0  0  0  0  0  0  0  0  0  0  0
    5.1057   28.7169    5.2793 C   0  0  0  0  0  0  0  0  0  0  0  0
    5.8672   27.5660    5.2480 C   0  0  0  0  0  0  0  0  0  0  0  0
    7.0091   22.8558    1.7793 C   0  0  0  0  0  0  0  0  0  0  0  0
    6.4536   22.4158    3.0437 C   0  0  0  0  0  0  0  0  0  0  0  0
    6.2859   21.0086    3.1626 O   0  0  0  0  0  0  0  0  0  0  0  0
    6.1025   23.0576    4.0364 O   0  0  0  0  0  0  0  0  0  0  0  0
    5.3735   20.6076    3.3832 H   0  0  0  0  0  0  0  0  0  0  0  0
 53 54  1  0  0  0
 54 51  1  0  0  0
 51 52  1  0  0  0
 51 46  1  0  0  0
 46 42  1  0  0  0
 42 43  1  0  0  0
 43 44  2  0  0  0
 43 41  1  0  0  0
 41 37  1  0  0  0
 37 38  1  0  0  0
 38 39  2  0  0  0
 38  1  1  0  0  0
  1 68  1  0  0  0
 68 69  1  0  0  0
 69 70  1  0  0  0
 69 71  2  0  0  0
  1  2  1  0  0  0
  2  3  1  0  0  0
  3  4  2  0  0  0
  3  6  1  0  0  0
  6 28  1  0  0  0
 28 29  1  0  0  0
 29 30  2  0  0  0
 30 31  1  0  0  0
 31 32  2  0  0  0
 32 33  1  0  0  0
 32 34  1  0  0  0
 34 35  2  0  0  0
  6  7  1  0  0  0
  7  8  1  0  0  0
  8  9  2  0  0  0
  8 11  1  0  0  0
 11 21  1  0  0  0
 21 22  1  0  0  0
 22 23  1  0  0  0
 23 24  1  0  0  0
 24 25  1  0  0  0
 25 26  1  0  0  0
 11 12  1  0  0  0
 12 13  1  0  0  0
 13 14  2  0  0  0
 13 16  1  0  0  0
 16 17  1  0  0  0
 16 18  2  0  0  0
 41 55  1  0  0  0
 55 56  1  0  0  0
 56 57  2  0  0  0
 57 58  1  0  0  0
 58 59  2  0  0  0
 59 60  1  0  0  0
 60 61  2  0  0  0
 59 62  1  0  0  0
 62 63  2  0  0  0
 63 64  1  0  0  0
 64 65  2  0  0  0
 65 66  1  0  0  0
 66 67  2  0  0  0
 46 47  1  0  0  0
 47 48  1  0  0  0
 47 49  1  0  0  0
 47 50  1  0  0  0
 35 29  1  0  0  0
 61 56  1  0  0  0
 67 62  1  0  0  0
 42 45  1  0  0  0
 37 40  1  0  0  0
 70 72  1  0  0  0
  2  5  1  0  0  0
 33 36  1  0  0  0
  7 10  1  0  0  0
 26 27  1  0  0  0
 12 15  1  0  0  0
 17 19  1  0  0  0
 17 20  1  0  0  0
M  END
> <minimizedAffinity>
-5.70464

> <CNNscore>
0.2928827405

> <CNNaffinity>
7.8673539162

> <CNN_VS>
2.3042120934

> <CNNaffinity_variance>
0.3969682157

$$$$
[H]OC(=O)C([H])([H])[C@@]([H])(C(=O)N([H])[C@@]([H])(Oc1c([H])c([H])c(-c2c([H])c([H])c([H])c([H])c2[H])c([H])c1[H])C(=O)N([H])[C@@]([H])(C(C([H])([H])[H])(C([H])([H])[H])C([H])([H])[H])[C@]([H])(C([H])([H])[H])C([H])([H])C([H])([H])[H])N([H])C(=O)[C@@]([H])(N([H])C(=O)[C@@]([H])(N([H])C(=O)C(=O)N([H])[H])C([H])([H])C([H])([H])C([H])([H])C([H])([H])C([H])([H])S[H])C([H])([H])c1c([H])c([H])c(O[H])c([H])c1[H]


 72 74  0  0  0  0  0  0  0  0999 V2000
    6.7399   22.5312    0.8838 C   0  0  0  0  0  0  0  0  0  0  0  0
    7.4205   21.8757   -0.2516 N   0  0  0  0  0  0  0  0  0  0  0  0
    8.1149   20.6681    0.0145 C   0  0  0  0  0  0  0  0  0  0  0  0
    8.1548   20.1917    1.2062 O   0  0  0  0  0  0  0  0  0  0  0  0
    7.4039   22.2652   -1.2036 H   0  0  0  0  0  0  0  0  0  0  0  0
    8.8390   19.8553   -0.9874 C   0  0  0  0  0  0  0  0  0  0  0  0
   10.2318   19.6726   -0.5643 N   0  0  0  0  0  0  0  0  0  0  0  0
   10.9989   20.7925   -0.1625 C   0  0  0  0  0  0  0  0  0  0  0  0
   10.4635   21.9504   -0.2016 O   0  0  0  0  0  0  0  0  0  0  0  0
   10.6691   18.7356   -0.5517 H   0  0  0  0  0  0  0  0  0  0  0  0
   12.4027   20.6505    0.3027 C   0  0  0  0  0  0  0  0  0  0  0  0
   12.4352   19.8095    1.4484 N   0  0  0  0  0  0  0  0  0  0  0  0
   11.8928   20.1895    2.7060 C   0  0  0  0  0  0  0  0  0  0  0  0
   11.3664   21.3315    2.7954 O   0  0  0  0  0  0  0  0  0  0  0  0
   12.8439   18.8611    1.3976 H   0  0  0  0  0  0  0  0  0  0  0  0
   11.9191   19.3354    3.8740 C   0  0  0  0  0  0  0  0  0  0  0  0
   11.1073   19.6103    5.0066 N   0  0  0  0  0  0  0  0  0  0  0  0
   12.6554   18.3124    3.9480 O   0  0  0  0  0  0  0  0  0  0  0  0
   11.0053   20.5643    5.3852 H   0  0  0  0  0  0  0  0  0  0  0  0
   10.5830   18.8462    5.4971 H   0  0  0  0  0  0  0  0  0  0  0  0
   13.3189   20.2730   -0.8244 C   0  0  0  0  0  0  0  0  0  0  0  0
   14.5636   21.0365   -0.9967 C   0  0  0  0  0  0  0  0  0  0  0  0
   15.3424   21.4292    0.2001 C   0  0  0  0  0  0  0  0  0  0  0  0
   15.1480   22.8731    0.6159 C   0  0  0  0  0  0  0  0  0  0  0  0
   16.4874   23.5640    0.8112 C   0  0  0  0  0  0  0  0  0  0  0  0
   16.5802   24.9903   -0.3147 S   0  0  0  0  0  0  0  0  0  0  0  0
   15.8437   26.0684    0.2203 H   0  0  0  0  0  0  0  0  0  0  0  0
    8.1716   18.4814   -0.9456 C   0  0  0  0  0  0  0  0  0  0  0  0
    6.7761   18.4925   -1.3941 C   0  0  0  0  0  0  0  0  0  0  0  0
    5.8896   17.6041   -0.8018 C   0  0  0  0  0  0  0  0  0  0  0  0
    4.5508   17.5631   -1.1707 C   0  0  0  0  0  0  0  0  0  0  0  0
    4.1584   18.4579   -2.1591 C   0  0  0  0  0  0  0  0  0  0  0  0
    2.8200   18.4451   -2.5557 O   0  0  0  0  0  0  0  0  0  0  0  0
    5.0338   19.3400   -2.7480 C   0  0  0  0  0  0  0  0  0  0  0  0
    6.3648   19.3742   -2.3753 C   0  0  0  0  0  0  0  0  0  0  0  0
    2.5620   17.8183   -3.3295 H   0  0  0  0  0  0  0  0  0  0  0  0
    8.9130   22.9771    2.0324 N   0  0  0  0  0  0  0  0  0  0  0  0
    7.6427   23.3840    1.6638 C   0  0  0  0  0  0  0  0  0  0  0  0
    7.2537   24.5295    2.0157 O   0  0  0  0  0  0  0  0  0  0  0  0
    9.2303   22.0053    1.7549 H   0  0  0  0  0  0  0  0  0  0  0  0
    9.9031   23.7294    2.7784 C   0  0  0  0  0  0  0  0  0  0  0  0
    8.7939   23.2469    4.9814 N   0  0  0  0  0  0  0  0  0  0  0  0
    9.3425   24.1684    4.1141 C   0  0  0  0  0  0  0  0  0  0  0  0
    9.4444   25.3788    4.2976 O   0  0  0  0  0  0  0  0  0  0  0  0
    8.8309   22.2157    4.5292 H   0  0  0  0  0  0  0  0  0  0  0  0
    8.2199   23.2987    6.2862 C   0  0  0  0  0  0  0  0  0  0  0  0
    7.0035   24.1213    6.4536 C   0  0  0  0  0  0  0  0  0  0  0  0
    6.1710   23.5760    7.6697 C   0  0  0  0  0  0  0  0  0  0  0  0
    7.4252   25.4940    6.9265 C   0  0  0  0  0  0  0  0  0  0  0  0
    6.0900   24.2661    5.2899 C   0  0  0  0  0  0  0  0  0  0  0  0
    8.3419   22.0066    6.9607 C   0  0  0  0  0  0  0  0  0  0  0  0
    9.5861   21.6450    7.6746 C   0  0  0  0  0  0  0  0  0  0  0  0
    6.6559   20.1807    6.4775 C   0  0  0  0  0  0  0  0  0  0  0  0
    7.9478   20.8128    6.0965 C   0  0  0  0  0  0  0  0  0  0  0  0
   10.1958   24.8942    2.0433 O   0  0  0  0  0  0  0  0  0  0  0  0
   10.9424   24.9313    0.9052 C   0  0  0  0  0  0  0  0  0  0  0  0
   10.4836   24.5420   -0.3227 C   0  0  0  0  0  0  0  0  0  0  0  0
   11.2641   24.5874   -1.4864 C   0  0  0  0  0  0  0  0  0  0  0  0
   12.5618   25.0406   -1.4319 C   0  0  0  0  0  0  0  0  0  0  0  0
   13.0202   25.4318   -0.1940 C   0  0  0  0  0  0  0  0  0  0  0  0
   12.2691   25.3902    0.9377 C   0  0  0  0  0  0  0  0  0  0  0  0
   13.4393   25.1272   -2.5900 C   0  0  0  0  0  0  0  0  0  0  0  0
   13.3848   26.1887   -3.4409 C   0  0  0  0  0  0  0  0  0  0  0  0
   14.2254   26.2427   -4.5246 C   0  0  0  0  0  0  0  0  0  0  0  0
   15.1362   25.2267   -4.7693 C   0  0  0  0  0  0  0  0  0  0  0  0
   15.1913   24.1436   -3.9003 C   0  0  0  0  0  0  0  0  0  0  0  0
   14.3457   24.0897   -2.8106 C   0  0  0  0  0  0  0  0  0  0  0  0
    6.0319   21.4640    1.6923 C   0  0  0  0  0  0  0  0  0  0  0  0
    4.8583   20.8620    1.0912 C   0  0  0  0  0  0  0  0  0  0  0  0
    4.4333   19.6492    1.7004 O   0  0  0  0  0  0  0  0  0  0  0  0
    4.1640   21.2261    0.1394 O   0  0  0  0  0  0  0  0  0  0  0  0
    4.3332   18.7951    1.1505 H   0  0  0  0  0  0  0  0  0  0  0  0
 53 54  1  0  0  0
 54 51  1  0  0  0
 51 52  1  0  0  0
 51 46  1  0  0  0
 46 42  1  0  0  0
 42 43  1  0  0  0
 43 44  2  0  0  0
 43 41  1  0  0  0
 41 37  1  0  0  0
 37 38  1  0  0  0
 38 39  2  0  0  0
 38  1  1  0  0  0
  1 68  1  0  0  0
 68 69  1  0  0  0
 69 70  1  0  0  0
 69 71  2  0  0  0
  1  2  1  0  0  0
  2  3  1  0  0  0
  3  4  2  0  0  0
  3  6  1  0  0  0
  6 28  1  0  0  0
 28 29  1  0  0  0
 29 30  2  0  0  0
 30 31  1  0  0  0
 31 32  2  0  0  0
 32 33  1  0  0  0
 32 34  1  0  0  0
 34 35  2  0  0  0
  6  7  1  0  0  0
  7  8  1  0  0  0
  8  9  2  0  0  0
  8 11  1  0  0  0
 11 21  1  0  0  0
 21 22  1  0  0  0
 22 23  1  0  0  0
 23 24  1  0  0  0
 24 25  1  0  0  0
 25 26  1  0  0  0
 11 12  1  0  0  0
 12 13  1  0  0  0
 13 14  2  0  0  0
 13 16  1  0  0  0
 16 17  1  0  0  0
 16 18  2  0  0  0
 41 55  1  0  0  0
 55 56  1  0  0  0
 56 57  2  0  0  0
 57 58  1  0  0  0
 58 59  2  0  0  0
 59 60  1  0  0  0
 60 61  2  0  0  0
 59 62  1  0  0  0
 62 63  2  0  0  0
 63 64  1  0  0  0
 64 65  2  0  0  0
 65 66  1  0  0  0
 66 67  2  0  0  0
 46 47  1  0  0  0
 47 48  1  0  0  0
 47 49  1  0  0  0
 47 50  1  0  0  0
 35 29  1  0  0  0
 61 56  1  0  0  0
 67 62  1  0  0  0
 42 45  1  0  0  0
 37 40  1  0  0  0
 70 72  1  0  0  0
  2  5  1  0  0  0
 33 36  1  0  0  0
  7 10  1  0  0  0
 26 27  1  0  0  0
 12 15  1  0  0  0
 17 19  1  0  0  0
 17 20  1  0  0  0
M  END
> <minimizedAffinity>
-6.78651

> <CNNscore>
0.2859678566

> <CNNaffinity>
8.1130971909

> <CNN_VS>
2.3200850487

> <CNNaffinity_variance>
0.2429156601

$$$$
[H]OC(=O)C([H])([H])[C@@]([H])(C(=O)N([H])[C@@]([H])(Oc1c([H])c([H])c(-c2c([H])c([H])c([H])c([H])c2[H])c([H])c1[H])C(=O)N([H])[C@@]([H])(C(C([H])([H])[H])(C([H])([H])[H])C([H])([H])[H])[C@]([H])(C([H])([H])[H])C([H])([H])C([H])([H])[H])N([H])C(=O)[C@@]([H])(N([H])C(=O)[C@@]([H])(N([H])C(=O)C(=O)N([H])[H])C([H])([H])C([H])([H])C([H])([H])C([H])([H])C([H])([H])S[H])C([H])([H])c1c([H])c([H])c(O[H])c([H])c1[H]


 72 74  0  0  0  0  0  0  0  0999 V2000
    7.4574   23.3112    2.4095 C   0  0  0  0  0  0  0  0  0  0  0  0
    8.8466   22.9493    2.0609 N   0  0  0  0  0  0  0  0  0  0  0  0
    9.7697   24.0103    1.8784 C   0  0  0  0  0  0  0  0  0  0  0  0
    9.3874   25.2305    1.9963 O   0  0  0  0  0  0  0  0  0  0  0  0
    9.1503   21.9729    1.9492 H   0  0  0  0  0  0  0  0  0  0  0  0
   11.2031   23.8540    1.5469 C   0  0  0  0  0  0  0  0  0  0  0  0
   11.3553   22.8985    0.4442 N   0  0  0  0  0  0  0  0  0  0  0  0
   10.9534   21.5522    0.6177 C   0  0  0  0  0  0  0  0  0  0  0  0
   10.4860   21.1911    1.7491 O   0  0  0  0  0  0  0  0  0  0  0  0
   11.7519   23.1893   -0.4655 H   0  0  0  0  0  0  0  0  0  0  0  0
   11.0604   20.5581   -0.4811 C   0  0  0  0  0  0  0  0  0  0  0  0
   12.4274   20.3948   -0.8355 N   0  0  0  0  0  0  0  0  0  0  0  0
   13.1479   21.3456   -1.6082 C   0  0  0  0  0  0  0  0  0  0  0  0
   12.5303   22.3743   -1.9948 O   0  0  0  0  0  0  0  0  0  0  0  0
   12.9624   19.5698   -0.5156 H   0  0  0  0  0  0  0  0  0  0  0  0
   14.5407   21.1865   -1.9677 C   0  0  0  0  0  0  0  0  0  0  0  0
   15.4373   20.4600   -1.1396 N   0  0  0  0  0  0  0  0  0  0  0  0
   15.0276   21.6780   -3.0238 O   0  0  0  0  0  0  0  0  0  0  0  0
   15.4453   20.5733   -0.1145 H   0  0  0  0  0  0  0  0  0  0  0  0
   16.1243   19.7812   -1.5478 H   0  0  0  0  0  0  0  0  0  0  0  0
   10.3029   19.3026   -0.1611 C   0  0  0  0  0  0  0  0  0  0  0  0
    8.8361   19.3289   -0.2605 C   0  0  0  0  0  0  0  0  0  0  0  0
    8.2042   19.8638   -1.4885 C   0  0  0  0  0  0  0  0  0  0  0  0
    6.8807   19.2126   -1.8348 C   0  0  0  0  0  0  0  0  0  0  0  0
    6.1546   18.7629   -0.5778 C   0  0  0  0  0  0  0  0  0  0  0  0
    6.0525   16.9463   -0.5788 S   0  0  0  0  0  0  0  0  0  0  0  0
    7.2873   16.3994   -0.1701 H   0  0  0  0  0  0  0  0  0  0  0  0
   11.6436   25.2202    1.0233 C   0  0  0  0  0  0  0  0  0  0  0  0
   12.6844   25.1468   -0.0063 C   0  0  0  0  0  0  0  0  0  0  0  0
   13.9232   24.6319    0.3488 C   0  0  0  0  0  0  0  0  0  0  0  0
   14.9548   24.5249   -0.5756 C   0  0  0  0  0  0  0  0  0  0  0  0
   14.6719   24.9605   -1.8647 C   0  0  0  0  0  0  0  0  0  0  0  0
   15.6850   24.8685   -2.8208 O   0  0  0  0  0  0  0  0  0  0  0  0
   13.4454   25.4708   -2.2205 C   0  0  0  0  0  0  0  0  0  0  0  0
   12.4242   25.5742   -1.2943 C   0  0  0  0  0  0  0  0  0  0  0  0
   16.3140   25.6761   -2.9226 H   0  0  0  0  0  0  0  0  0  0  0  0
    6.1041   23.7878    4.4544 N   0  0  0  0  0  0  0  0  0  0  0  0
    7.3239   23.7516    3.8019 C   0  0  0  0  0  0  0  0  0  0  0  0
    8.3529   24.1130    4.4327 O   0  0  0  0  0  0  0  0  0  0  0  0
    5.2369   23.5049    3.9158 H   0  0  0  0  0  0  0  0  0  0  0  0
    5.8440   24.1791    5.8262 C   0  0  0  0  0  0  0  0  0  0  0  0
    5.5674   26.5869    5.1611 N   0  0  0  0  0  0  0  0  0  0  0  0
    6.1148   25.6558    6.0188 C   0  0  0  0  0  0  0  0  0  0  0  0
    6.8395   25.8840    6.9842 O   0  0  0  0  0  0  0  0  0  0  0  0
    4.9581   26.0728    4.3649 H   0  0  0  0  0  0  0  0  0  0  0  0
    5.5856   28.0098    5.0633 C   0  0  0  0  0  0  0  0  0  0  0  0
    5.7605   28.5890    3.7149 C   0  0  0  0  0  0  0  0  0  0  0  0
    6.5422   29.9473    3.8304 C   0  0  0  0  0  0  0  0  0  0  0  0
    6.7250   27.7130    2.9480 C   0  0  0  0  0  0  0  0  0  0  0  0
    4.5467   28.8178    2.8878 C   0  0  0  0  0  0  0  0  0  0  0  0
    4.6495   28.6094    6.0141 C   0  0  0  0  0  0  0  0  0  0  0  0
    5.1243   29.1128    7.3215 C   0  0  0  0  0  0  0  0  0  0  0  0
    3.2725   27.2813    7.6723 C   0  0  0  0  0  0  0  0  0  0  0  0
    3.4018   27.7708    6.2732 C   0  0  0  0  0  0  0  0  0  0  0  0
    6.7463   23.4766    6.6480 O   0  0  0  0  0  0  0  0  0  0  0  0
    6.7470   22.1273    6.8304 C   0  0  0  0  0  0  0  0  0  0  0  0
    5.6376   21.4006    7.1634 C   0  0  0  0  0  0  0  0  0  0  0  0
    5.6536   20.0108    7.3465 C   0  0  0  0  0  0  0  0  0  0  0  0
    6.8248   19.3060    7.1920 C   0  0  0  0  0  0  0  0  0  0  0  0
    7.9397   20.0409    6.8566 C   0  0  0  0  0  0  0  0  0  0  0  0
    7.9311   21.3880    6.6779 C   0  0  0  0  0  0  0  0  0  0  0  0
    6.9305   17.8636    7.3564 C   0  0  0  0  0  0  0  0  0  0  0  0
    5.8250   17.0689    7.3564 C   0  0  0  0  0  0  0  0  0  0  0  0
    5.9561   15.7116    7.5131 C   0  0  0  0  0  0  0  0  0  0  0  0
    7.2051   15.1317    7.6727 C   0  0  0  0  0  0  0  0  0  0  0  0
    8.3330   15.9435    7.6726 C   0  0  0  0  0  0  0  0  0  0  0  0
    8.2006   17.3084    7.5149 C   0  0  0  0  0  0  0  0  0  0  0  0
    6.5566   22.1545    2.0291 C   0  0  0  0  0  0  0  0  0  0  0  0
    6.4216   21.0867    2.9999 C   0  0  0  0  0  0  0  0  0  0  0  0
    7.6252   20.3840    3.2829 O   0  0  0  0  0  0  0  0  0  0  0  0
    5.4370   20.6850    3.6242 O   0  0  0  0  0  0  0  0  0  0  0  0
    7.6788   19.3712    3.1674 H   0  0  0  0  0  0  0  0  0  0  0  0
 53 54  1  0  0  0
 54 51  1  0  0  0
 51 52  1  0  0  0
 51 46  1  0  0  0
 46 42  1  0  0  0
 42 43  1  0  0  0
 43 44  2  0  0  0
 43 41  1  0  0  0
 41 37  1  0  0  0
 37 38  1  0  0  0
 38 39  2  0  0  0
 38  1  1  0  0  0
  1 68  1  0  0  0
 68 69  1  0  0  0
 69 70  1  0  0  0
 69 71  2  0  0  0
  1  2  1  0  0  0
  2  3  1  0  0  0
  3  4  2  0  0  0
  3  6  1  0  0  0
  6 28  1  0  0  0
 28 29  1  0  0  0
 29 30  2  0  0  0
 30 31  1  0  0  0
 31 32  2  0  0  0
 32 33  1  0  0  0
 32 34  1  0  0  0
 34 35  2  0  0  0
  6  7  1  0  0  0
  7  8  1  0  0  0
  8  9  2  0  0  0
  8 11  1  0  0  0
 11 21  1  0  0  0
 21 22  1  0  0  0
 22 23  1  0  0  0
 23 24  1  0  0  0
 24 25  1  0  0  0
 25 26  1  0  0  0
 11 12  1  0  0  0
 12 13  1  0  0  0
 13 14  2  0  0  0
 13 16  1  0  0  0
 16 17  1  0  0  0
 16 18  2  0  0  0
 41 55  1  0  0  0
 55 56  1  0  0  0
 56 57  2  0  0  0
 57 58  1  0  0  0
 58 59  2  0  0  0
 59 60  1  0  0  0
 60 61  2  0  0  0
 59 62  1  0  0  0
 62 63  2  0  0  0
 63 64  1  0  0  0
 64 65  2  0  0  0
 65 66  1  0  0  0
 66 67  2  0  0  0
 46 47  1  0  0  0
 47 48  1  0  0  0
 47 49  1  0  0  0
 47 50  1  0  0  0
 35 29  1  0  0  0
 61 56  1  0  0  0
 67 62  1  0  0  0
 42 45  1  0  0  0
 37 40  1  0  0  0
 70 72  1  0  0  0
  2  5  1  0  0  0
 33 36  1  0  0  0
  7 10  1  0  0  0
 26 27  1  0  0  0
 12 15  1  0  0  0
 17 19  1  0  0  0
 17 20  1  0  0  0
M  END
> <minimizedAffinity>
-4.95246

> <CNNscore>
0.2599930763

> <CNNaffinity>
7.4558067322

> <CNN_VS>
1.9384580851

> <CNNaffinity_variance>
0.6287512183

$$$$
[H]OC(=O)C([H])([H])[C@@]([H])(C(=O)N([H])[C@@]([H])(Oc1c([H])c([H])c(-c2c([H])c([H])c([H])c([H])c2[H])c([H])c1[H])C(=O)N([H])[C@@]([H])(C(C([H])([H])[H])(C([H])([H])[H])C([H])([H])[H])[C@]([H])(C([H])([H])[H])C([H])([H])C([H])([H])[H])N([H])C(=O)[C@@]([H])(N([H])C(=O)[C@@]([H])(N([H])C(=O)C(=O)N([H])[H])C([H])([H])C([H])([H])C([H])([H])C([H])([H])C([H])([H])S[H])C([H])([H])c1c([H])c([H])c(O[H])c([H])c1[H]


 72 74  0  0  0  0  0  0  0  0999 V2000
    7.7632   22.9021    3.0502 C   0  0  0  0  0  0  0  0  0  0  0  0
    9.1169   22.6301    2.5252 N   0  0  0  0  0  0  0  0  0  0  0  0
    9.9029   23.7463    2.1411 C   0  0  0  0  0  0  0  0  0  0  0  0
    9.4297   24.9363    2.2352 O   0  0  0  0  0  0  0  0  0  0  0  0
    9.4910   21.6763    2.4331 H   0  0  0  0  0  0  0  0  0  0  0  0
   11.2836   23.6834    1.6133 C   0  0  0  0  0  0  0  0  0  0  0  0
   11.3347   22.7696    0.4668 N   0  0  0  0  0  0  0  0  0  0  0  0
   11.1749   21.3773    0.6677 C   0  0  0  0  0  0  0  0  0  0  0  0
   11.0132   20.9423    1.8566 O   0  0  0  0  0  0  0  0  0  0  0  0
   11.4848   23.1228   -0.4934 H   0  0  0  0  0  0  0  0  0  0  0  0
   11.1887   20.4185   -0.4670 C   0  0  0  0  0  0  0  0  0  0  0  0
   12.5131   20.3061   -0.9711 N   0  0  0  0  0  0  0  0  0  0  0  0
   13.1512   21.3366   -1.7135 C   0  0  0  0  0  0  0  0  0  0  0  0
   12.4969   22.3917   -1.9318 O   0  0  0  0  0  0  0  0  0  0  0  0
   13.0784   19.4594   -0.7903 H   0  0  0  0  0  0  0  0  0  0  0  0
   14.5007   21.2291   -2.2249 C   0  0  0  0  0  0  0  0  0  0  0  0
   14.8193   21.6207   -3.5525 N   0  0  0  0  0  0  0  0  0  0  0  0
   15.4558   20.7875   -1.5271 O   0  0  0  0  0  0  0  0  0  0  0  0
   14.2181   21.3723   -4.3529 H   0  0  0  0  0  0  0  0  0  0  0  0
   15.6822   22.1783   -3.7618 H   0  0  0  0  0  0  0  0  0  0  0  0
   10.5037   19.1325   -0.1072 C   0  0  0  0  0  0  0  0  0  0  0  0
    9.4146   18.6567   -0.9728 C   0  0  0  0  0  0  0  0  0  0  0  0
    8.0108   18.8813   -0.5581 C   0  0  0  0  0  0  0  0  0  0  0  0
    7.0050   18.7360   -1.6819 C   0  0  0  0  0  0  0  0  0  0  0  0
    5.7349   18.0645   -1.1866 C   0  0  0  0  0  0  0  0  0  0  0  0
    6.1914   16.6571   -0.1275 S   0  0  0  0  0  0  0  0  0  0  0  0
    6.5529   17.1230    1.1543 H   0  0  0  0  0  0  0  0  0  0  0  0
   11.5734   25.0872    1.0837 C   0  0  0  0  0  0  0  0  0  0  0  0
   12.6173   25.1229    0.0552 C   0  0  0  0  0  0  0  0  0  0  0  0
   12.2711   25.5594   -1.2158 C   0  0  0  0  0  0  0  0  0  0  0  0
   13.2090   25.6270   -2.2386 C   0  0  0  0  0  0  0  0  0  0  0  0
   14.5020   25.2349   -1.9131 C   0  0  0  0  0  0  0  0  0  0  0  0
   15.4715   25.2892   -2.9161 O   0  0  0  0  0  0  0  0  0  0  0  0
   14.8489   24.8022   -0.6546 C   0  0  0  0  0  0  0  0  0  0  0  0
   13.9093   24.7376    0.3576 C   0  0  0  0  0  0  0  0  0  0  0  0
   15.5990   24.4496   -3.4966 H   0  0  0  0  0  0  0  0  0  0  0  0
    6.6073   22.6374    5.2488 N   0  0  0  0  0  0  0  0  0  0  0  0
    7.7318   22.9713    4.5147 C   0  0  0  0  0  0  0  0  0  0  0  0
    8.7621   23.3492    5.1335 O   0  0  0  0  0  0  0  0  0  0  0  0
    5.7348   22.3413    4.7260 H   0  0  0  0  0  0  0  0  0  0  0  0
    6.4566   22.6422    6.6910 C   0  0  0  0  0  0  0  0  0  0  0  0
    5.7242   20.2472    6.9006 N   0  0  0  0  0  0  0  0  0  0  0  0
    5.4665   21.5833    7.1261 C   0  0  0  0  0  0  0  0  0  0  0  0
    4.4734   22.0571    7.6725 O   0  0  0  0  0  0  0  0  0  0  0  0
    6.7094   20.1247    6.3679 H   0  0  0  0  0  0  0  0  0  0  0  0
    5.0543   19.0219    7.1912 C   0  0  0  0  0  0  0  0  0  0  0  0
    3.9326   18.6426    6.3067 C   0  0  0  0  0  0  0  0  0  0  0  0
    4.4941   18.2664    4.8881 C   0  0  0  0  0  0  0  0  0  0  0  0
    3.3669   17.3305    6.8006 C   0  0  0  0  0  0  0  0  0  0  0  0
    2.8227   19.6149    6.1266 C   0  0  0  0  0  0  0  0  0  0  0  0
    5.9988   18.0121    7.6684 C   0  0  0  0  0  0  0  0  0  0  0  0
    7.4570   18.2468    7.5849 C   0  0  0  0  0  0  0  0  0  0  0  0
    6.9226   15.9375    6.5494 C   0  0  0  0  0  0  0  0  0  0  0  0
    5.7310   16.6076    7.1365 C   0  0  0  0  0  0  0  0  0  0  0  0
    5.9228   23.8921    7.0594 O   0  0  0  0  0  0  0  0  0  0  0  0
    5.8514   24.9806    6.2445 C   0  0  0  0  0  0  0  0  0  0  0  0
    6.8719   25.8742    6.0720 C   0  0  0  0  0  0  0  0  0  0  0  0
    6.7840   26.9901    5.2279 C   0  0  0  0  0  0  0  0  0  0  0  0
    5.6299   27.2329    4.5199 C   0  0  0  0  0  0  0  0  0  0  0  0
    4.6046   26.3310    4.6960 C   0  0  0  0  0  0  0  0  0  0  0  0
    4.6832   25.2477    5.5127 C   0  0  0  0  0  0  0  0  0  0  0  0
    5.4548   28.3616    3.6176 C   0  0  0  0  0  0  0  0  0  0  0  0
    4.2646   28.5946    2.9989 C   0  0  0  0  0  0  0  0  0  0  0  0
    4.1296   29.6675    2.1536 C   0  0  0  0  0  0  0  0  0  0  0  0
    5.1931   30.5247    1.9172 C   0  0  0  0  0  0  0  0  0  0  0  0
    6.4077   30.2862    2.5490 C   0  0  0  0  0  0  0  0  0  0  0  0
    6.5429   29.2071    3.3991 C   0  0  0  0  0  0  0  0  0  0  0  0
    6.8098   21.8897    2.4502 C   0  0  0  0  0  0  0  0  0  0  0  0
    6.7349   21.8423    1.0035 C   0  0  0  0  0  0  0  0  0  0  0  0
    5.5057   21.3472    0.4871 O   0  0  0  0  0  0  0  0  0  0  0  0
    7.5587   22.1610    0.1431 O   0  0  0  0  0  0  0  0  0  0  0  0
    5.4897   20.5506   -0.1510 H   0  0  0  0  0  0  0  0  0  0  0  0
 53 54  1  0  0  0
 54 51  1  0  0  0
 51 52  1  0  0  0
 51 46  1  0  0  0
 46 42  1  0  0  0
 42 43  1  0  0  0
 43 44  2  0  0  0
 43 41  1  0  0  0
 41 37  1  0  0  0
 37 38  1  0  0  0
 38 39  2  0  0  0
 38  1  1  0  0  0
  1 68  1  0  0  0
 68 69  1  0  0  0
 69 70  1  0  0  0
 69 71  2  0  0  0
  1  2  1  0  0  0
  2  3  1  0  0  0
  3  4  2  0  0  0
  3  6  1  0  0  0
  6 28  1  0  0  0
 28 29  1  0  0  0
 29 30  2  0  0  0
 30 31  1  0  0  0
 31 32  2  0  0  0
 32 33  1  0  0  0
 32 34  1  0  0  0
 34 35  2  0  0  0
  6  7  1  0  0  0
  7  8  1  0  0  0
  8  9  2  0  0  0
  8 11  1  0  0  0
 11 21  1  0  0  0
 21 22  1  0  0  0
 22 23  1  0  0  0
 23 24  1  0  0  0
 24 25  1  0  0  0
 25 26  1  0  0  0
 11 12  1  0  0  0
 12 13  1  0  0  0
 13 14  2  0  0  0
 13 16  1  0  0  0
 16 17  1  0  0  0
 16 18  2  0  0  0
 41 55  1  0  0  0
 55 56  1  0  0  0
 56 57  2  0  0  0
 57 58  1  0  0  0
 58 59  2  0  0  0
 59 60  1  0  0  0
 60 61  2  0  0  0
 59 62  1  0  0  0
 62 63  2  0  0  0
 63 64  1  0  0  0
 64 65  2  0  0  0
 65 66  1  0  0  0
 66 67  2  0  0  0
 46 47  1  0  0  0
 47 48  1  0  0  0
 47 49  1  0  0  0
 47 50  1  0  0  0
 35 29  1  0  0  0
 61 56  1  0  0  0
 67 62  1  0  0  0
 42 45  1  0  0  0
 37 40  1  0  0  0
 70 72  1  0  0  0
  2  5  1  0  0  0
 33 36  1  0  0  0
  7 10  1  0  0  0
 26 27  1  0  0  0
 12 15  1  0  0  0
 17 19  1  0  0  0
 17 20  1  0  0  0
M  END
> <minimizedAffinity>
-5.12657

> <CNNscore>
0.2357026786

> <CNNaffinity>
7.5188112259

> <CNN_VS>
1.7722039223

> <CNNaffinity_variance>
0.6060065031

$$$$
[H]OC(=O)C([H])([H])N([H])C(=O)[C@@]([H])(N([H])C(=O)[C@@]1([H])N(C(=O)[C@@]([H])(N([H])C(=O)OC([H])([H])c2c([H])c([H])c([H])c([H])c2[H])C([H])([H])c2c([H])c([H])c([H])c([H])c2[H])C([H])([H])C([H])([H])C1([H])[H])C([H])([H])c1c([H])n([H])c2c([H])c([H])c(O[H])c([H])c12


 54 58  0  0  0  0  0  0  0  0999 V2000
    8.5577   21.0101   -0.9385 N   0  0  0  0  0  0  0  0  0  0  0  0
    9.4476   20.0255   -0.5219 C   0  0  0  0  0  0  0  0  0  0  0  0
    8.9445   18.8714   -0.2778 O   0  0  0  0  0  0  0  0  0  0  0  0
    8.8696   21.9710   -1.1626 H   0  0  0  0  0  0  0  0  0  0  0  0
   10.8948   20.1302   -0.3214 C   0  0  0  0  0  0  0  0  0  0  0  0
   11.2851   19.2397    0.8789 C   0  0  0  0  0  0  0  0  0  0  0  0
   10.7550   20.0991    2.0126 C   0  0  0  0  0  0  0  0  0  0  0  0
   11.1318   21.5008    1.5553 C   0  0  0  0  0  0  0  0  0  0  0  0
   11.3745   21.4014    0.1404 N   0  0  0  0  0  0  0  0  0  0  0  0
   12.0304   22.3607   -0.6573 C   0  0  0  0  0  0  0  0  0  0  0  0
   12.2729   22.0952   -1.8811 O   0  0  0  0  0  0  0  0  0  0  0  0
   12.4758   23.6888   -0.1647 C   0  0  0  0  0  0  0  0  0  0  0  0
   13.6144   24.1684   -0.9621 N   0  0  0  0  0  0  0  0  0  0  0  0
   14.8572   24.4561   -0.3198 C   0  0  0  0  0  0  0  0  0  0  0  0
   14.9334   24.2947    0.9145 O   0  0  0  0  0  0  0  0  0  0  0  0
   13.5165   24.2937   -1.9727 H   0  0  0  0  0  0  0  0  0  0  0  0
   15.9750   24.9006   -1.0013 O   0  0  0  0  0  0  0  0  0  0  0  0
   16.0570   24.5900   -2.3890 C   0  0  0  0  0  0  0  0  0  0  0  0
   16.1184   25.7751   -3.2463 C   0  0  0  0  0  0  0  0  0  0  0  0
   15.2855   25.8132   -4.3570 C   0  0  0  0  0  0  0  0  0  0  0  0
   15.2431   26.8578   -5.2394 C   0  0  0  0  0  0  0  0  0  0  0  0
   16.0696   27.9493   -5.0292 C   0  0  0  0  0  0  0  0  0  0  0  0
   16.9063   27.9304   -3.9286 C   0  0  0  0  0  0  0  0  0  0  0  0
   16.9326   26.8554   -3.0444 C   0  0  0  0  0  0  0  0  0  0  0  0
   11.3485   24.7003   -0.3321 C   0  0  0  0  0  0  0  0  0  0  0  0
   10.3313   24.5602    0.7243 C   0  0  0  0  0  0  0  0  0  0  0  0
    9.1136   24.0011    0.4146 C   0  0  0  0  0  0  0  0  0  0  0  0
    8.1140   23.8476    1.3798 C   0  0  0  0  0  0  0  0  0  0  0  0
    8.3977   24.2812    2.6635 C   0  0  0  0  0  0  0  0  0  0  0  0
    9.6145   24.8426    2.9851 C   0  0  0  0  0  0  0  0  0  0  0  0
   10.5675   24.9762    2.0120 C   0  0  0  0  0  0  0  0  0  0  0  0
    7.1111   20.7547   -1.0982 C   0  0  0  0  0  0  0  0  0  0  0  0
    6.8020   20.5280    1.4479 N   0  0  0  0  0  0  0  0  0  0  0  0
    6.4506   21.0235    0.1646 C   0  0  0  0  0  0  0  0  0  0  0  0
    5.4213   21.7973    0.1563 O   0  0  0  0  0  0  0  0  0  0  0  0
    7.6067   19.8871    1.5331 H   0  0  0  0  0  0  0  0  0  0  0  0
    6.0622   20.8809    2.6384 C   0  0  0  0  0  0  0  0  0  0  0  0
    3.7170   20.2558    2.2505 O   0  0  0  0  0  0  0  0  0  0  0  0
    4.9465   19.9313    2.7982 C   0  0  0  0  0  0  0  0  0  0  0  0
    5.0504   18.8430    3.4044 O   0  0  0  0  0  0  0  0  0  0  0  0
    2.8957   20.3100    2.8619 H   0  0  0  0  0  0  0  0  0  0  0  0
    7.0505   19.3199   -1.5844 C   0  0  0  0  0  0  0  0  0  0  0  0
    5.7632   18.6546   -1.5042 C   0  0  0  0  0  0  0  0  0  0  0  0
    4.6908   18.8621   -2.3281 C   0  0  0  0  0  0  0  0  0  0  0  0
    3.6608   18.0773   -1.9407 N   0  0  0  0  0  0  0  0  0  0  0  0
    4.0499   17.3485   -0.8590 C   0  0  0  0  0  0  0  0  0  0  0  0
    3.3736   16.4166   -0.1008 C   0  0  0  0  0  0  0  0  0  0  0  0
    4.0112   15.8200    0.9572 C   0  0  0  0  0  0  0  0  0  0  0  0
    5.3287   16.1409    1.2768 C   0  0  0  0  0  0  0  0  0  0  0  0
    5.9072   15.4996    2.3575 O   0  0  0  0  0  0  0  0  0  0  0  0
    5.9570   17.0753    0.4915 C   0  0  0  0  0  0  0  0  0  0  0  0
    5.3618   17.7033   -0.5826 C   0  0  0  0  0  0  0  0  0  0  0  0
    2.7289   18.0159   -2.3720 H   0  0  0  0  0  0  0  0  0  0  0  0
    6.3929   14.6200    2.1440 H   0  0  0  0  0  0  0  0  0  0  0  0
 38 39  1  0  0  0
 39 40  2  0  0  0
 39 37  1  0  0  0
 37 33  1  0  0  0
 33 34  1  0  0  0
 34 35  2  0  0  0
 34 32  1  0  0  0
 32 42  1  0  0  0
 42 43  1  0  0  0
 43 44  2  0  0  0
 44 45  1  0  0  0
 45 46  1  0  0  0
 46 47  2  0  0  0
 47 48  1  0  0  0
 48 49  2  0  0  0
 49 50  1  0  0  0
 49 51  1  0  0  0
 51 52  2  0  0  0
 32  1  1  0  0  0
  1  2  1  0  0  0
  2  3  2  0  0  0
  2  5  1  0  0  0
  5  6  1  0  0  0
  6  7  1  0  0  0
  7  8  1  0  0  0
  8  9  1  0  0  0
  9 10  1  0  0  0
 10 11  2  0  0  0
 10 12  1  0  0  0
 12 25  1  0  0  0
 25 26  1  0  0  0
 26 27  2  0  0  0
 27 28  1  0  0  0
 28 29  2  0  0  0
 29 30  1  0  0  0
 30 31  2  0  0  0
 12 13  1  0  0  0
 13 14  1  0  0  0
 14 15  2  0  0  0
 14 17  1  0  0  0
 17 18  1  0  0  0
 18 19  1  0  0  0
 19 20  2  0  0  0
 20 21  1  0  0  0
 21 22  2  0  0  0
 22 23  1  0  0  0
 23 24  2  0  0  0
 52 43  1  0  0  0
  9  5  1  0  0  0
 31 26  1  0  0  0
 24 19  1  0  0  0
 52 46  1  0  0  0
 38 41  1  0  0  0
 33 36  1  0  0  0
 45 53  1  0  0  0
 50 54  1  0  0  0
  1  4  1  0  0  0
 13 16  1  0  0  0
M  END
> <minimizedAffinity>
-8.37215

> <CNNscore>
0.3971506953

> <CNNaffinity>
7.3014917374

> <CNN_VS>
2.8997924328

> <CNNaffinity_variance>
0.0711817741

$$$$
[H]OC(=O)C([H])([H])N([H])C(=O)[C@@]([H])(N([H])C(=O)[C@@]1([H])N(C(=O)[C@@]([H])(N([H])C(=O)OC([H])([H])c2c([H])c([H])c([H])c([H])c2[H])C([H])([H])c2c([H])c([H])c([H])c([H])c2[H])C([H])([H])C([H])([H])C1([H])[H])C([H])([H])c1c([H])n([H])c2c([H])c([H])c(O[H])c([H])c12


 54 58  0  0  0  0  0  0  0  0999 V2000
    9.0583   22.6805    3.3054 N   0  0  0  0  0  0  0  0  0  0  0  0
   10.0755   23.3128    2.5979 C   0  0  0  0  0  0  0  0  0  0  0  0
   11.2745   22.9758    2.9036 O   0  0  0  0  0  0  0  0  0  0  0  0
    8.0594   22.8834    3.1272 H   0  0  0  0  0  0  0  0  0  0  0  0
    9.9610   24.3215    1.5420 C   0  0  0  0  0  0  0  0  0  0  0  0
    8.6694   24.0431    0.7418 C   0  0  0  0  0  0  0  0  0  0  0  0
    9.1183   22.8247   -0.0448 C   0  0  0  0  0  0  0  0  0  0  0  0
   10.5473   23.1923   -0.4171 C   0  0  0  0  0  0  0  0  0  0  0  0
   10.9328   24.2416    0.4892 N   0  0  0  0  0  0  0  0  0  0  0  0
   12.0439   25.0964    0.3427 C   0  0  0  0  0  0  0  0  0  0  0  0
   12.2072   26.0556    1.1675 O   0  0  0  0  0  0  0  0  0  0  0  0
   13.0610   24.9629   -0.7308 C   0  0  0  0  0  0  0  0  0  0  0  0
   13.6210   23.6032   -0.7309 N   0  0  0  0  0  0  0  0  0  0  0  0
   14.6961   23.2803    0.1521 C   0  0  0  0  0  0  0  0  0  0  0  0
   15.1341   24.1776    0.8994 O   0  0  0  0  0  0  0  0  0  0  0  0
   13.2406   22.8917   -1.3600 H   0  0  0  0  0  0  0  0  0  0  0  0
   15.2688   22.0236    0.2178 O   0  0  0  0  0  0  0  0  0  0  0  0
   14.6219   20.9759   -0.4983 C   0  0  0  0  0  0  0  0  0  0  0  0
   13.3267   20.5982    0.0701 C   0  0  0  0  0  0  0  0  0  0  0  0
   13.2247   20.5241    1.4532 C   0  0  0  0  0  0  0  0  0  0  0  0
   12.0759   20.1831    2.1132 C   0  0  0  0  0  0  0  0  0  0  0  0
   10.9388   19.8929    1.3774 C   0  0  0  0  0  0  0  0  0  0  0  0
   11.0200   19.9611   -0.0012 C   0  0  0  0  0  0  0  0  0  0  0  0
   12.2007   20.3098   -0.6510 C   0  0  0  0  0  0  0  0  0  0  0  0
   12.4036   25.1813   -2.0879 C   0  0  0  0  0  0  0  0  0  0  0  0
   13.4017   25.4418   -3.1398 C   0  0  0  0  0  0  0  0  0  0  0  0
   13.3239   26.6069   -3.8660 C   0  0  0  0  0  0  0  0  0  0  0  0
   14.2448   26.9006   -4.8760 C   0  0  0  0  0  0  0  0  0  0  0  0
   15.2414   25.9707   -5.1178 C   0  0  0  0  0  0  0  0  0  0  0  0
   15.3291   24.8000   -4.3960 C   0  0  0  0  0  0  0  0  0  0  0  0
   14.4081   24.5483   -3.4154 C   0  0  0  0  0  0  0  0  0  0  0  0
    9.3286   21.6728    4.3517 C   0  0  0  0  0  0  0  0  0  0  0  0
    6.9304   20.8592    3.8869 N   0  0  0  0  0  0  0  0  0  0  0  0
    8.2686   20.6833    4.3274 C   0  0  0  0  0  0  0  0  0  0  0  0
    8.5388   19.4969    4.7487 O   0  0  0  0  0  0  0  0  0  0  0  0
    6.6330   21.7886    3.5504 H   0  0  0  0  0  0  0  0  0  0  0  0
    5.9661   19.7827    3.9057 C   0  0  0  0  0  0  0  0  0  0  0  0
    3.7010   20.1049    3.0074 O   0  0  0  0  0  0  0  0  0  0  0  0
    4.6155   20.3624    4.0146 C   0  0  0  0  0  0  0  0  0  0  0  0
    4.2485   21.0775    4.9720 O   0  0  0  0  0  0  0  0  0  0  0  0
    3.2844   20.8906    2.4972 H   0  0  0  0  0  0  0  0  0  0  0  0
    9.4389   22.4933    5.6219 C   0  0  0  0  0  0  0  0  0  0  0  0
    8.2445   23.1948    6.0547 C   0  0  0  0  0  0  0  0  0  0  0  0
    7.2692   22.7026    6.8785 C   0  0  0  0  0  0  0  0  0  0  0  0
    6.3033   23.6331    7.0466 N   0  0  0  0  0  0  0  0  0  0  0  0
    6.6379   24.7434    6.3339 C   0  0  0  0  0  0  0  0  0  0  0  0
    5.9908   25.9505    6.1760 C   0  0  0  0  0  0  0  0  0  0  0  0
    6.5564   26.9183    5.3855 C   0  0  0  0  0  0  0  0  0  0  0  0
    7.7720   26.7006    4.7407 C   0  0  0  0  0  0  0  0  0  0  0  0
    8.2822   27.7218    3.9591 O   0  0  0  0  0  0  0  0  0  0  0  0
    8.3752   25.4819    4.9295 C   0  0  0  0  0  0  0  0  0  0  0  0
    7.8493   24.4765    5.7137 C   0  0  0  0  0  0  0  0  0  0  0  0
    5.4493   23.5479    7.6136 H   0  0  0  0  0  0  0  0  0  0  0  0
    8.8965   28.3873    4.4438 H   0  0  0  0  0  0  0  0  0  0  0  0
 38 39  1  0  0  0
 39 40  2  0  0  0
 39 37  1  0  0  0
 37 33  1  0  0  0
 33 34  1  0  0  0
 34 35  2  0  0  0
 34 32  1  0  0  0
 32 42  1  0  0  0
 42 43  1  0  0  0
 43 44  2  0  0  0
 44 45  1  0  0  0
 45 46  1  0  0  0
 46 47  2  0  0  0
 47 48  1  0  0  0
 48 49  2  0  0  0
 49 50  1  0  0  0
 49 51  1  0  0  0
 51 52  2  0  0  0
 32  1  1  0  0  0
  1  2  1  0  0  0
  2  3  2  0  0  0
  2  5  1  0  0  0
  5  6  1  0  0  0
  6  7  1  0  0  0
  7  8  1  0  0  0
  8  9  1  0  0  0
  9 10  1  0  0  0
 10 11  2  0  0  0
 10 12  1  0  0  0
 12 25  1  0  0  0
 25 26  1  0  0  0
 26 27  2  0  0  0
 27 28  1  0  0  0
 28 29  2  0  0  0
 29 30  1  0  0  0
 30 31  2  0  0  0
 12 13  1  0  0  0
 13 14  1  0  0  0
 14 15  2  0  0  0
 14 17  1  0  0  0
 17 18  1  0  0  0
 18 19  1  0  0  0
 19 20  2  0  0  0
 20 21  1  0  0  0
 21 22  2  0  0  0
 22 23  1  0  0  0
 23 24  2  0  0  0
 52 43  1  0  0  0
  9  5  1  0  0  0
 31 26  1  0  0  0
 24 19  1  0  0  0
 52 46  1  0  0  0
 38 41  1  0  0  0
 33 36  1  0  0  0
 45 53  1  0  0  0
 50 54  1  0  0  0
  1  4  1  0  0  0
 13 16  1  0  0  0
M  END
> <minimizedAffinity>
-8.23906

> <CNNscore>
0.3235155940

> <CNNaffinity>
7.5661745071

> <CNN_VS>
2.4477753639

> <CNNaffinity_variance>
0.0206655618

$$$$
[H]OC(=O)C([H])([H])N([H])C(=O)[C@@]([H])(N([H])C(=O)[C@@]1([H])N(C(=O)[C@@]([H])(N([H])C(=O)OC([H])([H])c2c([H])c([H])c([H])c([H])c2[H])C([H])([H])c2c([H])c([H])c([H])c([H])c2[H])C([H])([H])C([H])([H])C1([H])[H])C([H])([H])c1c([H])n([H])c2c([H])c([H])c(O[H])c([H])c12


 54 58  0  0  0  0  0  0  0  0999 V2000
    8.8769   23.4978    0.7707 N   0  0  0  0  0  0  0  0  0  0  0  0
   10.0819   24.0039    0.2945 C   0  0  0  0  0  0  0  0  0  0  0  0
   10.8640   24.5246    1.1673 O   0  0  0  0  0  0  0  0  0  0  0  0
    8.1827   23.0553    0.1437 H   0  0  0  0  0  0  0  0  0  0  0  0
   10.5823   24.0234   -1.0820 C   0  0  0  0  0  0  0  0  0  0  0  0
    9.8979   22.8807   -1.8643 C   0  0  0  0  0  0  0  0  0  0  0  0
   10.6459   21.6944   -1.2825 C   0  0  0  0  0  0  0  0  0  0  0  0
   12.0693   22.2253   -1.1937 C   0  0  0  0  0  0  0  0  0  0  0  0
   11.9594   23.6589   -1.2549 N   0  0  0  0  0  0  0  0  0  0  0  0
   13.0131   24.5608   -1.5055 C   0  0  0  0  0  0  0  0  0  0  0  0
   12.7542   25.8027   -1.6385 O   0  0  0  0  0  0  0  0  0  0  0  0
   14.4375   24.1616   -1.6344 C   0  0  0  0  0  0  0  0  0  0  0  0
   14.6595   22.8616   -0.9840 N   0  0  0  0  0  0  0  0  0  0  0  0
   14.7739   22.7917    0.4379 C   0  0  0  0  0  0  0  0  0  0  0  0
   14.6869   23.8522    1.0884 O   0  0  0  0  0  0  0  0  0  0  0  0
   14.7301   22.0111   -1.5482 H   0  0  0  0  0  0  0  0  0  0  0  0
   14.9729   21.6073    1.1228 O   0  0  0  0  0  0  0  0  0  0  0  0
   14.0265   20.5648    0.9079 C   0  0  0  0  0  0  0  0  0  0  0  0
   12.9911   20.4990    1.9407 C   0  0  0  0  0  0  0  0  0  0  0  0
   12.2586   21.6511    2.1959 C   0  0  0  0  0  0  0  0  0  0  0  0
   11.2648   21.7276    3.1330 C   0  0  0  0  0  0  0  0  0  0  0  0
   10.9560   20.6021    3.8790 C   0  0  0  0  0  0  0  0  0  0  0  0
   11.6741   19.4449    3.6397 C   0  0  0  0  0  0  0  0  0  0  0  0
   12.6820   19.3911    2.6809 C   0  0  0  0  0  0  0  0  0  0  0  0
   14.7907   23.9965   -3.1074 C   0  0  0  0  0  0  0  0  0  0  0  0
   15.2929   25.2530   -3.6901 C   0  0  0  0  0  0  0  0  0  0  0  0
   16.2155   25.9959   -2.9915 C   0  0  0  0  0  0  0  0  0  0  0  0
   16.7218   27.1960   -3.4991 C   0  0  0  0  0  0  0  0  0  0  0  0
   16.2574   27.6095   -4.7360 C   0  0  0  0  0  0  0  0  0  0  0  0
   15.3332   26.8729   -5.4448 C   0  0  0  0  0  0  0  0  0  0  0  0
   14.8609   25.7032   -4.9139 C   0  0  0  0  0  0  0  0  0  0  0  0
    8.5060   23.5478    2.2002 C   0  0  0  0  0  0  0  0  0  0  0  0
    7.5157   21.6320    3.6067 N   0  0  0  0  0  0  0  0  0  0  0  0
    7.5594   22.4830    2.4711 C   0  0  0  0  0  0  0  0  0  0  0  0
    6.6388   22.2558    1.5998 O   0  0  0  0  0  0  0  0  0  0  0  0
    8.2322   21.7419    4.3416 H   0  0  0  0  0  0  0  0  0  0  0  0
    6.5082   20.6073    3.7625 C   0  0  0  0  0  0  0  0  0  0  0  0
    6.4584   20.3450    6.2058 O   0  0  0  0  0  0  0  0  0  0  0  0
    6.8154   19.8252    4.9732 C   0  0  0  0  0  0  0  0  0  0  0  0
    7.3836   18.7120    4.9477 O   0  0  0  0  0  0  0  0  0  0  0  0
    7.1840   20.4959    6.9142 H   0  0  0  0  0  0  0  0  0  0  0  0
    7.9855   24.9594    2.3878 C   0  0  0  0  0  0  0  0  0  0  0  0
    7.8483   25.4312    3.7534 C   0  0  0  0  0  0  0  0  0  0  0  0
    8.7490   25.2513    4.7674 C   0  0  0  0  0  0  0  0  0  0  0  0
    8.2754   25.8134    5.9017 N   0  0  0  0  0  0  0  0  0  0  0  0
    7.0595   26.3665    5.6403 C   0  0  0  0  0  0  0  0  0  0  0  0
    6.1769   27.0457    6.4530 C   0  0  0  0  0  0  0  0  0  0  0  0
    4.9964   27.5056    5.9273 C   0  0  0  0  0  0  0  0  0  0  0  0
    4.6760   27.2971    4.5876 C   0  0  0  0  0  0  0  0  0  0  0  0
    3.4678   27.7889    4.1268 O   0  0  0  0  0  0  0  0  0  0  0  0
    5.5880   26.6147    3.8213 C   0  0  0  0  0  0  0  0  0  0  0  0
    6.7881   26.1325    4.3006 C   0  0  0  0  0  0  0  0  0  0  0  0
    8.7340   25.8385    6.8221 H   0  0  0  0  0  0  0  0  0  0  0  0
    3.4906   28.7468    3.7564 H   0  0  0  0  0  0  0  0  0  0  0  0
 38 39  1  0  0  0
 39 40  2  0  0  0
 39 37  1  0  0  0
 37 33  1  0  0  0
 33 34  1  0  0  0
 34 35  2  0  0  0
 34 32  1  0  0  0
 32 42  1  0  0  0
 42 43  1  0  0  0
 43 44  2  0  0  0
 44 45  1  0  0  0
 45 46  1  0  0  0
 46 47  2  0  0  0
 47 48  1  0  0  0
 48 49  2  0  0  0
 49 50  1  0  0  0
 49 51  1  0  0  0
 51 52  2  0  0  0
 32  1  1  0  0  0
  1  2  1  0  0  0
  2  3  2  0  0  0
  2  5  1  0  0  0
  5  6  1  0  0  0
  6  7  1  0  0  0
  7  8  1  0  0  0
  8  9  1  0  0  0
  9 10  1  0  0  0
 10 11  2  0  0  0
 10 12  1  0  0  0
 12 25  1  0  0  0
 25 26  1  0  0  0
 26 27  2  0  0  0
 27 28  1  0  0  0
 28 29  2  0  0  0
 29 30  1  0  0  0
 30 31  2  0  0  0
 12 13  1  0  0  0
 13 14  1  0  0  0
 14 15  2  0  0  0
 14 17  1  0  0  0
 17 18  1  0  0  0
 18 19  1  0  0  0
 19 20  2  0  0  0
 20 21  1  0  0  0
 21 22  2  0  0  0
 22 23  1  0  0  0
 23 24  2  0  0  0
 52 43  1  0  0  0
  9  5  1  0  0  0
 31 26  1  0  0  0
 24 19  1  0  0  0
 52 46  1  0  0  0
 38 41  1  0  0  0
 33 36  1  0  0  0
 45 53  1  0  0  0
 50 54  1  0  0  0
  1  4  1  0  0  0
 13 16  1  0  0  0
M  END
> <minimizedAffinity>
-8.84320

> <CNNscore>
0.3053637147

> <CNNaffinity>
7.5992560387

> <CNN_VS>
2.3205370903

> <CNNaffinity_variance>
0.1353246719

$$$$
[H]OC(=O)C([H])([H])N([H])C(=O)[C@@]([H])(N([H])C(=O)[C@@]1([H])N(C(=O)[C@@]([H])(N([H])C(=O)OC([H])([H])c2c([H])c([H])c([H])c([H])c2[H])C([H])([H])c2c([H])c([H])c([H])c([H])c2[H])C([H])([H])C([H])([H])C1([H])[H])C([H])([H])c1c([H])n([H])c2c([H])c([H])c(O[H])c([H])c12


 54 58  0  0  0  0  0  0  0  0999 V2000
   12.9884   22.9299   -1.8255 N   0  0  0  0  0  0  0  0  0  0  0  0
   11.6725   22.8461   -1.3824 C   0  0  0  0  0  0  0  0  0  0  0  0
   11.1753   21.6669   -1.2983 O   0  0  0  0  0  0  0  0  0  0  0  0
   13.4770   23.8368   -1.9223 H   0  0  0  0  0  0  0  0  0  0  0  0
   10.7695   23.9329   -0.9963 C   0  0  0  0  0  0  0  0  0  0  0  0
   11.5336   25.2691   -1.1261 C   0  0  0  0  0  0  0  0  0  0  0  0
   12.4299   25.1661    0.0950 C   0  0  0  0  0  0  0  0  0  0  0  0
   11.4903   24.5692    1.1327 C   0  0  0  0  0  0  0  0  0  0  0  0
   10.4051   23.9837    0.3907 N   0  0  0  0  0  0  0  0  0  0  0  0
    9.1619   23.5817    0.9193 C   0  0  0  0  0  0  0  0  0  0  0  0
    8.2482   23.1755    0.1272 O   0  0  0  0  0  0  0  0  0  0  0  0
    8.8267   23.6012    2.3656 C   0  0  0  0  0  0  0  0  0  0  0  0
    7.4968   24.1946    2.5689 N   0  0  0  0  0  0  0  0  0  0  0  0
    7.3164   25.2041    3.5631 C   0  0  0  0  0  0  0  0  0  0  0  0
    8.3062   25.5481    4.2392 O   0  0  0  0  0  0  0  0  0  0  0  0
    6.7048   23.8863    1.9992 H   0  0  0  0  0  0  0  0  0  0  0  0
    6.1009   25.8163    3.8068 O   0  0  0  0  0  0  0  0  0  0  0  0
    6.1323   27.1129    4.3956 C   0  0  0  0  0  0  0  0  0  0  0  0
    5.6887   28.1730    3.4887 C   0  0  0  0  0  0  0  0  0  0  0  0
    6.6330   29.1001    3.0672 C   0  0  0  0  0  0  0  0  0  0  0  0
    6.3532   30.1393    2.2226 C   0  0  0  0  0  0  0  0  0  0  0  0
    5.0605   30.2913    1.7489 C   0  0  0  0  0  0  0  0  0  0  0  0
    4.1057   29.3782    2.1570 C   0  0  0  0  0  0  0  0  0  0  0  0
    4.4138   28.3288    3.0182 C   0  0  0  0  0  0  0  0  0  0  0  0
    8.7711   22.1741    2.8967 C   0  0  0  0  0  0  0  0  0  0  0  0
    8.6930   22.1442    4.3676 C   0  0  0  0  0  0  0  0  0  0  0  0
    7.5024   21.8125    4.9706 C   0  0  0  0  0  0  0  0  0  0  0  0
    7.3753   21.7717    6.3622 C   0  0  0  0  0  0  0  0  0  0  0  0
    8.4975   22.0788    7.1125 C   0  0  0  0  0  0  0  0  0  0  0  0
    9.6956   22.4121    6.5188 C   0  0  0  0  0  0  0  0  0  0  0  0
    9.7800   22.4416    5.1531 C   0  0  0  0  0  0  0  0  0  0  0  0
   13.7826   21.7355   -2.1806 C   0  0  0  0  0  0  0  0  0  0  0  0
   13.3875   21.0230    0.2618 N   0  0  0  0  0  0  0  0  0  0  0  0
   14.1028   21.0131   -0.9645 C   0  0  0  0  0  0  0  0  0  0  0  0
   15.1526   20.2673   -0.9625 O   0  0  0  0  0  0  0  0  0  0  0  0
   12.5431   21.6112    0.3433 H   0  0  0  0  0  0  0  0  0  0  0  0
   13.8093   20.2461    1.4054 C   0  0  0  0  0  0  0  0  0  0  0  0
   12.3425   21.5639    2.8727 O   0  0  0  0  0  0  0  0  0  0  0  0
   12.7589   20.3175    2.4365 C   0  0  0  0  0  0  0  0  0  0  0  0
   12.2203   19.3087    2.9414 O   0  0  0  0  0  0  0  0  0  0  0  0
   12.4192   21.7968    3.8682 H   0  0  0  0  0  0  0  0  0  0  0  0
   14.9637   22.3024   -2.9439 C   0  0  0  0  0  0  0  0  0  0  0  0
   15.2470   23.7137   -2.7591 C   0  0  0  0  0  0  0  0  0  0  0  0
   15.4503   24.3500   -1.5650 C   0  0  0  0  0  0  0  0  0  0  0  0
   15.6705   25.6657   -1.7823 N   0  0  0  0  0  0  0  0  0  0  0  0
   15.6131   25.9027   -3.1214 C   0  0  0  0  0  0  0  0  0  0  0  0
   15.7651   27.0663   -3.8452 C   0  0  0  0  0  0  0  0  0  0  0  0
   15.6553   27.0272   -5.2119 C   0  0  0  0  0  0  0  0  0  0  0  0
   15.3927   25.8323   -5.8785 C   0  0  0  0  0  0  0  0  0  0  0  0
   15.2949   25.8686   -7.2580 O   0  0  0  0  0  0  0  0  0  0  0  0
   15.2490   24.7025   -5.1120 C   0  0  0  0  0  0  0  0  0  0  0  0
   15.3505   24.6879   -3.7366 C   0  0  0  0  0  0  0  0  0  0  0  0
   15.8563   26.3904   -1.0763 H   0  0  0  0  0  0  0  0  0  0  0  0
   16.1731   25.7189   -7.7695 H   0  0  0  0  0  0  0  0  0  0  0  0
 38 39  1  0  0  0
 39 40  2  0  0  0
 39 37  1  0  0  0
 37 33  1  0  0  0
 33 34  1  0  0  0
 34 35  2  0  0  0
 34 32  1  0  0  0
 32 42  1  0  0  0
 42 43  1  0  0  0
 43 44  2  0  0  0
 44 45  1  0  0  0
 45 46  1  0  0  0
 46 47  2  0  0  0
 47 48  1  0  0  0
 48 49  2  0  0  0
 49 50  1  0  0  0
 49 51  1  0  0  0
 51 52  2  0  0  0
 32  1  1  0  0  0
  1  2  1  0  0  0
  2  3  2  0  0  0
  2  5  1  0  0  0
  5  6  1  0  0  0
  6  7  1  0  0  0
  7  8  1  0  0  0
  8  9  1  0  0  0
  9 10  1  0  0  0
 10 11  2  0  0  0
 10 12  1  0  0  0
 12 25  1  0  0  0
 25 26  1  0  0  0
 26 27  2  0  0  0
 27 28  1  0  0  0
 28 29  2  0  0  0
 29 30  1  0  0  0
 30 31  2  0  0  0
 12 13  1  0  0  0
 13 14  1  0  0  0
 14 15  2  0  0  0
 14 17  1  0  0  0
 17 18  1  0  0  0
 18 19  1  0  0  0
 19 20  2  0  0  0
 20 21  1  0  0  0
 21 22  2  0  0  0
 22 23  1  0  0  0
 23 24  2  0  0  0
 52 43  1  0  0  0
  9  5  1  0  0  0
 31 26  1  0  0  0
 24 19  1  0  0  0
 52 46  1  0  0  0
 38 41  1  0  0  0
 33 36  1  0  0  0
 45 53  1  0  0  0
 50 54  1  0  0  0
  1  4  1  0  0  0
 13 16  1  0  0  0
M  END
> <minimizedAffinity>
-8.59026

> <CNNscore>
0.3010507822

> <CNNaffinity>
7.5407805443

> <CNN_VS>
2.2701578140

> <CNNaffinity_variance>
0.1036237329

$$$$
[H]OC(=O)C([H])([H])N([H])C(=O)[C@@]([H])(N([H])C(=O)[C@@]1([H])N(C(=O)[C@@]([H])(N([H])C(=O)OC([H])([H])c2c([H])c([H])c([H])c([H])c2[H])C([H])([H])c2c([H])c([H])c([H])c([H])c2[H])C([H])([H])C([H])([H])C1([H])[H])C([H])([H])c1c([H])n([H])c2c([H])c([H])c(O[H])c([H])c12


 54 58  0  0  0  0  0  0  0  0999 V2000
    9.3813   23.5575    1.0541 N   0  0  0  0  0  0  0  0  0  0  0  0
   10.4892   24.2244    0.5416 C   0  0  0  0  0  0  0  0  0  0  0  0
   11.3484   24.6402    1.3980 O   0  0  0  0  0  0  0  0  0  0  0  0
    8.6364   23.1821    0.4418 H   0  0  0  0  0  0  0  0  0  0  0  0
   10.8094   24.5194   -0.8570 C   0  0  0  0  0  0  0  0  0  0  0  0
   10.0554   23.5108   -1.7515 C   0  0  0  0  0  0  0  0  0  0  0  0
   10.8964   22.2724   -1.4986 C   0  0  0  0  0  0  0  0  0  0  0  0
   12.3079   22.8410   -1.4848 C   0  0  0  0  0  0  0  0  0  0  0  0
   12.1607   24.2549   -1.2611 N   0  0  0  0  0  0  0  0  0  0  0  0
   13.1545   25.2337   -1.4633 C   0  0  0  0  0  0  0  0  0  0  0  0
   12.8544   26.4660   -1.3277 O   0  0  0  0  0  0  0  0  0  0  0  0
   14.5589   24.9293   -1.8369 C   0  0  0  0  0  0  0  0  0  0  0  0
   15.0833   23.8451   -0.9932 N   0  0  0  0  0  0  0  0  0  0  0  0
   15.3195   24.0799    0.3957 C   0  0  0  0  0  0  0  0  0  0  0  0
   15.0756   25.2152    0.8507 O   0  0  0  0  0  0  0  0  0  0  0  0
   15.2763   22.9262   -1.3997 H   0  0  0  0  0  0  0  0  0  0  0  0
   15.8011   23.1099    1.2550 O   0  0  0  0  0  0  0  0  0  0  0  0
   16.0169   21.8103    0.7134 C   0  0  0  0  0  0  0  0  0  0  0  0
   14.7777   21.1159    0.3596 C   0  0  0  0  0  0  0  0  0  0  0  0
   13.7853   21.0311    1.3275 C   0  0  0  0  0  0  0  0  0  0  0  0
   12.5820   20.4109    1.1298 C   0  0  0  0  0  0  0  0  0  0  0  0
   12.3194   19.8296   -0.0998 C   0  0  0  0  0  0  0  0  0  0  0  0
   13.2949   19.9035   -1.0769 C   0  0  0  0  0  0  0  0  0  0  0  0
   14.5127   20.5394   -0.8522 C   0  0  0  0  0  0  0  0  0  0  0  0
   14.6101   24.4440   -3.2804 C   0  0  0  0  0  0  0  0  0  0  0  0
   15.0945   25.4962   -4.1907 C   0  0  0  0  0  0  0  0  0  0  0  0
   15.0308   25.2911   -5.5490 C   0  0  0  0  0  0  0  0  0  0  0  0
   15.4790   26.2568   -6.4550 C   0  0  0  0  0  0  0  0  0  0  0  0
   15.9910   27.4314   -5.9309 C   0  0  0  0  0  0  0  0  0  0  0  0
   16.0593   27.6477   -4.5717 C   0  0  0  0  0  0  0  0  0  0  0  0
   15.6107   26.6777   -3.7166 C   0  0  0  0  0  0  0  0  0  0  0  0
    9.1925   23.3309    2.5020 C   0  0  0  0  0  0  0  0  0  0  0  0
   10.4123   21.7121    4.0898 N   0  0  0  0  0  0  0  0  0  0  0  0
    9.8032   22.0642    2.8566 C   0  0  0  0  0  0  0  0  0  0  0  0
    9.8116   21.1282    1.9723 O   0  0  0  0  0  0  0  0  0  0  0  0
   10.4594   22.4163    4.8431 H   0  0  0  0  0  0  0  0  0  0  0  0
   10.9808   20.4036    4.3217 C   0  0  0  0  0  0  0  0  0  0  0  0
   10.3648   18.3333    5.4946 O   0  0  0  0  0  0  0  0  0  0  0  0
   10.1192   19.6775    5.2716 C   0  0  0  0  0  0  0  0  0  0  0  0
    9.1737   20.2121    5.8905 O   0  0  0  0  0  0  0  0  0  0  0  0
    9.6207   17.6519    5.3122 H   0  0  0  0  0  0  0  0  0  0  0  0
    7.6900   23.4158    2.6868 C   0  0  0  0  0  0  0  0  0  0  0  0
    6.9637   22.1604    2.7355 C   0  0  0  0  0  0  0  0  0  0  0  0
    6.5568   21.5026    3.8642 C   0  0  0  0  0  0  0  0  0  0  0  0
    5.9241   20.3587    3.5210 N   0  0  0  0  0  0  0  0  0  0  0  0
    5.9110   20.2572    2.1638 C   0  0  0  0  0  0  0  0  0  0  0  0
    5.3956   19.2873    1.3304 C   0  0  0  0  0  0  0  0  0  0  0  0
    5.5218   19.4315   -0.0278 C   0  0  0  0  0  0  0  0  0  0  0  0
    6.1618   20.5404   -0.5771 C   0  0  0  0  0  0  0  0  0  0  0  0
    6.2522   20.6188   -1.9553 O   0  0  0  0  0  0  0  0  0  0  0  0
    6.6582   21.4767    0.2956 C   0  0  0  0  0  0  0  0  0  0  0  0
    6.5571   21.3795    1.6677 C   0  0  0  0  0  0  0  0  0  0  0  0
    5.5087   19.6632    4.1549 H   0  0  0  0  0  0  0  0  0  0  0  0
    5.4735   21.0966   -2.4249 H   0  0  0  0  0  0  0  0  0  0  0  0
 38 39  1  0  0  0
 39 40  2  0  0  0
 39 37  1  0  0  0
 37 33  1  0  0  0
 33 34  1  0  0  0
 34 35  2  0  0  0
 34 32  1  0  0  0
 32 42  1  0  0  0
 42 43  1  0  0  0
 43 44  2  0  0  0
 44 45  1  0  0  0
 45 46  1  0  0  0
 46 47  2  0  0  0
 47 48  1  0  0  0
 48 49  2  0  0  0
 49 50  1  0  0  0
 49 51  1  0  0  0
 51 52  2  0  0  0
 32  1  1  0  0  0
  1  2  1  0  0  0
  2  3  2  0  0  0
  2  5  1  0  0  0
  5  6  1  0  0  0
  6  7  1  0  0  0
  7  8  1  0  0  0
  8  9  1  0  0  0
  9 10  1  0  0  0
 10 11  2  0  0  0
 10 12  1  0  0  0
 12 25  1  0  0  0
 25 26  1  0  0  0
 26 27  2  0  0  0
 27 28  1  0  0  0
 28 29  2  0  0  0
 29 30  1  0  0  0
 30 31  2  0  0  0
 12 13  1  0  0  0
 13 14  1  0  0  0
 14 15  2  0  0  0
 14 17  1  0  0  0
 17 18  1  0  0  0
 18 19  1  0  0  0
 19 20  2  0  0  0
 20 21  1  0  0  0
 21 22  2  0  0  0
 22 23  1  0  0  0
 23 24  2  0  0  0
 52 43  1  0  0  0
  9  5  1  0  0  0
 31 26  1  0  0  0
 24 19  1  0  0  0
 52 46  1  0  0  0
 38 41  1  0  0  0
 33 36  1  0  0  0
 45 53  1  0  0  0
 50 54  1  0  0  0
  1  4  1  0  0  0
 13 16  1  0  0  0
M  END
> <minimizedAffinity>
-7.11079

> <CNNscore>
0.2644902468

> <CNNaffinity>
7.3959684372

> <CNN_VS>
1.9561614990

> <CNNaffinity_variance>
0.4345439970

$$$$
[H]OC(=O)C([H])([H])N([H])C(=O)[C@@]([H])(N([H])C(=O)[C@@]1([H])N(C(=O)[C@@]([H])(N([H])C(=O)OC([H])([H])c2c([H])c([H])c([H])c([H])c2[H])C([H])([H])c2c([H])c([H])c([H])c([H])c2[H])C([H])([H])C([H])([H])C1([H])[H])C([H])([H])c1c([H])n([H])c2c([H])c([H])c(O[H])c([H])c12


 54 58  0  0  0  0  0  0  0  0999 V2000
    8.8111   23.5535    0.7101 N   0  0  0  0  0  0  0  0  0  0  0  0
   10.0541   23.9839    0.2575 C   0  0  0  0  0  0  0  0  0  0  0  0
   10.8566   24.4390    1.1482 O   0  0  0  0  0  0  0  0  0  0  0  0
    8.0980   23.1672    0.0675 H   0  0  0  0  0  0  0  0  0  0  0  0
   10.5743   23.9885   -1.1118 C   0  0  0  0  0  0  0  0  0  0  0  0
    9.9040   22.8349   -1.8903 C   0  0  0  0  0  0  0  0  0  0  0  0
   10.6461   21.6574   -1.2838 C   0  0  0  0  0  0  0  0  0  0  0  0
   12.0669   22.1928   -1.1807 C   0  0  0  0  0  0  0  0  0  0  0  0
   11.9546   23.6253   -1.2603 N   0  0  0  0  0  0  0  0  0  0  0  0
   13.0099   24.5267   -1.5062 C   0  0  0  0  0  0  0  0  0  0  0  0
   12.7501   25.7663   -1.6576 O   0  0  0  0  0  0  0  0  0  0  0  0
   14.4368   24.1296   -1.6097 C   0  0  0  0  0  0  0  0  0  0  0  0
   14.6480   22.8273   -0.9603 N   0  0  0  0  0  0  0  0  0  0  0  0
   14.6940   22.7461    0.4649 C   0  0  0  0  0  0  0  0  0  0  0  0
   14.5581   23.7990    1.1193 O   0  0  0  0  0  0  0  0  0  0  0  0
   14.7599   21.9832   -1.5276 H   0  0  0  0  0  0  0  0  0  0  0  0
   14.8786   21.5587    1.1487 O   0  0  0  0  0  0  0  0  0  0  0  0
   13.8819   20.5539    0.9880 C   0  0  0  0  0  0  0  0  0  0  0  0
   12.8443   20.5955    2.0199 C   0  0  0  0  0  0  0  0  0  0  0  0
   12.6472   19.4531    2.7847 C   0  0  0  0  0  0  0  0  0  0  0  0
   11.7127   19.3564    3.7792 C   0  0  0  0  0  0  0  0  0  0  0  0
   10.9086   20.4501    4.0548 C   0  0  0  0  0  0  0  0  0  0  0  0
   11.0895   21.5972    3.3041 C   0  0  0  0  0  0  0  0  0  0  0  0
   12.0468   21.6719    2.2962 C   0  0  0  0  0  0  0  0  0  0  0  0
   14.8180   23.9705   -3.0764 C   0  0  0  0  0  0  0  0  0  0  0  0
   15.3379   25.2275   -3.6423 C   0  0  0  0  0  0  0  0  0  0  0  0
   14.9074   25.6343   -4.8833 C   0  0  0  0  0  0  0  0  0  0  0  0
   15.3716   26.8175   -5.4655 C   0  0  0  0  0  0  0  0  0  0  0  0
   16.2841   27.5666   -4.7425 C   0  0  0  0  0  0  0  0  0  0  0  0
   16.7221   27.1686   -3.4979 C   0  0  0  0  0  0  0  0  0  0  0  0
   16.2445   26.0034   -2.9618 C   0  0  0  0  0  0  0  0  0  0  0  0
    8.4239   23.6089    2.1350 C   0  0  0  0  0  0  0  0  0  0  0  0
    7.0550   21.5021    1.5720 N   0  0  0  0  0  0  0  0  0  0  0  0
    7.3793   22.6308    2.3700 C   0  0  0  0  0  0  0  0  0  0  0  0
    6.6406   22.7738    3.4151 O   0  0  0  0  0  0  0  0  0  0  0  0
    7.5924   21.3300    0.7077 H   0  0  0  0  0  0  0  0  0  0  0  0
    5.9883   20.5921    1.9230 C   0  0  0  0  0  0  0  0  0  0  0  0
    3.5634   20.5472    1.5242 O   0  0  0  0  0  0  0  0  0  0  0  0
    4.8267   20.8734    1.0608 C   0  0  0  0  0  0  0  0  0  0  0  0
    4.9203   21.3935   -0.0721 O   0  0  0  0  0  0  0  0  0  0  0  0
    2.9823   19.9012    0.9799 H   0  0  0  0  0  0  0  0  0  0  0  0
    8.0325   25.0585    2.3456 C   0  0  0  0  0  0  0  0  0  0  0  0
    7.9013   25.5090    3.7188 C   0  0  0  0  0  0  0  0  0  0  0  0
    8.8270   25.3549    4.7145 C   0  0  0  0  0  0  0  0  0  0  0  0
    8.3518   25.8845    5.8636 N   0  0  0  0  0  0  0  0  0  0  0  0
    7.1098   26.3903    5.6305 C   0  0  0  0  0  0  0  0  0  0  0  0
    6.2153   27.0237    6.4669 C   0  0  0  0  0  0  0  0  0  0  0  0
    5.0076   27.4407    5.9678 C   0  0  0  0  0  0  0  0  0  0  0  0
    4.6715   27.2342    4.6317 C   0  0  0  0  0  0  0  0  0  0  0  0
    3.4360   27.6812    4.1984 O   0  0  0  0  0  0  0  0  0  0  0  0
    5.5963   26.5982    3.8411 C   0  0  0  0  0  0  0  0  0  0  0  0
    6.8236   26.1603    4.2932 C   0  0  0  0  0  0  0  0  0  0  0  0
    8.8258   25.9181    6.7759 H   0  0  0  0  0  0  0  0  0  0  0  0
    3.4129   28.6432    3.8390 H   0  0  0  0  0  0  0  0  0  0  0  0
 38 39  1  0  0  0
 39 40  2  0  0  0
 39 37  1  0  0  0
 37 33  1  0  0  0
 33 34  1  0  0  0
 34 35  2  0  0  0
 34 32  1  0  0  0
 32 42  1  0  0  0
 42 43  1  0  0  0
 43 44  2  0  0  0
 44 45  1  0  0  0
 45 46  1  0  0  0
 46 47  2  0  0  0
 47 48  1  0  0  0
 48 49  2  0  0  0
 49 50  1  0  0  0
 49 51  1  0  0  0
 51 52  2  0  0  0
 32  1  1  0  0  0
  1  2  1  0  0  0
  2  3  2  0  0  0
  2  5  1  0  0  0
  5  6  1  0  0  0
  6  7  1  0  0  0
  7  8  1  0  0  0
  8  9  1  0  0  0
  9 10  1  0  0  0
 10 11  2  0  0  0
 10 12  1  0  0  0
 12 25  1  0  0  0
 25 26  1  0  0  0
 26 27  2  0  0  0
 27 28  1  0  0  0
 28 29  2  0  0  0
 29 30  1  0  0  0
 30 31  2  0  0  0
 12 13  1  0  0  0
 13 14  1  0  0  0
 14 15  2  0  0  0
 14 17  1  0  0  0
 17 18  1  0  0  0
 18 19  1  0  0  0
 19 20  2  0  0  0
 20 21  1  0  0  0
 21 22  2  0  0  0
 22 23  1  0  0  0
 23 24  2  0  0  0
 52 43  1  0  0  0
  9  5  1  0  0  0
 31 26  1  0  0  0
 24 19  1  0  0  0
 52 46  1  0  0  0
 38 41  1  0  0  0
 33 36  1  0  0  0
 45 53  1  0  0  0
 50 54  1  0  0  0
  1  4  1  0  0  0
 13 16  1  0  0  0
M  END
> <minimizedAffinity>
-9.44201

> <CNNscore>
0.2373149991

> <CNNaffinity>
7.4422941208

> <CNN_VS>
1.7661679983

> <CNNaffinity_variance>
0.1883078068

$$$$
[H]OC(=O)C([H])([H])N([H])C(=O)[C@@]([H])(N([H])C(=O)[C@@]1([H])N(C(=O)[C@@]([H])(N([H])C(=O)OC([H])([H])c2c([H])c([H])c([H])c([H])c2[H])C([H])([H])c2c([H])c([H])c([H])c([H])c2[H])C([H])([H])C([H])([H])C1([H])[H])C([H])([H])c1c([H])n([H])c2c([H])c([H])c(O[H])c([H])c12


 54 58  0  0  0  0  0  0  0  0999 V2000
    8.8020   23.0219    0.3670 N   0  0  0  0  0  0  0  0  0  0  0  0
    9.9507   23.6718   -0.0723 C   0  0  0  0  0  0  0  0  0  0  0  0
   10.5715   24.3792    0.7989 O   0  0  0  0  0  0  0  0  0  0  0  0
    8.2360   22.4255   -0.2613 H   0  0  0  0  0  0  0  0  0  0  0  0
   10.5519   23.6581   -1.4079 C   0  0  0  0  0  0  0  0  0  0  0  0
   10.0470   22.4041   -2.1554 C   0  0  0  0  0  0  0  0  0  0  0  0
   10.8614   21.3404   -1.4411 C   0  0  0  0  0  0  0  0  0  0  0  0
   12.2140   22.0210   -1.2888 C   0  0  0  0  0  0  0  0  0  0  0  0
   11.9676   23.4288   -1.4570 N   0  0  0  0  0  0  0  0  0  0  0  0
   12.9430   24.4182   -1.6943 C   0  0  0  0  0  0  0  0  0  0  0  0
   12.5733   25.6158   -1.9313 O   0  0  0  0  0  0  0  0  0  0  0  0
   14.4056   24.1622   -1.6940 C   0  0  0  0  0  0  0  0  0  0  0  0
   14.6990   22.9046   -0.9907 N   0  0  0  0  0  0  0  0  0  0  0  0
   14.7856   22.8943    0.4349 C   0  0  0  0  0  0  0  0  0  0  0  0
   14.6133   23.9694    1.0430 O   0  0  0  0  0  0  0  0  0  0  0  0
   14.8389   22.0408   -1.5208 H   0  0  0  0  0  0  0  0  0  0  0  0
   15.0475   21.7517    1.1680 O   0  0  0  0  0  0  0  0  0  0  0  0
   14.1924   20.6324    0.9556 C   0  0  0  0  0  0  0  0  0  0  0  0
   13.0771   20.5665    1.9016 C   0  0  0  0  0  0  0  0  0  0  0  0
   12.3021   21.7069    2.0675 C   0  0  0  0  0  0  0  0  0  0  0  0
   11.2331   21.7820    2.9180 C   0  0  0  0  0  0  0  0  0  0  0  0
   10.8877   20.6670    3.6637 C   0  0  0  0  0  0  0  0  0  0  0  0
   11.6473   19.5215    3.5126 C   0  0  0  0  0  0  0  0  0  0  0  0
   12.7316   19.4690    2.6411 C   0  0  0  0  0  0  0  0  0  0  0  0
   14.8970   24.0038   -3.1276 C   0  0  0  0  0  0  0  0  0  0  0  0
   15.3981   25.2769   -3.6741 C   0  0  0  0  0  0  0  0  0  0  0  0
   14.9565   25.6993   -4.9061 C   0  0  0  0  0  0  0  0  0  0  0  0
   15.4027   26.8982   -5.4699 C   0  0  0  0  0  0  0  0  0  0  0  0
   16.3090   27.6465   -4.7383 C   0  0  0  0  0  0  0  0  0  0  0  0
   16.7580   27.2330   -3.5028 C   0  0  0  0  0  0  0  0  0  0  0  0
   16.2980   26.0527   -2.9846 C   0  0  0  0  0  0  0  0  0  0  0  0
    8.3134   23.1288    1.7574 C   0  0  0  0  0  0  0  0  0  0  0  0
    7.0609   21.2964    3.0624 N   0  0  0  0  0  0  0  0  0  0  0  0
    7.2519   22.1600    1.9518 C   0  0  0  0  0  0  0  0  0  0  0  0
    6.3627   22.0435    1.0276 O   0  0  0  0  0  0  0  0  0  0  0  0
    7.7431   21.3196    3.8367 H   0  0  0  0  0  0  0  0  0  0  0  0
    5.9492   20.3759    3.1395 C   0  0  0  0  0  0  0  0  0  0  0  0
    7.4891   19.2048    4.6556 O   0  0  0  0  0  0  0  0  0  0  0  0
    6.1849   19.4458    4.2581 C   0  0  0  0  0  0  0  0  0  0  0  0
    5.2665   18.8595    4.8708 O   0  0  0  0  0  0  0  0  0  0  0  0
    7.8468   18.2440    4.6419 H   0  0  0  0  0  0  0  0  0  0  0  0
    7.9120   24.5852    1.8869 C   0  0  0  0  0  0  0  0  0  0  0  0
    7.5333   25.0454    3.2101 C   0  0  0  0  0  0  0  0  0  0  0  0
    6.6579   26.0572    3.4966 C   0  0  0  0  0  0  0  0  0  0  0  0
    6.5662   26.2139    4.8359 N   0  0  0  0  0  0  0  0  0  0  0  0
    7.3813   25.3056    5.4386 C   0  0  0  0  0  0  0  0  0  0  0  0
    7.6428   25.0629    6.7704 C   0  0  0  0  0  0  0  0  0  0  0  0
    8.5247   24.0694    7.1122 C   0  0  0  0  0  0  0  0  0  0  0  0
    9.1591   23.3037    6.1365 C   0  0  0  0  0  0  0  0  0  0  0  0
   10.0364   22.3193    6.5551 O   0  0  0  0  0  0  0  0  0  0  0  0
    8.8652   23.5858    4.8255 C   0  0  0  0  0  0  0  0  0  0  0  0
    7.9866   24.5723    4.4291 C   0  0  0  0  0  0  0  0  0  0  0  0
    5.9851   26.8934    5.3445 H   0  0  0  0  0  0  0  0  0  0  0  0
    9.6213   21.3934    6.7152 H   0  0  0  0  0  0  0  0  0  0  0  0
 38 39  1  0  0  0
 39 40  2  0  0  0
 39 37  1  0  0  0
 37 33  1  0  0  0
 33 34  1  0  0  0
 34 35  2  0  0  0
 34 32  1  0  0  0
 32 42  1  0  0  0
 42 43  1  0  0  0
 43 44  2  0  0  0
 44 45  1  0  0  0
 45 46  1  0  0  0
 46 47  2  0  0  0
 47 48  1  0  0  0
 48 49  2  0  0  0
 49 50  1  0  0  0
 49 51  1  0  0  0
 51 52  2  0  0  0
 32  1  1  0  0  0
  1  2  1  0  0  0
  2  3  2  0  0  0
  2  5  1  0  0  0
  5  6  1  0  0  0
  6  7  1  0  0  0
  7  8  1  0  0  0
  8  9  1  0  0  0
  9 10  1  0  0  0
 10 11  2  0  0  0
 10 12  1  0  0  0
 12 25  1  0  0  0
 25 26  1  0  0  0
 26 27  2  0  0  0
 27 28  1  0  0  0
 28 29  2  0  0  0
 29 30  1  0  0  0
 30 31  2  0  0  0
 12 13  1  0  0  0
 13 14  1  0  0  0
 14 15  2  0  0  0
 14 17  1  0  0  0
 17 18  1  0  0  0
 18 19  1  0  0  0
 19 20  2  0  0  0
 20 21  1  0  0  0
 21 22  2  0  0  0
 22 23  1  0  0  0
 23 24  2  0  0  0
 52 43  1  0  0  0
  9  5  1  0  0  0
 31 26  1  0  0  0
 24 19  1  0  0  0
 52 46  1  0  0  0
 38 41  1  0  0  0
 33 36  1  0  0  0
 45 53  1  0  0  0
 50 54  1  0  0  0
  1  4  1  0  0  0
 13 16  1  0  0  0
M  END
> <minimizedAffinity>
-8.29045

> <CNNscore>
0.2330351919

> <CNNaffinity>
7.4770951271

> <CNN_VS>
1.7424262762

> <CNNaffinity_variance>
0.2196031511

$$$$
[H]OC(=O)C([H])([H])N([H])C(=O)[C@@]([H])(N([H])C(=O)[C@@]1([H])N(C(=O)[C@@]([H])(N([H])C(=O)OC([H])([H])c2c([H])c([H])c([H])c([H])c2[H])C([H])([H])c2c([H])c([H])c([H])c([H])c2[H])C([H])([H])C([H])([H])C1([H])[H])C([H])([H])c1c([H])n([H])c2c([H])c([H])c(O[H])c([H])c12


 54 58  0  0  0  0  0  0  0  0999 V2000
    9.5573   20.9985   -0.1602 N   0  0  0  0  0  0  0  0  0  0  0  0
   10.6019   20.0954    0.0080 C   0  0  0  0  0  0  0  0  0  0  0  0
   10.2832   18.8533    0.0168 O   0  0  0  0  0  0  0  0  0  0  0  0
    9.7155   22.0207   -0.1845 H   0  0  0  0  0  0  0  0  0  0  0  0
   12.0297   20.3744    0.1789 C   0  0  0  0  0  0  0  0  0  0  0  0
   12.4672   19.8407    1.5609 C   0  0  0  0  0  0  0  0  0  0  0  0
   11.8389   20.8989    2.4498 C   0  0  0  0  0  0  0  0  0  0  0  0
   12.1040   22.1754    1.6648 C   0  0  0  0  0  0  0  0  0  0  0  0
   12.3871   21.7573    0.3173 N   0  0  0  0  0  0  0  0  0  0  0  0
   12.9762   22.5487   -0.6894 C   0  0  0  0  0  0  0  0  0  0  0  0
   13.2690   22.0166   -1.8111 O   0  0  0  0  0  0  0  0  0  0  0  0
   13.2939   23.9909   -0.5352 C   0  0  0  0  0  0  0  0  0  0  0  0
   14.3824   24.3697   -1.4483 N   0  0  0  0  0  0  0  0  0  0  0  0
   15.6531   24.7475   -0.9168 C   0  0  0  0  0  0  0  0  0  0  0  0
   15.7961   24.7497    0.3221 O   0  0  0  0  0  0  0  0  0  0  0  0
   14.2300   24.3609   -2.4600 H   0  0  0  0  0  0  0  0  0  0  0  0
   16.7275   25.1065   -1.7095 O   0  0  0  0  0  0  0  0  0  0  0  0
   16.7136   26.4162   -2.2695 C   0  0  0  0  0  0  0  0  0  0  0  0
   16.2432   26.4498   -3.6554 C   0  0  0  0  0  0  0  0  0  0  0  0
   16.3461   27.6515   -4.3440 C   0  0  0  0  0  0  0  0  0  0  0  0
   15.9442   27.8211   -5.6406 C   0  0  0  0  0  0  0  0  0  0  0  0
   15.4026   26.7442   -6.3229 C   0  0  0  0  0  0  0  0  0  0  0  0
   15.2918   25.5388   -5.6546 C   0  0  0  0  0  0  0  0  0  0  0  0
   15.7069   25.3902   -4.3342 C   0  0  0  0  0  0  0  0  0  0  0  0
   12.0762   24.8256   -0.9124 C   0  0  0  0  0  0  0  0  0  0  0  0
   10.9922   24.6825    0.0750 C   0  0  0  0  0  0  0  0  0  0  0  0
    9.7982   24.1223   -0.3146 C   0  0  0  0  0  0  0  0  0  0  0  0
    8.7378   23.9660    0.5829 C   0  0  0  0  0  0  0  0  0  0  0  0
    8.9362   24.3980    1.8831 C   0  0  0  0  0  0  0  0  0  0  0  0
   10.1285   24.9605    2.2844 C   0  0  0  0  0  0  0  0  0  0  0  0
   11.1430   25.0969    1.3760 C   0  0  0  0  0  0  0  0  0  0  0  0
    8.1539   20.5654   -0.3235 C   0  0  0  0  0  0  0  0  0  0  0  0
    8.0684   20.9926    2.2142 N   0  0  0  0  0  0  0  0  0  0  0  0
    7.4930   20.6391    0.9653 C   0  0  0  0  0  0  0  0  0  0  0  0
    6.2378   20.3562    1.0184 O   0  0  0  0  0  0  0  0  0  0  0  0
    9.0753   21.2164    2.2551 H   0  0  0  0  0  0  0  0  0  0  0  0
    7.2937   21.0372    3.4336 C   0  0  0  0  0  0  0  0  0  0  0  0
    9.1039   21.3845    5.0596 O   0  0  0  0  0  0  0  0  0  0  0  0
    8.1316   20.5457    4.5419 C   0  0  0  0  0  0  0  0  0  0  0  0
    8.0114   19.4067    5.0428 O   0  0  0  0  0  0  0  0  0  0  0  0
   10.0828   21.0796    5.0529 H   0  0  0  0  0  0  0  0  0  0  0  0
    8.2727   19.1800   -0.9279 C   0  0  0  0  0  0  0  0  0  0  0  0
    7.0480   18.4111   -1.0502 C   0  0  0  0  0  0  0  0  0  0  0  0
    6.8146   17.1695   -0.5250 C   0  0  0  0  0  0  0  0  0  0  0  0
    5.5695   16.7617   -0.8571 N   0  0  0  0  0  0  0  0  0  0  0  0
    4.9763   17.7333   -1.6032 C   0  0  0  0  0  0  0  0  0  0  0  0
    3.7258   17.7992   -2.1800 C   0  0  0  0  0  0  0  0  0  0  0  0
    3.3735   18.9151   -2.8958 C   0  0  0  0  0  0  0  0  0  0  0  0
    4.2581   19.9805   -3.0488 C   0  0  0  0  0  0  0  0  0  0  0  0
    3.8346   21.0730   -3.7842 O   0  0  0  0  0  0  0  0  0  0  0  0
    5.4908   19.8650   -2.4558 C   0  0  0  0  0  0  0  0  0  0  0  0
    5.8936   18.7661   -1.7260 C   0  0  0  0  0  0  0  0  0  0  0  0
    5.1167   15.8741   -0.6017 H   0  0  0  0  0  0  0  0  0  0  0  0
    3.3634   21.8127   -3.2493 H   0  0  0  0  0  0  0  0  0  0  0  0
 38 39  1  0  0  0
 39 40  2  0  0  0
 39 37  1  0  0  0
 37 33  1  0  0  0
 33 34  1  0  0  0
 34 35  2  0  0  0
 34 32  1  0  0  0
 32 42  1  0  0  0
 42 43  1  0  0  0
 43 44  2  0  0  0
 44 45  1  0  0  0
 45 46  1  0  0  0
 46 47  2  0  0  0
 47 48  1  0  0  0
 48 49  2  0  0  0
 49 50  1  0  0  0
 49 51  1  0  0  0
 51 52  2  0  0  0
 32  1  1  0  0  0
  1  2  1  0  0  0
  2  3  2  0  0  0
  2  5  1  0  0  0
  5  6  1  0  0  0
  6  7  1  0  0  0
  7  8  1  0  0  0
  8  9  1  0  0  0
  9 10  1  0  0  0
 10 11  2  0  0  0
 10 12  1  0  0  0
 12 25  1  0  0  0
 25 26  1  0  0  0
 26 27  2  0  0  0
 27 28  1  0  0  0
 28 29  2  0  0  0
 29 30  1  0  0  0
 30 31  2  0  0  0
 12 13  1  0  0  0
 13 14  1  0  0  0
 14 15  2  0  0  0
 14 17  1  0  0  0
 17 18  1  0  0  0
 18 19  1  0  0  0
 19 20  2  0  0  0
 20 21  1  0  0  0
 21 22  2  0  0  0
 22 23  1  0  0  0
 23 24  2  0  0  0
 52 43  1  0  0  0
  9  5  1  0  0  0
 31 26  1  0  0  0
 24 19  1  0  0  0
 52 46  1  0  0  0
 38 41  1  0  0  0
 33 36  1  0  0  0
 45 53  1  0  0  0
 50 54  1  0  0  0
  1  4  1  0  0  0
 13 16  1  0  0  0
M  END
> <minimizedAffinity>
-8.84576

> <CNNscore>
0.2236064970

> <CNNaffinity>
7.2841629982

> <CNN_VS>
1.6287862062

> <CNNaffinity_variance>
0.1849661767

$$$$
[H]OC(=O)C([H])([H])N([H])C(=O)[C@@]([H])(N([H])C(=O)[C@@]1([H])N(C(=O)[C@@]([H])(N([H])C(=O)OC([H])([H])c2c([H])c([H])c([H])c([H])c2[H])C([H])([H])c2c([H])c([H])c([H])c([H])c2[H])C([H])([H])C([H])([H])C1([H])[H])C([H])([H])c1c([H])n([H])c2c([H])c([H])c(O[H])c([H])c12


 54 58  0  0  0  0  0  0  0  0999 V2000
   12.9444   22.9285   -1.7355 N   0  0  0  0  0  0  0  0  0  0  0  0
   11.6000   22.9426   -1.3784 C   0  0  0  0  0  0  0  0  0  0  0  0
   11.0156   21.8025   -1.3202 O   0  0  0  0  0  0  0  0  0  0  0  0
   13.5016   23.7975   -1.8055 H   0  0  0  0  0  0  0  0  0  0  0  0
   10.7538   24.0945   -1.0580 C   0  0  0  0  0  0  0  0  0  0  0  0
   11.6371   25.3617   -1.0585 C   0  0  0  0  0  0  0  0  0  0  0  0
   12.3787   25.1521    0.2495 C   0  0  0  0  0  0  0  0  0  0  0  0
   11.2817   24.6149    1.1573 C   0  0  0  0  0  0  0  0  0  0  0  0
   10.2414   24.1440    0.2815 N   0  0  0  0  0  0  0  0  0  0  0  0
    8.9173   23.8394    0.6565 C   0  0  0  0  0  0  0  0  0  0  0  0
    8.0676   23.5333   -0.2442 O   0  0  0  0  0  0  0  0  0  0  0  0
    8.4247   23.8538    2.0572 C   0  0  0  0  0  0  0  0  0  0  0  0
    7.4709   22.7549    2.2694 N   0  0  0  0  0  0  0  0  0  0  0  0
    7.9197   21.4017    2.1841 C   0  0  0  0  0  0  0  0  0  0  0  0
    9.1214   21.1952    1.9222 O   0  0  0  0  0  0  0  0  0  0  0  0
    6.4906   22.9596    2.4787 H   0  0  0  0  0  0  0  0  0  0  0  0
    7.0871   20.3155    2.3806 O   0  0  0  0  0  0  0  0  0  0  0  0
    5.7646   20.5838    2.8366 C   0  0  0  0  0  0  0  0  0  0  0  0
    5.5716   20.2962    4.2589 C   0  0  0  0  0  0  0  0  0  0  0  0
    4.6583   19.3070    4.6002 C   0  0  0  0  0  0  0  0  0  0  0  0
    4.3820   18.9398    5.8887 C   0  0  0  0  0  0  0  0  0  0  0  0
    5.0414   19.5786    6.9259 C   0  0  0  0  0  0  0  0  0  0  0  0
    5.9547   20.5665    6.6067 C   0  0  0  0  0  0  0  0  0  0  0  0
    6.2190   20.9238    5.2874 C   0  0  0  0  0  0  0  0  0  0  0  0
    9.5913   23.6307    3.0116 C   0  0  0  0  0  0  0  0  0  0  0  0
    9.1806   23.7869    4.4178 C   0  0  0  0  0  0  0  0  0  0  0  0
    9.4178   22.7631    5.3047 C   0  0  0  0  0  0  0  0  0  0  0  0
    9.0458   22.8606    6.6488 C   0  0  0  0  0  0  0  0  0  0  0  0
    8.4277   24.0310    7.0543 C   0  0  0  0  0  0  0  0  0  0  0  0
    8.1853   25.0635    6.1742 C   0  0  0  0  0  0  0  0  0  0  0  0
    8.5641   24.9299    4.8658 C   0  0  0  0  0  0  0  0  0  0  0  0
   13.6726   21.6773   -2.0315 C   0  0  0  0  0  0  0  0  0  0  0  0
   13.0594   20.9428    0.3588 N   0  0  0  0  0  0  0  0  0  0  0  0
   13.8962   20.9656   -0.7879 C   0  0  0  0  0  0  0  0  0  0  0  0
   14.9701   20.2636   -0.6773 O   0  0  0  0  0  0  0  0  0  0  0  0
   12.1876   21.4955    0.3525 H   0  0  0  0  0  0  0  0  0  0  0  0
   13.3938   20.1810    1.5408 C   0  0  0  0  0  0  0  0  0  0  0  0
   11.5193   19.3425    2.8915 O   0  0  0  0  0  0  0  0  0  0  0  0
   12.3465   20.4003    2.5542 C   0  0  0  0  0  0  0  0  0  0  0  0
   12.1634   21.4952    3.1290 O   0  0  0  0  0  0  0  0  0  0  0  0
   10.5059   19.4423    2.7724 H   0  0  0  0  0  0  0  0  0  0  0  0
   14.9176   22.1485   -2.7574 C   0  0  0  0  0  0  0  0  0  0  0  0
   15.2799   23.5447   -2.5983 C   0  0  0  0  0  0  0  0  0  0  0  0
   15.5632   24.1794   -1.4198 C   0  0  0  0  0  0  0  0  0  0  0  0
   15.8415   25.4803   -1.6590 N   0  0  0  0  0  0  0  0  0  0  0  0
   15.7429   25.7090   -2.9971 C   0  0  0  0  0  0  0  0  0  0  0  0
   15.9252   26.8572   -3.7382 C   0  0  0  0  0  0  0  0  0  0  0  0
   15.7589   26.8126   -5.0991 C   0  0  0  0  0  0  0  0  0  0  0  0
   15.4090   25.6275   -5.7426 C   0  0  0  0  0  0  0  0  0  0  0  0
   15.2581   25.6576   -7.1174 O   0  0  0  0  0  0  0  0  0  0  0  0
   15.2384   24.5129   -4.9595 C   0  0  0  0  0  0  0  0  0  0  0  0
   15.3940   24.5043   -3.5891 C   0  0  0  0  0  0  0  0  0  0  0  0
   16.0923   26.2001   -0.9683 H   0  0  0  0  0  0  0  0  0  0  0  0
   16.1063   25.4586   -7.6616 H   0  0  0  0  0  0  0  0  0  0  0  0
 38 39  1  0  0  0
 39 40  2  0  0  0
 39 37  1  0  0  0
 37 33  1  0  0  0
 33 34  1  0  0  0
 34 35  2  0  0  0
 34 32  1  0  0  0
 32 42  1  0  0  0
 42 43  1  0  0  0
 43 44  2  0  0  0
 44 45  1  0  0  0
 45 46  1  0  0  0
 46 47  2  0  0  0
 47 48  1  0  0  0
 48 49  2  0  0  0
 49 50  1  0  0  0
 49 51  1  0  0  0
 51 52  2  0  0  0
 32  1  1  0  0  0
  1  2  1  0  0  0
  2  3  2  0  0  0
  2  5  1  0  0  0
  5  6  1  0  0  0
  6  7  1  0  0  0
  7  8  1  0  0  0
  8  9  1  0  0  0
  9 10  1  0  0  0
 10 11  2  0  0  0
 10 12  1  0  0  0
 12 25  1  0  0  0
 25 26  1  0  0  0
 26 27  2  0  0  0
 27 28  1  0  0  0
 28 29  2  0  0  0
 29 30  1  0  0  0
 30 31  2  0  0  0
 12 13  1  0  0  0
 13 14  1  0  0  0
 14 15  2  0  0  0
 14 17  1  0  0  0
 17 18  1  0  0  0
 18 19  1  0  0  0
 19 20  2  0  0  0
 20 21  1  0  0  0
 21 22  2  0  0  0
 22 23  1  0  0  0
 23 24  2  0  0  0
 52 43  1  0  0  0
  9  5  1  0  0  0
 31 26  1  0  0  0
 24 19  1  0  0  0
 52 46  1  0  0  0
 38 41  1  0  0  0
 33 36  1  0  0  0
 45 53  1  0  0  0
 50 54  1  0  0  0
  1  4  1  0  0  0
 13 16  1  0  0  0
M  END
> <minimizedAffinity>
-7.82489

> <CNNscore>
0.2045130432

> <CNNaffinity>
7.4919204712

> <CNN_VS>
1.5321954489

> <CNNaffinity_variance>
0.0880189240

$$$$
[H]OC(=O)c1c([H])c(C([H])([H])[H])c(N2C([H])([H])C([H])([H])N(c3nc([H])nc(-c4c([H])nn([H])c4C([H])([H])[H])c3[H])C([H])([H])C2([H])[H])c(C([H])([H])[H])c1[H]


 31 34  0  0  0  0  0  0  0  0999 V2000
   13.0790   23.3210   -1.2345 N   0  0  0  0  0  0  0  0  0  0  0  0
   13.2079   22.0884   -0.4894 C   0  0  0  0  0  0  0  0  0  0  0  0
   12.2011   22.0921    0.6349 C   0  0  0  0  0  0  0  0  0  0  0  0
   10.8980   22.5169    0.1907 N   0  0  0  0  0  0  0  0  0  0  0  0
   10.6983   22.8119   -1.2117 C   0  0  0  0  0  0  0  0  0  0  0  0
   11.7785   23.7340   -1.7003 C   0  0  0  0  0  0  0  0  0  0  0  0
    9.8633   22.6250    1.1486 C   0  0  0  0  0  0  0  0  0  0  0  0
    9.7602   23.7578    1.9215 C   0  0  0  0  0  0  0  0  0  0  0  0
   10.6801   24.9195    1.8160 C   0  0  0  0  0  0  0  0  0  0  0  0
    8.7241   23.7822    2.8373 C   0  0  0  0  0  0  0  0  0  0  0  0
    7.8132   22.7698    3.0184 C   0  0  0  0  0  0  0  0  0  0  0  0
    7.9556   21.6353    2.2099 C   0  0  0  0  0  0  0  0  0  0  0  0
    8.9762   21.5765    1.2870 C   0  0  0  0  0  0  0  0  0  0  0  0
    9.0790   20.3395    0.4512 C   0  0  0  0  0  0  0  0  0  0  0  0
    6.7417   22.8405    3.9929 C   0  0  0  0  0  0  0  0  0  0  0  0
    6.1955   24.0541    4.3316 O   0  0  0  0  0  0  0  0  0  0  0  0
    6.3190   21.7969    4.5216 O   0  0  0  0  0  0  0  0  0  0  0  0
    6.3113   24.5170    5.2148 H   0  0  0  0  0  0  0  0  0  0  0  0
   15.3920   25.6560   -2.9255 C   0  0  0  0  0  0  0  0  0  0  0  0
   14.2865   24.8874   -2.6774 C   0  0  0  0  0  0  0  0  0  0  0  0
   14.2072   24.1196   -1.5096 C   0  0  0  0  0  0  0  0  0  0  0  0
   15.2327   24.1616   -0.6564 N   0  0  0  0  0  0  0  0  0  0  0  0
   16.3200   24.9086   -0.8854 C   0  0  0  0  0  0  0  0  0  0  0  0
   16.3836   25.6251   -1.9847 N   0  0  0  0  0  0  0  0  0  0  0  0
   17.4420   28.1071   -3.5919 C   0  0  0  0  0  0  0  0  0  0  0  0
   16.3934   27.5131   -4.4174 C   0  0  0  0  0  0  0  0  0  0  0  0
   16.0982   27.9453   -5.6729 N   0  0  0  0  0  0  0  0  0  0  0  0
   15.1161   27.2449   -6.1689 N   0  0  0  0  0  0  0  0  0  0  0  0
   14.7572   26.3459   -5.2440 C   0  0  0  0  0  0  0  0  0  0  0  0
   15.5618   26.4913   -4.1013 C   0  0  0  0  0  0  0  0  0  0  0  0
   16.5795   28.7228   -6.1769 H   0  0  0  0  0  0  0  0  0  0  0  0
 25 26  1  0  0  0
 26 27  1  0  0  0
 27 28  1  0  0  0
 28 29  2  0  0  0
 29 30  1  0  0  0
 30 19  1  0  0  0
 19 20  2  0  0  0
 20 21  1  0  0  0
 21 22  2  0  0  0
 22 23  1  0  0  0
 23 24  2  0  0  0
 21  1  1  0  0  0
  1  2  1  0  0  0
  2  3  1  0  0  0
  3  4  1  0  0  0
  4  5  1  0  0  0
  5  6  1  0  0  0
  4  7  1  0  0  0
  7  8  2  0  0  0
  8  9  1  0  0  0
  8 10  1  0  0  0
 10 11  2  0  0  0
 11 12  1  0  0  0
 12 13  2  0  0  0
 13 14  1  0  0  0
 11 15  1  0  0  0
 15 16  1  0  0  0
 15 17  2  0  0  0
 30 26  2  0  0  0
 24 19  1  0  0  0
  6  1  1  0  0  0
 13  7  1  0  0  0
 27 31  1  0  0  0
 16 18  1  0  0  0
M  END
> <minimizedAffinity>
-7.80684

> <CNNscore>
0.6126130223

> <CNNaffinity>
7.4277763367

> <CNN_VS>
4.5503525734

> <CNNaffinity_variance>
0.3450582623

$$$$
[H]OC(=O)c1c([H])c(C([H])([H])[H])c(N2C([H])([H])C([H])([H])N(c3nc([H])nc(-c4c([H])nn([H])c4C([H])([H])[H])c3[H])C([H])([H])C2([H])[H])c(C([H])([H])[H])c1[H]


 31 34  0  0  0  0  0  0  0  0999 V2000
   13.3369   23.3356   -1.2005 N   0  0  0  0  0  0  0  0  0  0  0  0
   13.4682   22.1624   -0.3653 C   0  0  0  0  0  0  0  0  0  0  0  0
   12.4016   22.2030    0.7017 C   0  0  0  0  0  0  0  0  0  0  0  0
   11.1107   22.5453    0.1611 N   0  0  0  0  0  0  0  0  0  0  0  0
   10.9781   22.7364   -1.2670 C   0  0  0  0  0  0  0  0  0  0  0  0
   12.0501   23.6648   -1.7615 C   0  0  0  0  0  0  0  0  0  0  0  0
   10.0216   22.6776    1.0535 C   0  0  0  0  0  0  0  0  0  0  0  0
    9.1165   21.6510    1.1874 C   0  0  0  0  0  0  0  0  0  0  0  0
    9.2049   20.3664    0.4465 C   0  0  0  0  0  0  0  0  0  0  0  0
    8.0784   21.8617    2.0766 C   0  0  0  0  0  0  0  0  0  0  0  0
    7.8995   23.0052    2.8168 C   0  0  0  0  0  0  0  0  0  0  0  0
    8.8449   24.0246    2.6492 C   0  0  0  0  0  0  0  0  0  0  0  0
    9.8920   23.8491    1.7719 C   0  0  0  0  0  0  0  0  0  0  0  0
   10.8711   24.9724    1.6341 C   0  0  0  0  0  0  0  0  0  0  0  0
    6.7936   23.1812    3.7381 C   0  0  0  0  0  0  0  0  0  0  0  0
    6.1891   22.0875    4.3079 O   0  0  0  0  0  0  0  0  0  0  0  0
    6.3941   24.3272    4.0105 O   0  0  0  0  0  0  0  0  0  0  0  0
    5.2646   21.7588    4.0960 H   0  0  0  0  0  0  0  0  0  0  0  0
   15.5820   25.7625   -2.8530 C   0  0  0  0  0  0  0  0  0  0  0  0
   14.4911   24.9722   -2.6086 C   0  0  0  0  0  0  0  0  0  0  0  0
   14.4494   24.1573   -1.4713 C   0  0  0  0  0  0  0  0  0  0  0  0
   15.4959   24.1765   -0.6430 N   0  0  0  0  0  0  0  0  0  0  0  0
   16.5692   24.9443   -0.8687 C   0  0  0  0  0  0  0  0  0  0  0  0
   16.5975   25.7051   -1.9394 N   0  0  0  0  0  0  0  0  0  0  0  0
   17.7237   28.1210   -3.5638 C   0  0  0  0  0  0  0  0  0  0  0  0
   16.5803   27.6327   -4.3306 C   0  0  0  0  0  0  0  0  0  0  0  0
   16.2176   28.1459   -5.5369 N   0  0  0  0  0  0  0  0  0  0  0  0
   15.1588   27.5307   -5.9860 N   0  0  0  0  0  0  0  0  0  0  0  0
   14.8163   26.6074   -5.0789 C   0  0  0  0  0  0  0  0  0  0  0  0
   15.7133   26.6462   -3.9980 C   0  0  0  0  0  0  0  0  0  0  0  0
   16.7065   28.9191   -6.0404 H   0  0  0  0  0  0  0  0  0  0  0  0
 25 26  1  0  0  0
 26 27  1  0  0  0
 27 28  1  0  0  0
 28 29  2  0  0  0
 29 30  1  0  0  0
 30 19  1  0  0  0
 19 20  2  0  0  0
 20 21  1  0  0  0
 21 22  2  0  0  0
 22 23  1  0  0  0
 23 24  2  0  0  0
 21  1  1  0  0  0
  1  2  1  0  0  0
  2  3  1  0  0  0
  3  4  1  0  0  0
  4  5  1  0  0  0
  5  6  1  0  0  0
  4  7  1  0  0  0
  7  8  2  0  0  0
  8  9  1  0  0  0
  8 10  1  0  0  0
 10 11  2  0  0  0
 11 12  1  0  0  0
 12 13  2  0  0  0
 13 14  1  0  0  0
 11 15  1  0  0  0
 15 16  1  0  0  0
 15 17  2  0  0  0
 30 26  2  0  0  0
 24 19  1  0  0  0
  6  1  1  0  0  0
 13  7  1  0  0  0
 27 31  1  0  0  0
 16 18  1  0  0  0
M  END
> <minimizedAffinity>
-7.86624

> <CNNscore>
0.5909186602

> <CNNaffinity>
7.4635186195

> <CNN_VS>
4.4103322029

> <CNNaffinity_variance>
0.4151379466

$$$$
[H]OC(=O)c1c([H])c(C([H])([H])[H])c(N2C([H])([H])C([H])([H])N(c3nc([H])nc(-c4c([H])nn([H])c4C([H])([H])[H])c3[H])C([H])([H])C2([H])[H])c(C([H])([H])[H])c1[H]


 31 34  0  0  0  0  0  0  0  0999 V2000
   13.8645   23.2101   -1.3025 N   0  0  0  0  0  0  0  0  0  0  0  0
   14.2968   22.1061   -0.4746 C   0  0  0  0  0  0  0  0  0  0  0  0
   13.4848   22.1051    0.7976 C   0  0  0  0  0  0  0  0  0  0  0  0
   12.0791   22.2881    0.5405 N   0  0  0  0  0  0  0  0  0  0  0  0
   11.6245   22.3816   -0.8300 C   0  0  0  0  0  0  0  0  0  0  0  0
   12.4597   23.3794   -1.5800 C   0  0  0  0  0  0  0  0  0  0  0  0
   11.1982   22.3658    1.6441 C   0  0  0  0  0  0  0  0  0  0  0  0
   10.9011   21.2331    2.3651 C   0  0  0  0  0  0  0  0  0  0  0  0
   11.4619   19.8901    2.0670 C   0  0  0  0  0  0  0  0  0  0  0  0
   10.0280   21.3935    3.4256 C   0  0  0  0  0  0  0  0  0  0  0  0
    9.4530   22.5854    3.7950 C   0  0  0  0  0  0  0  0  0  0  0  0
    9.7837   23.7129    3.0333 C   0  0  0  0  0  0  0  0  0  0  0  0
   10.6501   23.5901    1.9697 C   0  0  0  0  0  0  0  0  0  0  0  0
   10.9667   24.8289    1.1922 C   0  0  0  0  0  0  0  0  0  0  0  0
    8.5416   22.7052    4.9164 C   0  0  0  0  0  0  0  0  0  0  0  0
    7.9223   21.5898    5.4248 O   0  0  0  0  0  0  0  0  0  0  0  0
    8.3224   23.8228    5.4165 O   0  0  0  0  0  0  0  0  0  0  0  0
    6.9447   21.3784    5.3389 H   0  0  0  0  0  0  0  0  0  0  0  0
   15.6527   25.4030   -3.6806 C   0  0  0  0  0  0  0  0  0  0  0  0
   14.7350   24.5194   -3.1791 C   0  0  0  0  0  0  0  0  0  0  0  0
   14.7985   24.1189   -1.8393 C   0  0  0  0  0  0  0  0  0  0  0  0
   15.7717   24.6211   -1.0764 N   0  0  0  0  0  0  0  0  0  0  0  0
   16.6758   25.4860   -1.5527 C   0  0  0  0  0  0  0  0  0  0  0  0
   16.6067   25.8549   -2.8117 N   0  0  0  0  0  0  0  0  0  0  0  0
   16.0275   28.3862   -4.9512 C   0  0  0  0  0  0  0  0  0  0  0  0
   15.8133   27.1046   -5.6186 C   0  0  0  0  0  0  0  0  0  0  0  0
   15.7214   26.9736   -6.9694 N   0  0  0  0  0  0  0  0  0  0  0  0
   15.5189   25.7246   -7.2861 N   0  0  0  0  0  0  0  0  0  0  0  0
   15.4761   25.0235   -6.1462 C   0  0  0  0  0  0  0  0  0  0  0  0
   15.6631   25.8836   -5.0509 C   0  0  0  0  0  0  0  0  0  0  0  0
   15.7996   27.7508   -7.6622 H   0  0  0  0  0  0  0  0  0  0  0  0
 25 26  1  0  0  0
 26 27  1  0  0  0
 27 28  1  0  0  0
 28 29  2  0  0  0
 29 30  1  0  0  0
 30 19  1  0  0  0
 19 20  2  0  0  0
 20 21  1  0  0  0
 21 22  2  0  0  0
 22 23  1  0  0  0
 23 24  2  0  0  0
 21  1  1  0  0  0
  1  2  1  0  0  0
  2  3  1  0  0  0
  3  4  1  0  0  0
  4  5  1  0  0  0
  5  6  1  0  0  0
  4  7  1  0  0  0
  7  8  2  0  0  0
  8  9  1  0  0  0
  8 10  1  0  0  0
 10 11  2  0  0  0
 11 12  1  0  0  0
 12 13  2  0  0  0
 13 14  1  0  0  0
 11 15  1  0  0  0
 15 16  1  0  0  0
 15 17  2  0  0  0
 30 26  2  0  0  0
 24 19  1  0  0  0
  6  1  1  0  0  0
 13  7  1  0  0  0
 27 31  1  0  0  0
 16 18  1  0  0  0
M  END
> <minimizedAffinity>
-8.20140

> <CNNscore>
0.4884705842

> <CNNaffinity>
7.3484029770

> <CNN_VS>
3.5894787312

> <CNNaffinity_variance>
0.2981216013

$$$$
[H]OC(=O)c1c([H])c(C([H])([H])[H])c(N2C([H])([H])C([H])([H])N(c3nc([H])nc(-c4c([H])nn([H])c4C([H])([H])[H])c3[H])C([H])([H])C2([H])[H])c(C([H])([H])[H])c1[H]


 31 34  0  0  0  0  0  0  0  0999 V2000
   12.6429   24.2977   -0.6544 N   0  0  0  0  0  0  0  0  0  0  0  0
   11.9149   23.2639   -1.3562 C   0  0  0  0  0  0  0  0  0  0  0  0
   11.3014   22.3280   -0.3435 C   0  0  0  0  0  0  0  0  0  0  0  0
   10.6580   23.0416    0.7300 N   0  0  0  0  0  0  0  0  0  0  0  0
   10.6187   24.4873    0.6850 C   0  0  0  0  0  0  0  0  0  0  0  0
   11.9911   25.0287    0.4038 C   0  0  0  0  0  0  0  0  0  0  0  0
   10.0862   22.2947    1.7861 C   0  0  0  0  0  0  0  0  0  0  0  0
   10.8972   21.5927    2.6466 C   0  0  0  0  0  0  0  0  0  0  0  0
   12.3796   21.5661    2.5523 C   0  0  0  0  0  0  0  0  0  0  0  0
   10.2594   20.8846    3.6489 C   0  0  0  0  0  0  0  0  0  0  0  0
    8.8987   20.8402    3.8341 C   0  0  0  0  0  0  0  0  0  0  0  0
    8.1114   21.5699    2.9350 C   0  0  0  0  0  0  0  0  0  0  0  0
    8.7128   22.2867    1.9243 C   0  0  0  0  0  0  0  0  0  0  0  0
    7.8210   23.0471    0.9938 C   0  0  0  0  0  0  0  0  0  0  0  0
    8.2742   20.0825    4.9011 C   0  0  0  0  0  0  0  0  0  0  0  0
    7.0189   20.4200    5.3442 O   0  0  0  0  0  0  0  0  0  0  0  0
    8.8802   19.1250    5.4142 O   0  0  0  0  0  0  0  0  0  0  0  0
    6.8089   20.8323    6.2351 H   0  0  0  0  0  0  0  0  0  0  0  0
   15.5863   25.7311   -2.3699 C   0  0  0  0  0  0  0  0  0  0  0  0
   14.2826   25.4536   -2.0575 C   0  0  0  0  0  0  0  0  0  0  0  0
   13.9777   24.5974   -0.9930 C   0  0  0  0  0  0  0  0  0  0  0  0
   14.9884   24.0672   -0.3008 N   0  0  0  0  0  0  0  0  0  0  0  0
   16.2680   24.3295   -0.5944 C   0  0  0  0  0  0  0  0  0  0  0  0
   16.5423   25.1345   -1.5957 N   0  0  0  0  0  0  0  0  0  0  0  0
   14.4251   26.1988   -5.3844 C   0  0  0  0  0  0  0  0  0  0  0  0
   15.5510   26.8357   -4.7057 C   0  0  0  0  0  0  0  0  0  0  0  0
   16.3386   27.7774   -5.2913 N   0  0  0  0  0  0  0  0  0  0  0  0
   17.2693   28.1621   -4.4624 N   0  0  0  0  0  0  0  0  0  0  0  0
   17.1015   27.4768   -3.3246 C   0  0  0  0  0  0  0  0  0  0  0  0
   16.0008   26.6120   -3.4475 C   0  0  0  0  0  0  0  0  0  0  0  0
   16.2256   28.1467   -6.2614 H   0  0  0  0  0  0  0  0  0  0  0  0
 25 26  1  0  0  0
 26 27  1  0  0  0
 27 28  1  0  0  0
 28 29  2  0  0  0
 29 30  1  0  0  0
 30 19  1  0  0  0
 19 20  2  0  0  0
 20 21  1  0  0  0
 21 22  2  0  0  0
 22 23  1  0  0  0
 23 24  2  0  0  0
 21  1  1  0  0  0
  1  2  1  0  0  0
  2  3  1  0  0  0
  3  4  1  0  0  0
  4  5  1  0  0  0
  5  6  1  0  0  0
  4  7  1  0  0  0
  7  8  2  0  0  0
  8  9  1  0  0  0
  8 10  1  0  0  0
 10 11  2  0  0  0
 11 12  1  0  0  0
 12 13  2  0  0  0
 13 14  1  0  0  0
 11 15  1  0  0  0
 15 16  1  0  0  0
 15 17  2  0  0  0
 30 26  2  0  0  0
 24 19  1  0  0  0
  6  1  1  0  0  0
 13  7  1  0  0  0
 27 31  1  0  0  0
 16 18  1  0  0  0
M  END
> <minimizedAffinity>
-6.71657

> <CNNscore>
0.4597626626

> <CNNaffinity>
7.2142133713

> <CNN_VS>
3.3168258667

> <CNNaffinity_variance>
0.4194457531

$$$$
[H]OC(=O)c1c([H])c(C([H])([H])[H])c(N2C([H])([H])C([H])([H])N(c3nc([H])nc(-c4c([H])nn([H])c4C([H])([H])[H])c3[H])C([H])([H])C2([H])[H])c(C([H])([H])[H])c1[H]


 31 34  0  0  0  0  0  0  0  0999 V2000
   14.1256   22.6504   -1.0093 N   0  0  0  0  0  0  0  0  0  0  0  0
   14.3595   23.3728    0.2214 C   0  0  0  0  0  0  0  0  0  0  0  0
   13.0344   23.6163    0.9018 C   0  0  0  0  0  0  0  0  0  0  0  0
   12.2128   22.4330    0.9216 N   0  0  0  0  0  0  0  0  0  0  0  0
   12.7447   21.2022    0.3775 C   0  0  0  0  0  0  0  0  0  0  0  0
   13.3235   21.4525   -0.9856 C   0  0  0  0  0  0  0  0  0  0  0  0
   10.9158   22.5243    1.4778 C   0  0  0  0  0  0  0  0  0  0  0  0
   10.6555   21.9630    2.7059 C   0  0  0  0  0  0  0  0  0  0  0  0
   11.6712   21.2516    3.5240 C   0  0  0  0  0  0  0  0  0  0  0  0
    9.3614   22.0920    3.1764 C   0  0  0  0  0  0  0  0  0  0  0  0
    8.3442   22.7309    2.5095 C   0  0  0  0  0  0  0  0  0  0  0  0
    8.6539   23.2879    1.2626 C   0  0  0  0  0  0  0  0  0  0  0  0
    9.9327   23.1783    0.7628 C   0  0  0  0  0  0  0  0  0  0  0  0
   10.2049   23.7928   -0.5742 C   0  0  0  0  0  0  0  0  0  0  0  0
    7.0006   22.8412    3.0436 C   0  0  0  0  0  0  0  0  0  0  0  0
    6.6088   23.9842    3.6962 O   0  0  0  0  0  0  0  0  0  0  0  0
    6.2036   21.8958    2.9084 O   0  0  0  0  0  0  0  0  0  0  0  0
    6.4342   24.0593    4.6819 H   0  0  0  0  0  0  0  0  0  0  0  0
   15.5938   24.8544   -3.5877 C   0  0  0  0  0  0  0  0  0  0  0  0
   15.0658   24.4355   -2.3960 C   0  0  0  0  0  0  0  0  0  0  0  0
   14.6720   23.1030   -2.2271 C   0  0  0  0  0  0  0  0  0  0  0  0
   14.8268   22.2645   -3.2540 N   0  0  0  0  0  0  0  0  0  0  0  0
   15.3419   22.6596   -4.4249 C   0  0  0  0  0  0  0  0  0  0  0  0
   15.7080   23.9127   -4.5723 N   0  0  0  0  0  0  0  0  0  0  0  0
   15.0711   26.8754   -6.0970 C   0  0  0  0  0  0  0  0  0  0  0  0
   15.8473   27.0797   -4.8766 C   0  0  0  0  0  0  0  0  0  0  0  0
   16.5219   28.2293   -4.6057 N   0  0  0  0  0  0  0  0  0  0  0  0
   17.1340   28.1304   -3.4582 N   0  0  0  0  0  0  0  0  0  0  0  0
   16.8669   26.9148   -2.9645 C   0  0  0  0  0  0  0  0  0  0  0  0
   16.0387   26.2108   -3.8548 C   0  0  0  0  0  0  0  0  0  0  0  0
   16.5534   29.0744   -5.2181 H   0  0  0  0  0  0  0  0  0  0  0  0
 25 26  1  0  0  0
 26 27  1  0  0  0
 27 28  1  0  0  0
 28 29  2  0  0  0
 29 30  1  0  0  0
 30 19  1  0  0  0
 19 20  2  0  0  0
 20 21  1  0  0  0
 21 22  2  0  0  0
 22 23  1  0  0  0
 23 24  2  0  0  0
 21  1  1  0  0  0
  1  2  1  0  0  0
  2  3  1  0  0  0
  3  4  1  0  0  0
  4  5  1  0  0  0
  5  6  1  0  0  0
  4  7  1  0  0  0
  7  8  2  0  0  0
  8  9  1  0  0  0
  8 10  1  0  0  0
 10 11  2  0  0  0
 11 12  1  0  0  0
 12 13  2  0  0  0
 13 14  1  0  0  0
 11 15  1  0  0  0
 15 16  1  0  0  0
 15 17  2  0  0  0
 30 26  2  0  0  0
 24 19  1  0  0  0
  6  1  1  0  0  0
 13  7  1  0  0  0
 27 31  1  0  0  0
 16 18  1  0  0  0
M  END
> <minimizedAffinity>
-9.29984

> <CNNscore>
0.4526855350

> <CNNaffinity>
7.1967668533

> <CNN_VS>
3.2578723431

> <CNNaffinity_variance>
0.1575483531

$$$$
[H]OC(=O)c1c([H])c(C([H])([H])[H])c(N2C([H])([H])C([H])([H])N(c3nc([H])nc(-c4c([H])nn([H])c4C([H])([H])[H])c3[H])C([H])([H])C2([H])[H])c(C([H])([H])[H])c1[H]


 31 34  0  0  0  0  0  0  0  0999 V2000
   12.0039   24.4421   -1.9777 N   0  0  0  0  0  0  0  0  0  0  0  0
   12.1376   25.5788   -1.0939 C   0  0  0  0  0  0  0  0  0  0  0  0
   13.5212   26.1599   -1.2547 C   0  0  0  0  0  0  0  0  0  0  0  0
   13.8922   26.2940   -2.6403 N   0  0  0  0  0  0  0  0  0  0  0  0
   12.9295   25.9385   -3.6604 C   0  0  0  0  0  0  0  0  0  0  0  0
   12.3521   24.5828   -3.3698 C   0  0  0  0  0  0  0  0  0  0  0  0
   15.1872   26.7730   -2.9464 C   0  0  0  0  0  0  0  0  0  0  0  0
   15.3461   27.7717   -3.8782 C   0  0  0  0  0  0  0  0  0  0  0  0
   14.2209   28.4131   -4.6057 C   0  0  0  0  0  0  0  0  0  0  0  0
   16.6447   28.1797   -4.1233 C   0  0  0  0  0  0  0  0  0  0  0  0
   17.7589   27.6620   -3.5083 C   0  0  0  0  0  0  0  0  0  0  0  0
   17.5504   26.6472   -2.5662 C   0  0  0  0  0  0  0  0  0  0  0  0
   16.2704   26.2158   -2.2971 C   0  0  0  0  0  0  0  0  0  0  0  0
   16.1089   25.1288   -1.2813 C   0  0  0  0  0  0  0  0  0  0  0  0
   19.1031   28.1224   -3.7982 C   0  0  0  0  0  0  0  0  0  0  0  0
   19.3223   29.4291   -4.1594 O   0  0  0  0  0  0  0  0  0  0  0  0
   20.0575   27.3287   -3.7186 O   0  0  0  0  0  0  0  0  0  0  0  0
   19.5902   29.7415   -5.0750 H   0  0  0  0  0  0  0  0  0  0  0  0
   11.5635   21.4507    0.1481 C   0  0  0  0  0  0  0  0  0  0  0  0
   12.0294   22.6564   -0.3031 C   0  0  0  0  0  0  0  0  0  0  0  0
   11.5381   23.2027   -1.4945 C   0  0  0  0  0  0  0  0  0  0  0  0
   10.6115   22.5174   -2.1677 N   0  0  0  0  0  0  0  0  0  0  0  0
   10.1463   21.3375   -1.7387 C   0  0  0  0  0  0  0  0  0  0  0  0
   10.6146   20.8343   -0.6192 N   0  0  0  0  0  0  0  0  0  0  0  0
   14.4947   20.4195    1.1478 C   0  0  0  0  0  0  0  0  0  0  0  0
   13.2023   20.3667    1.8265 C   0  0  0  0  0  0  0  0  0  0  0  0
   13.0307   19.8251    3.0624 N   0  0  0  0  0  0  0  0  0  0  0  0
   11.7776   19.9026    3.4160 N   0  0  0  0  0  0  0  0  0  0  0  0
   11.1144   20.4961    2.4157 C   0  0  0  0  0  0  0  0  0  0  0  0
   12.0043   20.8091    1.3742 C   0  0  0  0  0  0  0  0  0  0  0  0
   13.7833   19.4054    3.6520 H   0  0  0  0  0  0  0  0  0  0  0  0
 25 26  1  0  0  0
 26 27  1  0  0  0
 27 28  1  0  0  0
 28 29  2  0  0  0
 29 30  1  0  0  0
 30 19  1  0  0  0
 19 20  2  0  0  0
 20 21  1  0  0  0
 21 22  2  0  0  0
 22 23  1  0  0  0
 23 24  2  0  0  0
 21  1  1  0  0  0
  1  2  1  0  0  0
  2  3  1  0  0  0
  3  4  1  0  0  0
  4  5  1  0  0  0
  5  6  1  0  0  0
  4  7  1  0  0  0
  7  8  2  0  0  0
  8  9  1  0  0  0
  8 10  1  0  0  0
 10 11  2  0  0  0
 11 12  1  0  0  0
 12 13  2  0  0  0
 13 14  1  0  0  0
 11 15  1  0  0  0
 15 16  1  0  0  0
 15 17  2  0  0  0
 30 26  2  0  0  0
 24 19  1  0  0  0
  6  1  1  0  0  0
 13  7  1  0  0  0
 27 31  1  0  0  0
 16 18  1  0  0  0
M  END
> <minimizedAffinity>
3.97080

> <CNNscore>
0.4362893999

> <CNNaffinity>
7.2706389427

> <CNN_VS>
3.1721026897

> <CNNaffinity_variance>
1.4008718729

$$$$
[H]OC(=O)c1c([H])c(C([H])([H])[H])c(N2C([H])([H])C([H])([H])N(c3nc([H])nc(-c4c([H])nn([H])c4C([H])([H])[H])c3[H])C([H])([H])C2([H])[H])c(C([H])([H])[H])c1[H]


 31 34  0  0  0  0  0  0  0  0999 V2000
   14.0627   22.6229   -1.0123 N   0  0  0  0  0  0  0  0  0  0  0  0
   14.3010   23.3287    0.2271 C   0  0  0  0  0  0  0  0  0  0  0  0
   12.9750   23.6010    0.8945 C   0  0  0  0  0  0  0  0  0  0  0  0
   12.1226   22.4395    0.8948 N   0  0  0  0  0  0  0  0  0  0  0  0
   12.6286   21.1998    0.3462 C   0  0  0  0  0  0  0  0  0  0  0  0
   13.2294   21.4462   -1.0081 C   0  0  0  0  0  0  0  0  0  0  0  0
   10.8221   22.5599    1.4369 C   0  0  0  0  0  0  0  0  0  0  0  0
    9.8447   23.2235    0.7330 C   0  0  0  0  0  0  0  0  0  0  0  0
   10.0573   23.8364   -0.6035 C   0  0  0  0  0  0  0  0  0  0  0  0
    8.6020   23.3012    1.3351 C   0  0  0  0  0  0  0  0  0  0  0  0
    8.2906   22.7693    2.5630 C   0  0  0  0  0  0  0  0  0  0  0  0
    9.3159   22.1020    3.2444 C   0  0  0  0  0  0  0  0  0  0  0  0
   10.5662   22.0055    2.6749 C   0  0  0  0  0  0  0  0  0  0  0  0
   11.6221   21.2812    3.4493 C   0  0  0  0  0  0  0  0  0  0  0  0
    6.9712   22.8760    3.1550 C   0  0  0  0  0  0  0  0  0  0  0  0
    6.5899   24.0339    3.7872 O   0  0  0  0  0  0  0  0  0  0  0  0
    6.1855   21.9140    3.0881 O   0  0  0  0  0  0  0  0  0  0  0  0
    6.4593   24.1394    4.7769 H   0  0  0  0  0  0  0  0  0  0  0  0
   15.5782   24.8195   -3.5696 C   0  0  0  0  0  0  0  0  0  0  0  0
   15.0250   24.4048   -2.3879 C   0  0  0  0  0  0  0  0  0  0  0  0
   14.6347   23.0711   -2.2199 C   0  0  0  0  0  0  0  0  0  0  0  0
   14.8179   22.2274   -3.2378 N   0  0  0  0  0  0  0  0  0  0  0  0
   15.3578   22.6183   -4.3989 C   0  0  0  0  0  0  0  0  0  0  0  0
   15.7204   23.8725   -4.5454 N   0  0  0  0  0  0  0  0  0  0  0  0
   15.0715   26.8358   -6.0860 C   0  0  0  0  0  0  0  0  0  0  0  0
   15.8367   27.0438   -4.8593 C   0  0  0  0  0  0  0  0  0  0  0  0
   16.5058   28.1956   -4.5841 N   0  0  0  0  0  0  0  0  0  0  0  0
   17.1084   28.0998   -3.4313 N   0  0  0  0  0  0  0  0  0  0  0  0
   16.8404   26.8841   -2.9383 C   0  0  0  0  0  0  0  0  0  0  0  0
   16.0217   26.1767   -3.8348 C   0  0  0  0  0  0  0  0  0  0  0  0
   16.5403   29.0399   -5.1974 H   0  0  0  0  0  0  0  0  0  0  0  0
 25 26  1  0  0  0
 26 27  1  0  0  0
 27 28  1  0  0  0
 28 29  2  0  0  0
 29 30  1  0  0  0
 30 19  1  0  0  0
 19 20  2  0  0  0
 20 21  1  0  0  0
 21 22  2  0  0  0
 22 23  1  0  0  0
 23 24  2  0  0  0
 21  1  1  0  0  0
  1  2  1  0  0  0
  2  3  1  0  0  0
  3  4  1  0  0  0
  4  5  1  0  0  0
  5  6  1  0  0  0
  4  7  1  0  0  0
  7  8  2  0  0  0
  8  9  1  0  0  0
  8 10  1  0  0  0
 10 11  2  0  0  0
 11 12  1  0  0  0
 12 13  2  0  0  0
 13 14  1  0  0  0
 11 15  1  0  0  0
 15 16  1  0  0  0
 15 17  2  0  0  0
 30 26  2  0  0  0
 24 19  1  0  0  0
  6  1  1  0  0  0
 13  7  1  0  0  0
 27 31  1  0  0  0
 16 18  1  0  0  0
M  END
> <minimizedAffinity>
-9.18917

> <CNNscore>
0.4167590737

> <CNNaffinity>
7.1479048729

> <CNN_VS>
2.9789543152

> <CNNaffinity_variance>
0.1521084607

$$$$
[H]OC(=O)c1c([H])c(C([H])([H])[H])c(N2C([H])([H])C([H])([H])N(c3nc([H])nc(-c4c([H])nn([H])c4C([H])([H])[H])c3[H])C([H])([H])C2([H])[H])c(C([H])([H])[H])c1[H]


 31 34  0  0  0  0  0  0  0  0999 V2000
   12.1054   23.9307    1.3446 N   0  0  0  0  0  0  0  0  0  0  0  0
   12.7588   22.7051    0.9420 C   0  0  0  0  0  0  0  0  0  0  0  0
   13.2749   22.8692   -0.4668 C   0  0  0  0  0  0  0  0  0  0  0  0
   13.9550   24.1261   -0.6492 N   0  0  0  0  0  0  0  0  0  0  0  0
   14.1135   25.0076    0.4873 C   0  0  0  0  0  0  0  0  0  0  0  0
   12.7955   25.1866    1.1848 C   0  0  0  0  0  0  0  0  0  0  0  0
   14.4442   24.4453   -1.9371 C   0  0  0  0  0  0  0  0  0  0  0  0
   14.8231   25.7352   -2.2262 C   0  0  0  0  0  0  0  0  0  0  0  0
   14.7636   26.8547   -1.2515 C   0  0  0  0  0  0  0  0  0  0  0  0
   15.2855   25.9647   -3.5093 C   0  0  0  0  0  0  0  0  0  0  0  0
   15.3876   25.0073   -4.4894 C   0  0  0  0  0  0  0  0  0  0  0  0
   14.9910   23.7076   -4.1512 C   0  0  0  0  0  0  0  0  0  0  0  0
   14.5252   23.4427   -2.8824 C   0  0  0  0  0  0  0  0  0  0  0  0
   14.1158   22.0358   -2.5785 C   0  0  0  0  0  0  0  0  0  0  0  0
   15.8792   25.2956   -5.8228 C   0  0  0  0  0  0  0  0  0  0  0  0
   16.9291   26.1631   -5.9989 O   0  0  0  0  0  0  0  0  0  0  0  0
   15.3457   24.7539   -6.8073 O   0  0  0  0  0  0  0  0  0  0  0  0
   16.8634   27.0803   -6.4018 H   0  0  0  0  0  0  0  0  0  0  0  0
    8.7210   22.7896    2.2961 C   0  0  0  0  0  0  0  0  0  0  0  0
    9.9803   22.7879    1.7590 C   0  0  0  0  0  0  0  0  0  0  0  0
   10.8060   23.9106    1.8901 C   0  0  0  0  0  0  0  0  0  0  0  0
   10.3305   24.9697    2.5486 N   0  0  0  0  0  0  0  0  0  0  0  0
    9.1015   24.9858    3.0794 C   0  0  0  0  0  0  0  0  0  0  0  0
    8.3352   23.9265    2.9501 N   0  0  0  0  0  0  0  0  0  0  0  0
    6.8996   21.6174   -0.1458 C   0  0  0  0  0  0  0  0  0  0  0  0
    7.0246   21.1550    1.2342 C   0  0  0  0  0  0  0  0  0  0  0  0
    6.3326   20.0945    1.7307 N   0  0  0  0  0  0  0  0  0  0  0  0
    6.6292   19.9144    2.9880 N   0  0  0  0  0  0  0  0  0  0  0  0
    7.5192   20.8548    3.3290 C   0  0  0  0  0  0  0  0  0  0  0  0
    7.7966   21.6721    2.2202 C   0  0  0  0  0  0  0  0  0  0  0  0
    5.6594   19.5031    1.1947 H   0  0  0  0  0  0  0  0  0  0  0  0
 25 26  1  0  0  0
 26 27  1  0  0  0
 27 28  1  0  0  0
 28 29  2  0  0  0
 29 30  1  0  0  0
 30 19  1  0  0  0
 19 20  2  0  0  0
 20 21  1  0  0  0
 21 22  2  0  0  0
 22 23  1  0  0  0
 23 24  2  0  0  0
 21  1  1  0  0  0
  1  2  1  0  0  0
  2  3  1  0  0  0
  3  4  1  0  0  0
  4  5  1  0  0  0
  5  6  1  0  0  0
  4  7  1  0  0  0
  7  8  2  0  0  0
  8  9  1  0  0  0
  8 10  1  0  0  0
 10 11  2  0  0  0
 11 12  1  0  0  0
 12 13  2  0  0  0
 13 14  1  0  0  0
 11 15  1  0  0  0
 15 16  1  0  0  0
 15 17  2  0  0  0
 30 26  2  0  0  0
 24 19  1  0  0  0
  6  1  1  0  0  0
 13  7  1  0  0  0
 27 31  1  0  0  0
 16 18  1  0  0  0
M  END
> <minimizedAffinity>
1.75673

> <CNNscore>
0.3994449675

> <CNNaffinity>
6.6574387550

> <CNN_VS>
2.6592803001

> <CNNaffinity_variance>
0.9959515333

$$$$
[H]OC(=O)c1c([H])c(C([H])([H])[H])c(N2C([H])([H])C([H])([H])N(c3nc([H])nc(-c4c([H])nn([H])c4C([H])([H])[H])c3[H])C([H])([H])C2([H])[H])c(C([H])([H])[H])c1[H]


 31 34  0  0  0  0  0  0  0  0999 V2000
   15.3162   24.5386   -4.8167 N   0  0  0  0  0  0  0  0  0  0  0  0
   16.2700   23.7668   -4.0514 C   0  0  0  0  0  0  0  0  0  0  0  0
   16.3006   24.2948   -2.6378 C   0  0  0  0  0  0  0  0  0  0  0  0
   14.9758   24.5045   -2.1116 N   0  0  0  0  0  0  0  0  0  0  0  0
   13.8345   24.1455   -2.9253 C   0  0  0  0  0  0  0  0  0  0  0  0
   13.9828   24.7280   -4.3017 C   0  0  0  0  0  0  0  0  0  0  0  0
   14.8466   25.0521   -0.8141 C   0  0  0  0  0  0  0  0  0  0  0  0
   13.9865   24.4754    0.0907 C   0  0  0  0  0  0  0  0  0  0  0  0
   13.1617   23.2743   -0.1993 C   0  0  0  0  0  0  0  0  0  0  0  0
   13.9150   25.0743    1.3353 C   0  0  0  0  0  0  0  0  0  0  0  0
   14.6326   26.1827    1.7148 C   0  0  0  0  0  0  0  0  0  0  0  0
   15.4962   26.7370    0.7620 C   0  0  0  0  0  0  0  0  0  0  0  0
   15.5927   26.1666   -0.4879 C   0  0  0  0  0  0  0  0  0  0  0  0
   16.5317   26.8020   -1.4646 C   0  0  0  0  0  0  0  0  0  0  0  0
   14.5243   26.7766    3.0333 C   0  0  0  0  0  0  0  0  0  0  0  0
   15.0023   26.1075    4.1332 O   0  0  0  0  0  0  0  0  0  0  0  0
   13.9962   27.8952    3.1644 O   0  0  0  0  0  0  0  0  0  0  0  0
   14.4372   25.6980    4.8548 H   0  0  0  0  0  0  0  0  0  0  0  0
   16.2016   27.0156   -7.4132 C   0  0  0  0  0  0  0  0  0  0  0  0
   15.8538   26.4859   -6.1996 C   0  0  0  0  0  0  0  0  0  0  0  0
   15.6747   25.1051   -6.0564 C   0  0  0  0  0  0  0  0  0  0  0  0
   15.8526   24.3314   -7.1294 N   0  0  0  0  0  0  0  0  0  0  0  0
   16.1930   24.8350   -8.3223 C   0  0  0  0  0  0  0  0  0  0  0  0
   16.3583   26.1325   -8.4451 N   0  0  0  0  0  0  0  0  0  0  0  0
   15.6455   29.6628   -5.5862 C   0  0  0  0  0  0  0  0  0  0  0  0
   16.2022   29.5546   -6.9324 C   0  0  0  0  0  0  0  0  0  0  0  0
   16.5834   30.6317   -7.6704 N   0  0  0  0  0  0  0  0  0  0  0  0
   17.0313   30.2434   -8.8323 N   0  0  0  0  0  0  0  0  0  0  0  0
   16.9488   28.9076   -8.8681 C   0  0  0  0  0  0  0  0  0  0  0  0
   16.4183   28.4307   -7.6575 C   0  0  0  0  0  0  0  0  0  0  0  0
   16.5301   31.6283   -7.3637 H   0  0  0  0  0  0  0  0  0  0  0  0
 25 26  1  0  0  0
 26 27  1  0  0  0
 27 28  1  0  0  0
 28 29  2  0  0  0
 29 30  1  0  0  0
 30 19  1  0  0  0
 19 20  2  0  0  0
 20 21  1  0  0  0
 21 22  2  0  0  0
 22 23  1  0  0  0
 23 24  2  0  0  0
 21  1  1  0  0  0
  1  2  1  0  0  0
  2  3  1  0  0  0
  3  4  1  0  0  0
  4  5  1  0  0  0
  5  6  1  0  0  0
  4  7  1  0  0  0
  7  8  2  0  0  0
  8  9  1  0  0  0
  8 10  1  0  0  0
 10 11  2  0  0  0
 11 12  1  0  0  0
 12 13  2  0  0  0
 13 14  1  0  0  0
 11 15  1  0  0  0
 15 16  1  0  0  0
 15 17  2  0  0  0
 30 26  2  0  0  0
 24 19  1  0  0  0
  6  1  1  0  0  0
 13  7  1  0  0  0
 27 31  1  0  0  0
 16 18  1  0  0  0
M  END
> <minimizedAffinity>
37.62894

> <CNNscore>
0.3910651207

> <CNNaffinity>
6.5724282265

> <CNN_VS>
2.5702474117

> <CNNaffinity_variance>
0.9175652266

$$$$
[H]OC(=O)c1c([H])c([H])c(-c2c([H])c([H])c(N3C([H])([H])C([H])([H])C4(C(=O)N(c5c([H])c(C(F)(F)F)c([H])c(C(F)(F)F)c5[H])C(=O)N4[C@@]4([H])C([H])([H])C([H])([H])OC([H])([H])[C@@]4([H])O[H])C([H])([H])C3([H])[H])c([H])c2[H])c([H])c1[H]


 50 55  0  0  0  0  0  0  0  0999 V2000
    9.9137   23.0899    3.7665 N   0  0  0  0  0  0  0  0  0  0  0  0
    9.0978   24.1111    4.3506 C   0  0  0  0  0  0  0  0  0  0  0  0
    9.1670   24.6641    5.4900 O   0  0  0  0  0  0  0  0  0  0  0  0
    8.0797   24.5076    3.4224 N   0  0  0  0  0  0  0  0  0  0  0  0
    8.2999   23.7105    2.2578 C   0  0  0  0  0  0  0  0  0  0  0  0
    7.4477   23.3911    1.4268 O   0  0  0  0  0  0  0  0  0  0  0  0
    9.7936   23.4053    2.3503 C   0  0  0  0  0  0  0  0  0  0  0  0
   10.1238   22.4371    1.3247 C   0  0  0  0  0  0  0  0  0  0  0  0
   11.4869   22.6342    0.6292 C   0  0  0  0  0  0  0  0  0  0  0  0
   11.4649   23.9259   -0.0165 N   0  0  0  0  0  0  0  0  0  0  0  0
   10.4577   24.8560    0.4980 C   0  0  0  0  0  0  0  0  0  0  0  0
   10.5307   24.7096    2.0315 C   0  0  0  0  0  0  0  0  0  0  0  0
   10.2293   20.0969    3.1076 O   0  0  0  0  0  0  0  0  0  0  0  0
    9.9928   20.6423    4.3335 C   0  0  0  0  0  0  0  0  0  0  0  0
    8.6491   20.5646    4.8821 C   0  0  0  0  0  0  0  0  0  0  0  0
    8.6567   20.8329    6.2380 O   0  0  0  0  0  0  0  0  0  0  0  0
    9.8291   21.2561    6.7577 C   0  0  0  0  0  0  0  0  0  0  0  0
   10.6666   22.2209    5.9628 C   0  0  0  0  0  0  0  0  0  0  0  0
   10.5701   22.0743    4.4923 C   0  0  0  0  0  0  0  0  0  0  0  0
   11.1870   20.1224    2.8405 H   0  0  0  0  0  0  0  0  0  0  0  0
   12.3380   24.2227   -1.0638 C   0  0  0  0  0  0  0  0  0  0  0  0
   12.1560   25.3727   -1.8002 C   0  0  0  0  0  0  0  0  0  0  0  0
   12.9607   25.6641   -2.8814 C   0  0  0  0  0  0  0  0  0  0  0  0
   13.9860   24.8338   -3.2870 C   0  0  0  0  0  0  0  0  0  0  0  0
   14.1713   23.6921   -2.5485 C   0  0  0  0  0  0  0  0  0  0  0  0
   13.3564   23.3760   -1.4399 C   0  0  0  0  0  0  0  0  0  0  0  0
   14.7283   25.2030   -4.4854 C   0  0  0  0  0  0  0  0  0  0  0  0
   15.0277   26.5746   -4.6423 C   0  0  0  0  0  0  0  0  0  0  0  0
   15.7013   27.0352   -5.7592 C   0  0  0  0  0  0  0  0  0  0  0  0
   16.1117   26.1801   -6.7651 C   0  0  0  0  0  0  0  0  0  0  0  0
   15.8229   24.8356   -6.6086 C   0  0  0  0  0  0  0  0  0  0  0  0
   15.1367   24.3684   -5.4761 C   0  0  0  0  0  0  0  0  0  0  0  0
   16.7717   26.6502   -7.9590 C   0  0  0  0  0  0  0  0  0  0  0  0
   17.3404   25.7636   -8.8362 O   0  0  0  0  0  0  0  0  0  0  0  0
   16.8385   27.8670   -8.2122 O   0  0  0  0  0  0  0  0  0  0  0  0
   16.8014   24.9995   -9.2182 H   0  0  0  0  0  0  0  0  0  0  0  0
    7.1011   25.4938    3.6931 C   0  0  0  0  0  0  0  0  0  0  0  0
    6.7808   26.4274    2.7268 C   0  0  0  0  0  0  0  0  0  0  0  0
    5.8014   27.3908    2.9285 C   0  0  0  0  0  0  0  0  0  0  0  0
    5.1181   27.4289    4.1301 C   0  0  0  0  0  0  0  0  0  0  0  0
    5.4523   26.4936    5.0823 C   0  0  0  0  0  0  0  0  0  0  0  0
    6.4352   25.5243    4.8883 C   0  0  0  0  0  0  0  0  0  0  0  0
    4.6693   26.5722    6.3637 C   0  0  0  0  0  0  0  0  0  0  0  0
    5.1695   27.6508    7.1075 F   0  0  0  0  0  0  0  0  0  0  0  0
    3.3730   26.8875    6.0299 F   0  0  0  0  0  0  0  0  0  0  0  0
    4.7841   25.4341    7.1122 F   0  0  0  0  0  0  0  0  0  0  0  0
    5.4821   28.3739    1.8627 C   0  0  0  0  0  0  0  0  0  0  0  0
    5.6037   27.7914    0.6063 F   0  0  0  0  0  0  0  0  0  0  0  0
    6.2856   29.4849    1.9048 F   0  0  0  0  0  0  0  0  0  0  0  0
    4.1810   28.7569    2.0154 F   0  0  0  0  0  0  0  0  0  0  0  0
 13 14  1  0  0  0
 14 15  1  0  0  0
 15 16  1  0  0  0
 16 17  1  0  0  0
 17 18  1  0  0  0
 18 19  1  0  0  0
 19  1  1  0  0  0
  1  2  1  0  0  0
  2  3  2  0  0  0
  2  4  1  0  0  0
  4  5  1  0  0  0
  5  6  2  0  0  0
  5  7  1  0  0  0
  7  8  1  0  0  0
  8  9  1  0  0  0
  9 10  1  0  0  0
 10 11  1  0  0  0
 11 12  1  0  0  0
 10 21  1  0  0  0
 21 22  2  0  0  0
 22 23  1  0  0  0
 23 24  2  0  0  0
 24 25  1  0  0  0
 25 26  2  0  0  0
 24 27  1  0  0  0
 27 28  2  0  0  0
 28 29  1  0  0  0
 29 30  2  0  0  0
 30 31  1  0  0  0
 31 32  2  0  0  0
 30 33  1  0  0  0
 33 34  1  0  0  0
 33 35  2  0  0  0
  4 37  1  0  0  0
 37 38  2  0  0  0
 38 39  1  0  0  0
 39 40  2  0  0  0
 40 41  1  0  0  0
 41 42  2  0  0  0
 41 43  1  0  0  0
 43 44  1  0  0  0
 43 45  1  0  0  0
 43 46  1  0  0  0
 39 47  1  0  0  0
 47 48  1  0  0  0
 47 49  1  0  0  0
 47 50  1  0  0  0
 19 14  1  0  0  0
  7  1  1  0  0  0
 12  7  1  0  0  0
 26 21  1  0  0  0
 32 27  1  0  0  0
 42 37  1  0  0  0
 13 20  1  0  0  0
 34 36  1  0  0  0
M  END
> <minimizedAffinity>
-4.97842

> <CNNscore>
0.4646153748

> <CNNaffinity>
7.1304397583

> <CNN_VS>
3.3129119873

> <CNNaffinity_variance>
0.0766818374

$$$$
[H]OC(=O)c1c([H])c([H])c(-c2c([H])c([H])c(N3C([H])([H])C([H])([H])C4(C(=O)N(c5c([H])c(C(F)(F)F)c([H])c(C(F)(F)F)c5[H])C(=O)N4[C@@]4([H])C([H])([H])C([H])([H])OC([H])([H])[C@@]4([H])O[H])C([H])([H])C3([H])[H])c([H])c2[H])c([H])c1[H]


 50 55  0  0  0  0  0  0  0  0999 V2000
   14.5128   22.4339   -1.6110 N   0  0  0  0  0  0  0  0  0  0  0  0
   14.8531   23.1001   -2.8317 C   0  0  0  0  0  0  0  0  0  0  0  0
   14.8465   22.6755   -4.0269 O   0  0  0  0  0  0  0  0  0  0  0  0
   15.2400   24.4524   -2.5539 N   0  0  0  0  0  0  0  0  0  0  0  0
   15.1195   24.5959   -1.1379 C   0  0  0  0  0  0  0  0  0  0  0  0
   15.7459   25.3905   -0.4343 O   0  0  0  0  0  0  0  0  0  0  0  0
   14.0600   23.5508   -0.7942 C   0  0  0  0  0  0  0  0  0  0  0  0
   13.9710   23.4514    0.6482 C   0  0  0  0  0  0  0  0  0  0  0  0
   12.5528   23.2485    1.2210 C   0  0  0  0  0  0  0  0  0  0  0  0
   11.7593   24.3928    0.8379 N   0  0  0  0  0  0  0  0  0  0  0  0
   12.2826   25.1544   -0.2980 C   0  0  0  0  0  0  0  0  0  0  0  0
   12.7249   24.0870   -1.3197 C   0  0  0  0  0  0  0  0  0  0  0  0
   13.0618   20.0492   -2.9146 O   0  0  0  0  0  0  0  0  0  0  0  0
   13.4073   20.1764   -1.6029 C   0  0  0  0  0  0  0  0  0  0  0  0
   12.3718   20.5121   -0.6399 C   0  0  0  0  0  0  0  0  0  0  0  0
   12.7998   20.2572    0.6495 O   0  0  0  0  0  0  0  0  0  0  0  0
   14.0970   19.9097    0.7915 C   0  0  0  0  0  0  0  0  0  0  0  0
   15.1310   20.6167   -0.0421 C   0  0  0  0  0  0  0  0  0  0  0  0
   14.6699   21.0515   -1.3807 C   0  0  0  0  0  0  0  0  0  0  0  0
   13.8098   19.7421   -3.4937 H   0  0  0  0  0  0  0  0  0  0  0  0
   10.5985   24.7303    1.5349 C   0  0  0  0  0  0  0  0  0  0  0  0
   10.6072   25.8043    2.3976 C   0  0  0  0  0  0  0  0  0  0  0  0
    9.4972   26.1262    3.1497 C   0  0  0  0  0  0  0  0  0  0  0  0
    8.3233   25.4032    3.0849 C   0  0  0  0  0  0  0  0  0  0  0  0
    8.3129   24.3379    2.2200 C   0  0  0  0  0  0  0  0  0  0  0  0
    9.4401   23.9919    1.4435 C   0  0  0  0  0  0  0  0  0  0  0  0
    7.2360   25.7878    3.9757 C   0  0  0  0  0  0  0  0  0  0  0  0
    6.9916   27.1728    4.1085 C   0  0  0  0  0  0  0  0  0  0  0  0
    6.0030   27.6456    4.9525 C   0  0  0  0  0  0  0  0  0  0  0  0
    5.2127   26.7906    5.6980 C   0  0  0  0  0  0  0  0  0  0  0  0
    5.4489   25.4335    5.5636 C   0  0  0  0  0  0  0  0  0  0  0  0
    6.4542   24.9535    4.7089 C   0  0  0  0  0  0  0  0  0  0  0  0
    4.2106   27.2689    6.6193 C   0  0  0  0  0  0  0  0  0  0  0  0
    4.1639   28.5924    6.9732 O   0  0  0  0  0  0  0  0  0  0  0  0
    3.3734   26.4896    7.1101 O   0  0  0  0  0  0  0  0  0  0  0  0
    4.1170   29.3131    6.2670 H   0  0  0  0  0  0  0  0  0  0  0  0
   15.6437   25.3803   -3.5436 C   0  0  0  0  0  0  0  0  0  0  0  0
   16.5102   26.4039   -3.2130 C   0  0  0  0  0  0  0  0  0  0  0  0
   16.9665   27.3166   -4.1549 C   0  0  0  0  0  0  0  0  0  0  0  0
   16.5477   27.2095   -5.4683 C   0  0  0  0  0  0  0  0  0  0  0  0
   15.6823   26.1861   -5.7791 C   0  0  0  0  0  0  0  0  0  0  0  0
   15.2183   25.2668   -4.8394 C   0  0  0  0  0  0  0  0  0  0  0  0
   15.2701   26.1084   -7.2232 C   0  0  0  0  0  0  0  0  0  0  0  0
   13.9877   26.6650   -7.3346 F   0  0  0  0  0  0  0  0  0  0  0  0
   16.1198   26.9238   -7.9333 F   0  0  0  0  0  0  0  0  0  0  0  0
   15.2297   24.8214   -7.6824 F   0  0  0  0  0  0  0  0  0  0  0  0
   17.9020   28.4001   -3.7610 C   0  0  0  0  0  0  0  0  0  0  0  0
   19.1309   27.8726   -3.3811 F   0  0  0  0  0  0  0  0  0  0  0  0
   17.4233   29.1688   -2.7307 F   0  0  0  0  0  0  0  0  0  0  0  0
   18.1134   29.1944   -4.8507 F   0  0  0  0  0  0  0  0  0  0  0  0
 13 14  1  0  0  0
 14 15  1  0  0  0
 15 16  1  0  0  0
 16 17  1  0  0  0
 17 18  1  0  0  0
 18 19  1  0  0  0
 19  1  1  0  0  0
  1  2  1  0  0  0
  2  3  2  0  0  0
  2  4  1  0  0  0
  4  5  1  0  0  0
  5  6  2  0  0  0
  5  7  1  0  0  0
  7  8  1  0  0  0
  8  9  1  0  0  0
  9 10  1  0  0  0
 10 11  1  0  0  0
 11 12  1  0  0  0
 10 21  1  0  0  0
 21 22  2  0  0  0
 22 23  1  0  0  0
 23 24  2  0  0  0
 24 25  1  0  0  0
 25 26  2  0  0  0
 24 27  1  0  0  0
 27 28  2  0  0  0
 28 29  1  0  0  0
 29 30  2  0  0  0
 30 31  1  0  0  0
 31 32  2  0  0  0
 30 33  1  0  0  0
 33 34  1  0  0  0
 33 35  2  0  0  0
  4 37  1  0  0  0
 37 38  2  0  0  0
 38 39  1  0  0  0
 39 40  2  0  0  0
 40 41  1  0  0  0
 41 42  2  0  0  0
 41 43  1  0  0  0
 43 44  1  0  0  0
 43 45  1  0  0  0
 43 46  1  0  0  0
 39 47  1  0  0  0
 47 48  1  0  0  0
 47 49  1  0  0  0
 47 50  1  0  0  0
 19 14  1  0  0  0
  7  1  1  0  0  0
 12  7  1  0  0  0
 26 21  1  0  0  0
 32 27  1  0  0  0
 42 37  1  0  0  0
 13 20  1  0  0  0
 34 36  1  0  0  0
M  END
> <minimizedAffinity>
-6.65217

> <CNNscore>
0.4497194290

> <CNNaffinity>
7.6026105881

> <CNN_VS>
3.4190416336

> <CNNaffinity_variance>
0.2730014026

$$$$
[H]OC(=O)c1c([H])c([H])c(-c2c([H])c([H])c(N3C([H])([H])C([H])([H])C4(C(=O)N(c5c([H])c(C(F)(F)F)c([H])c(C(F)(F)F)c5[H])C(=O)N4[C@@]4([H])C([H])([H])C([H])([H])OC([H])([H])[C@@]4([H])O[H])C([H])([H])C3([H])[H])c([H])c2[H])c([H])c1[H]


 50 55  0  0  0  0  0  0  0  0999 V2000
   13.9243   26.3841   -3.7679 N   0  0  0  0  0  0  0  0  0  0  0  0
   12.9517   26.9513   -4.6524 C   0  0  0  0  0  0  0  0  0  0  0  0
   12.8187   26.8343   -5.9083 O   0  0  0  0  0  0  0  0  0  0  0  0
   12.0259   27.7513   -3.9052 N   0  0  0  0  0  0  0  0  0  0  0  0
   12.4524   27.6513   -2.5457 C   0  0  0  0  0  0  0  0  0  0  0  0
   12.2542   28.4860   -1.6610 O   0  0  0  0  0  0  0  0  0  0  0  0
   13.1666   26.3013   -2.5275 C   0  0  0  0  0  0  0  0  0  0  0  0
   13.8219   26.1514   -1.2444 C   0  0  0  0  0  0  0  0  0  0  0  0
   13.7994   24.7316   -0.6408 C   0  0  0  0  0  0  0  0  0  0  0  0
   12.4170   24.3636   -0.4420 N   0  0  0  0  0  0  0  0  0  0  0  0
   11.4537   25.1328   -1.2323 C   0  0  0  0  0  0  0  0  0  0  0  0
   12.0809   25.2265   -2.6382 C   0  0  0  0  0  0  0  0  0  0  0  0
   14.9842   24.7522   -6.1564 O   0  0  0  0  0  0  0  0  0  0  0  0
   15.4614   24.7355   -4.8804 C   0  0  0  0  0  0  0  0  0  0  0  0
   15.1264   23.6077   -4.0270 C   0  0  0  0  0  0  0  0  0  0  0  0
   15.9552   23.5661   -2.9215 O   0  0  0  0  0  0  0  0  0  0  0  0
   16.7837   24.6194   -2.7549 C   0  0  0  0  0  0  0  0  0  0  0  0
   16.2659   26.0011   -3.0496 C   0  0  0  0  0  0  0  0  0  0  0  0
   15.2529   26.0766   -4.1273 C   0  0  0  0  0  0  0  0  0  0  0  0
   15.3226   25.5158   -6.6963 H   0  0  0  0  0  0  0  0  0  0  0  0
   12.0612   23.3604    0.4604 C   0  0  0  0  0  0  0  0  0  0  0  0
   10.7518   23.2448    0.8725 C   0  0  0  0  0  0  0  0  0  0  0  0
   10.3779   22.3066    1.8113 C   0  0  0  0  0  0  0  0  0  0  0  0
   11.2798   21.4352    2.3877 C   0  0  0  0  0  0  0  0  0  0  0  0
   12.5827   21.5461    1.9715 C   0  0  0  0  0  0  0  0  0  0  0  0
   12.9845   22.5017    1.0131 C   0  0  0  0  0  0  0  0  0  0  0  0
   10.7896   20.5320    3.4210 C   0  0  0  0  0  0  0  0  0  0  0  0
    9.4986   20.7987    3.9287 C   0  0  0  0  0  0  0  0  0  0  0  0
    8.9518   20.0208    4.9333 C   0  0  0  0  0  0  0  0  0  0  0  0
    9.6376   18.9527    5.4811 C   0  0  0  0  0  0  0  0  0  0  0  0
   10.9004   18.6885    4.9798 C   0  0  0  0  0  0  0  0  0  0  0  0
   11.4566   19.4797    3.9619 C   0  0  0  0  0  0  0  0  0  0  0  0
    9.1019   18.1617    6.5625 C   0  0  0  0  0  0  0  0  0  0  0  0
    9.7664   17.0483    7.0074 O   0  0  0  0  0  0  0  0  0  0  0  0
    8.0279   18.4741    7.1083 O   0  0  0  0  0  0  0  0  0  0  0  0
   10.7349   17.1046    7.2889 H   0  0  0  0  0  0  0  0  0  0  0  0
   10.9440   28.4583   -4.4825 C   0  0  0  0  0  0  0  0  0  0  0  0
   11.0513   29.8176   -4.7033 C   0  0  0  0  0  0  0  0  0  0  0  0
   10.0343   30.5498   -5.3016 C   0  0  0  0  0  0  0  0  0  0  0  0
    8.8721   29.9109   -5.6928 C   0  0  0  0  0  0  0  0  0  0  0  0
    8.7811   28.5575   -5.4624 C   0  0  0  0  0  0  0  0  0  0  0  0
    9.7966   27.8156   -4.8610 C   0  0  0  0  0  0  0  0  0  0  0  0
    7.5023   27.9117   -5.9194 C   0  0  0  0  0  0  0  0  0  0  0  0
    7.7895   26.5813   -6.2571 F   0  0  0  0  0  0  0  0  0  0  0  0
    6.6564   27.8724   -4.8358 F   0  0  0  0  0  0  0  0  0  0  0  0
    6.9684   28.5351   -7.0127 F   0  0  0  0  0  0  0  0  0  0  0  0
   10.1900   32.0090   -5.5267 C   0  0  0  0  0  0  0  0  0  0  0  0
   11.1738   32.5311   -4.6947 F   0  0  0  0  0  0  0  0  0  0  0  0
    9.0284   32.7074   -5.3153 F   0  0  0  0  0  0  0  0  0  0  0  0
   10.5971   32.1979   -6.8157 F   0  0  0  0  0  0  0  0  0  0  0  0
 13 14  1  0  0  0
 14 15  1  0  0  0
 15 16  1  0  0  0
 16 17  1  0  0  0
 17 18  1  0  0  0
 18 19  1  0  0  0
 19  1  1  0  0  0
  1  2  1  0  0  0
  2  3  2  0  0  0
  2  4  1  0  0  0
  4  5  1  0  0  0
  5  6  2  0  0  0
  5  7  1  0  0  0
  7  8  1  0  0  0
  8  9  1  0  0  0
  9 10  1  0  0  0
 10 11  1  0  0  0
 11 12  1  0  0  0
 10 21  1  0  0  0
 21 22  2  0  0  0
 22 23  1  0  0  0
 23 24  2  0  0  0
 24 25  1  0  0  0
 25 26  2  0  0  0
 24 27  1  0  0  0
 27 28  2  0  0  0
 28 29  1  0  0  0
 29 30  2  0  0  0
 30 31  1  0  0  0
 31 32  2  0  0  0
 30 33  1  0  0  0
 33 34  1  0  0  0
 33 35  2  0  0  0
  4 37  1  0  0  0
 37 38  2  0  0  0
 38 39  1  0  0  0
 39 40  2  0  0  0
 40 41  1  0  0  0
 41 42  2  0  0  0
 41 43  1  0  0  0
 43 44  1  0  0  0
 43 45  1  0  0  0
 43 46  1  0  0  0
 39 47  1  0  0  0
 47 48  1  0  0  0
 47 49  1  0  0  0
 47 50  1  0  0  0
 19 14  1  0  0  0
  7  1  1  0  0  0
 12  7  1  0  0  0
 26 21  1  0  0  0
 32 27  1  0  0  0
 42 37  1  0  0  0
 13 20  1  0  0  0
 34 36  1  0  0  0
M  END
> <minimizedAffinity>
26.69255

> <CNNscore>
0.4194651246

> <CNNaffinity>
7.1258468628

> <CNN_VS>
2.9890441895

> <CNNaffinity_variance>
0.3602336049

$$$$
[H]OC(=O)c1c([H])c([H])c(-c2c([H])c([H])c(N3C([H])([H])C([H])([H])C4(C(=O)N(c5c([H])c(C(F)(F)F)c([H])c(C(F)(F)F)c5[H])C(=O)N4[C@@]4([H])C([H])([H])C([H])([H])OC([H])([H])[C@@]4([H])O[H])C([H])([H])C3([H])[H])c([H])c2[H])c([H])c1[H]


 50 55  0  0  0  0  0  0  0  0999 V2000
   15.8831   23.6156   -1.1093 N   0  0  0  0  0  0  0  0  0  0  0  0
   16.2314   24.0869   -2.4156 C   0  0  0  0  0  0  0  0  0  0  0  0
   17.1643   23.7262   -3.1956 O   0  0  0  0  0  0  0  0  0  0  0  0
   15.3207   25.1189   -2.8169 N   0  0  0  0  0  0  0  0  0  0  0  0
   14.4060   25.2589   -1.7288 C   0  0  0  0  0  0  0  0  0  0  0  0
   13.7713   26.2756   -1.4422 O   0  0  0  0  0  0  0  0  0  0  0  0
   14.4505   23.8739   -1.0865 C   0  0  0  0  0  0  0  0  0  0  0  0
   13.7065   23.9250    0.1554 C   0  0  0  0  0  0  0  0  0  0  0  0
   12.8694   22.6725    0.4886 C   0  0  0  0  0  0  0  0  0  0  0  0
   11.8976   22.5035   -0.5663 N   0  0  0  0  0  0  0  0  0  0  0  0
   12.2206   23.1898   -1.8189 C   0  0  0  0  0  0  0  0  0  0  0  0
   13.7231   22.9217   -2.0406 C   0  0  0  0  0  0  0  0  0  0  0  0
   16.5773   20.6881   -0.4464 O   0  0  0  0  0  0  0  0  0  0  0  0
   16.4482   21.7167    0.4377 C   0  0  0  0  0  0  0  0  0  0  0  0
   15.2369   21.7994    1.2368 C   0  0  0  0  0  0  0  0  0  0  0  0
   15.4111   22.6610    2.3036 O   0  0  0  0  0  0  0  0  0  0  0  0
   16.5650   23.3624    2.3240 C   0  0  0  0  0  0  0  0  0  0  0  0
   17.0998   23.9133    1.0301 C   0  0  0  0  0  0  0  0  0  0  0  0
   16.8012   23.1001   -0.1711 C   0  0  0  0  0  0  0  0  0  0  0  0
   17.4646   20.6597   -0.8946 H   0  0  0  0  0  0  0  0  0  0  0  0
   10.7382   21.7537   -0.3643 C   0  0  0  0  0  0  0  0  0  0  0  0
   10.7557   20.3944   -0.5877 C   0  0  0  0  0  0  0  0  0  0  0  0
    9.6125   19.6341   -0.4599 C   0  0  0  0  0  0  0  0  0  0  0  0
    8.3959   20.1797   -0.1032 C   0  0  0  0  0  0  0  0  0  0  0  0
    8.3807   21.5325    0.1262 C   0  0  0  0  0  0  0  0  0  0  0  0
    9.5404   22.3275   -0.0017 C   0  0  0  0  0  0  0  0  0  0  0  0
    7.2373   19.2965   -0.0667 C   0  0  0  0  0  0  0  0  0  0  0  0
    7.2089   18.2566   -1.0225 C   0  0  0  0  0  0  0  0  0  0  0  0
    6.1400   17.3815   -1.0938 C   0  0  0  0  0  0  0  0  0  0  0  0
    5.0592   17.4821   -0.2376 C   0  0  0  0  0  0  0  0  0  0  0  0
    5.0899   18.4978    0.7021 C   0  0  0  0  0  0  0  0  0  0  0  0
    6.1736   19.3878    0.7728 C   0  0  0  0  0  0  0  0  0  0  0  0
    3.9146   16.6085   -0.3303 C   0  0  0  0  0  0  0  0  0  0  0  0
    3.3935   16.2695   -1.5520 O   0  0  0  0  0  0  0  0  0  0  0  0
    3.3794   16.1495    0.6954 O   0  0  0  0  0  0  0  0  0  0  0  0
    3.9816   15.8716   -2.2704 H   0  0  0  0  0  0  0  0  0  0  0  0
   15.3926   25.8017   -4.0547 C   0  0  0  0  0  0  0  0  0  0  0  0
   15.6463   27.1593   -4.0767 C   0  0  0  0  0  0  0  0  0  0  0  0
   15.7647   27.8679   -5.2650 C   0  0  0  0  0  0  0  0  0  0  0  0
   15.6257   27.2065   -6.4713 C   0  0  0  0  0  0  0  0  0  0  0  0
   15.3701   25.8551   -6.4306 C   0  0  0  0  0  0  0  0  0  0  0  0
   15.2482   25.1368   -5.2421 C   0  0  0  0  0  0  0  0  0  0  0  0
   15.2416   25.1841   -7.7702 C   0  0  0  0  0  0  0  0  0  0  0  0
   14.9936   26.1788   -8.7271 F   0  0  0  0  0  0  0  0  0  0  0  0
   16.4679   24.6399   -8.0720 F   0  0  0  0  0  0  0  0  0  0  0  0
   14.2155   24.2813   -7.8017 F   0  0  0  0  0  0  0  0  0  0  0  0
   16.0434   29.3261   -5.2469 C   0  0  0  0  0  0  0  0  0  0  0  0
   14.8583   30.0510   -5.1953 F   0  0  0  0  0  0  0  0  0  0  0  0
   16.7603   29.7450   -6.3388 F   0  0  0  0  0  0  0  0  0  0  0  0
   16.7492   29.6087   -4.1133 F   0  0  0  0  0  0  0  0  0  0  0  0
 13 14  1  0  0  0
 14 15  1  0  0  0
 15 16  1  0  0  0
 16 17  1  0  0  0
 17 18  1  0  0  0
 18 19  1  0  0  0
 19  1  1  0  0  0
  1  2  1  0  0  0
  2  3  2  0  0  0
  2  4  1  0  0  0
  4  5  1  0  0  0
  5  6  2  0  0  0
  5  7  1  0  0  0
  7  8  1  0  0  0
  8  9  1  0  0  0
  9 10  1  0  0  0
 10 11  1  0  0  0
 11 12  1  0  0  0
 10 21  1  0  0  0
 21 22  2  0  0  0
 22 23  1  0  0  0
 23 24  2  0  0  0
 24 25  1  0  0  0
 25 26  2  0  0  0
 24 27  1  0  0  0
 27 28  2  0  0  0
 28 29  1  0  0  0
 29 30  2  0  0  0
 30 31  1  0  0  0
 31 32  2  0  0  0
 30 33  1  0  0  0
 33 34  1  0  0  0
 33 35  2  0  0  0
  4 37  1  0  0  0
 37 38  2  0  0  0
 38 39  1  0  0  0
 39 40  2  0  0  0
 40 41  1  0  0  0
 41 42  2  0  0  0
 41 43  1  0  0  0
 43 44  1  0  0  0
 43 45  1  0  0  0
 43 46  1  0  0  0
 39 47  1  0  0  0
 47 48  1  0  0  0
 47 49  1  0  0  0
 47 50  1  0  0  0
 19 14  1  0  0  0
  7  1  1  0  0  0
 12  7  1  0  0  0
 26 21  1  0  0  0
 32 27  1  0  0  0
 42 37  1  0  0  0
 13 20  1  0  0  0
 34 36  1  0  0  0
M  END
> <minimizedAffinity>
12.38792

> <CNNscore>
0.4154392779

> <CNNaffinity>
7.5167465210

> <CNN_VS>
3.1227517128

> <CNNaffinity_variance>
0.4914624691

$$$$
[H]OC(=O)c1c([H])c([H])c(-c2c([H])c([H])c(N3C([H])([H])C([H])([H])C4(C(=O)N(c5c([H])c(C(F)(F)F)c([H])c(C(F)(F)F)c5[H])C(=O)N4[C@@]4([H])C([H])([H])C([H])([H])OC([H])([H])[C@@]4([H])O[H])C([H])([H])C3([H])[H])c([H])c2[H])c([H])c1[H]


 50 55  0  0  0  0  0  0  0  0999 V2000
   15.0561   22.9647   -0.9615 N   0  0  0  0  0  0  0  0  0  0  0  0
   14.8902   23.5617   -2.2521 C   0  0  0  0  0  0  0  0  0  0  0  0
   15.2015   23.1274   -3.4025 O   0  0  0  0  0  0  0  0  0  0  0  0
   14.2587   24.8416   -2.1162 N   0  0  0  0  0  0  0  0  0  0  0  0
   14.0370   25.0059   -0.7148 C   0  0  0  0  0  0  0  0  0  0  0  0
   13.9472   26.0796   -0.1165 O   0  0  0  0  0  0  0  0  0  0  0  0
   13.9488   23.5610   -0.2279 C   0  0  0  0  0  0  0  0  0  0  0  0
   13.9133   23.5708    1.2202 C   0  0  0  0  0  0  0  0  0  0  0  0
   12.9872   22.5256    1.8762 C   0  0  0  0  0  0  0  0  0  0  0  0
   11.6402   22.7943    1.4300 N   0  0  0  0  0  0  0  0  0  0  0  0
   11.5431   23.5926    0.2062 C   0  0  0  0  0  0  0  0  0  0  0  0
   12.6145   23.0054   -0.7350 C   0  0  0  0  0  0  0  0  0  0  0  0
   15.5352   20.0551   -1.8538 O   0  0  0  0  0  0  0  0  0  0  0  0
   15.7323   20.5697   -0.6079 C   0  0  0  0  0  0  0  0  0  0  0  0
   14.7534   20.2812    0.4270 C   0  0  0  0  0  0  0  0  0  0  0  0
   15.2658   20.5638    1.6793 O   0  0  0  0  0  0  0  0  0  0  0  0
   16.4680   21.1783    1.7092 C   0  0  0  0  0  0  0  0  0  0  0  0
   16.7546   22.2567    0.6997 C   0  0  0  0  0  0  0  0  0  0  0  0
   16.0970   22.0784   -0.6152 C   0  0  0  0  0  0  0  0  0  0  0  0
   16.2873   20.2328   -2.4798 H   0  0  0  0  0  0  0  0  0  0  0  0
   10.5374   22.3310    2.1485 C   0  0  0  0  0  0  0  0  0  0  0  0
   10.5982   21.1086    2.7809 C   0  0  0  0  0  0  0  0  0  0  0  0
    9.5057   20.5923    3.4452 C   0  0  0  0  0  0  0  0  0  0  0  0
    8.2997   21.2595    3.5184 C   0  0  0  0  0  0  0  0  0  0  0  0
    8.2421   22.4803    2.8944 C   0  0  0  0  0  0  0  0  0  0  0  0
    9.3493   23.0242    2.2079 C   0  0  0  0  0  0  0  0  0  0  0  0
    7.1899   20.5902    4.1848 C   0  0  0  0  0  0  0  0  0  0  0  0
    7.5107   19.8313    5.3323 C   0  0  0  0  0  0  0  0  0  0  0  0
    6.5362   19.1317    6.0209 C   0  0  0  0  0  0  0  0  0  0  0  0
    5.2125   19.1447    5.6220 C   0  0  0  0  0  0  0  0  0  0  0  0
    4.8977   19.8927    4.5008 C   0  0  0  0  0  0  0  0  0  0  0  0
    5.8873   20.6008    3.8002 C   0  0  0  0  0  0  0  0  0  0  0  0
    4.1925   18.3818    6.2999 C   0  0  0  0  0  0  0  0  0  0  0  0
    4.0674   17.0346    6.0793 O   0  0  0  0  0  0  0  0  0  0  0  0
    3.4079   18.9323    7.0939 O   0  0  0  0  0  0  0  0  0  0  0  0
    4.8592   16.4180    6.1948 H   0  0  0  0  0  0  0  0  0  0  0  0
   13.9576   25.6961   -3.2038 C   0  0  0  0  0  0  0  0  0  0  0  0
   14.6976   25.6140   -4.3673 C   0  0  0  0  0  0  0  0  0  0  0  0
   14.4181   26.4023   -5.4757 C   0  0  0  0  0  0  0  0  0  0  0  0
   13.3696   27.3024   -5.4267 C   0  0  0  0  0  0  0  0  0  0  0  0
   12.6454   27.3731   -4.2590 C   0  0  0  0  0  0  0  0  0  0  0  0
   12.9204   26.5866   -3.1414 C   0  0  0  0  0  0  0  0  0  0  0  0
   11.5091   28.3581   -4.2654 C   0  0  0  0  0  0  0  0  0  0  0  0
   10.5828   27.9394   -5.2314 F   0  0  0  0  0  0  0  0  0  0  0  0
   10.8812   28.2629   -3.0457 F   0  0  0  0  0  0  0  0  0  0  0  0
   11.9220   29.6241   -4.5751 F   0  0  0  0  0  0  0  0  0  0  0  0
   15.2337   26.2807   -6.7104 C   0  0  0  0  0  0  0  0  0  0  0  0
   16.5395   26.6974   -6.4783 F   0  0  0  0  0  0  0  0  0  0  0  0
   14.7266   27.0075   -7.7574 F   0  0  0  0  0  0  0  0  0  0  0  0
   15.2777   24.9623   -7.0611 F   0  0  0  0  0  0  0  0  0  0  0  0
 13 14  1  0  0  0
 14 15  1  0  0  0
 15 16  1  0  0  0
 16 17  1  0  0  0
 17 18  1  0  0  0
 18 19  1  0  0  0
 19  1  1  0  0  0
  1  2  1  0  0  0
  2  3  2  0  0  0
  2  4  1  0  0  0
  4  5  1  0  0  0
  5  6  2  0  0  0
  5  7  1  0  0  0
  7  8  1  0  0  0
  8  9  1  0  0  0
  9 10  1  0  0  0
 10 11  1  0  0  0
 11 12  1  0  0  0
 10 21  1  0  0  0
 21 22  2  0  0  0
 22 23  1  0  0  0
 23 24  2  0  0  0
 24 25  1  0  0  0
 25 26  2  0  0  0
 24 27  1  0  0  0
 27 28  2  0  0  0
 28 29  1  0  0  0
 29 30  2  0  0  0
 30 31  1  0  0  0
 31 32  2  0  0  0
 30 33  1  0  0  0
 33 34  1  0  0  0
 33 35  2  0  0  0
  4 37  1  0  0  0
 37 38  2  0  0  0
 38 39  1  0  0  0
 39 40  2  0  0  0
 40 41  1  0  0  0
 41 42  2  0  0  0
 41 43  1  0  0  0
 43 44  1  0  0  0
 43 45  1  0  0  0
 43 46  1  0  0  0
 39 47  1  0  0  0
 47 48  1  0  0  0
 47 49  1  0  0  0
 47 50  1  0  0  0
 19 14  1  0  0  0
  7  1  1  0  0  0
 12  7  1  0  0  0
 26 21  1  0  0  0
 32 27  1  0  0  0
 42 37  1  0  0  0
 13 20  1  0  0  0
 34 36  1  0  0  0
M  END
> <minimizedAffinity>
14.38516

> <CNNscore>
0.4081993103

> <CNNaffinity>
7.2866592407

> <CNN_VS>
2.9744093418

> <CNNaffinity_variance>
0.5625987053

$$$$
[H]OC(=O)c1c([H])c([H])c(-c2c([H])c([H])c(N3C([H])([H])C([H])([H])C4(C(=O)N(c5c([H])c(C(F)(F)F)c([H])c(C(F)(F)F)c5[H])C(=O)N4[C@@]4([H])C([H])([H])C([H])([H])OC([H])([H])[C@@]4([H])O[H])C([H])([H])C3([H])[H])c([H])c2[H])c([H])c1[H]


 50 55  0  0  0  0  0  0  0  0999 V2000
   14.8148   23.3987   -2.7953 N   0  0  0  0  0  0  0  0  0  0  0  0
   14.6118   24.5001   -3.6871 C   0  0  0  0  0  0  0  0  0  0  0  0
   14.4850   24.5208   -4.9490 O   0  0  0  0  0  0  0  0  0  0  0  0
   14.5482   25.7224   -2.9406 N   0  0  0  0  0  0  0  0  0  0  0  0
   14.7089   25.3387   -1.5742 C   0  0  0  0  0  0  0  0  0  0  0  0
   15.1561   26.0473   -0.6705 O   0  0  0  0  0  0  0  0  0  0  0  0
   14.1943   23.9007   -1.5777 C   0  0  0  0  0  0  0  0  0  0  0  0
   14.4754   23.3144   -0.2832 C   0  0  0  0  0  0  0  0  0  0  0  0
   13.3897   22.3723    0.2773 C   0  0  0  0  0  0  0  0  0  0  0  0
   12.1783   23.1439    0.4297 N   0  0  0  0  0  0  0  0  0  0  0  0
   12.1269   24.3747   -0.3620 C   0  0  0  0  0  0  0  0  0  0  0  0
   12.6740   23.9767   -1.7479 C   0  0  0  0  0  0  0  0  0  0  0  0
   16.9107   22.8926   -4.9959 O   0  0  0  0  0  0  0  0  0  0  0  0
   15.9039   22.0554   -4.6196 C   0  0  0  0  0  0  0  0  0  0  0  0
   14.7269   21.9578   -5.4667 C   0  0  0  0  0  0  0  0  0  0  0  0
   13.9839   20.8369   -5.1467 O   0  0  0  0  0  0  0  0  0  0  0  0
   14.3769   20.1511   -4.0517 C   0  0  0  0  0  0  0  0  0  0  0  0
   14.8320   20.9201   -2.8411 C   0  0  0  0  0  0  0  0  0  0  0  0
   15.4980   22.2111   -3.1295 C   0  0  0  0  0  0  0  0  0  0  0  0
   17.7097   22.8420   -4.4059 H   0  0  0  0  0  0  0  0  0  0  0  0
   11.1634   22.7285    1.2925 C   0  0  0  0  0  0  0  0  0  0  0  0
    9.8485   22.9944    0.9791 C   0  0  0  0  0  0  0  0  0  0  0  0
    8.8257   22.6551    1.8395 C   0  0  0  0  0  0  0  0  0  0  0  0
    9.0523   22.0348    3.0515 C   0  0  0  0  0  0  0  0  0  0  0  0
   10.3617   21.7638    3.3598 C   0  0  0  0  0  0  0  0  0  0  0  0
   11.4221   22.1054    2.4926 C   0  0  0  0  0  0  0  0  0  0  0  0
    7.9049   21.7857    3.9146 C   0  0  0  0  0  0  0  0  0  0  0  0
    6.6610   21.6035    3.2703 C   0  0  0  0  0  0  0  0  0  0  0  0
    5.5041   21.3917    3.9983 C   0  0  0  0  0  0  0  0  0  0  0  0
    5.5121   21.3466    5.3800 C   0  0  0  0  0  0  0  0  0  0  0  0
    6.7318   21.5198    6.0108 C   0  0  0  0  0  0  0  0  0  0  0  0
    7.9059   21.7375    5.2720 C   0  0  0  0  0  0  0  0  0  0  0  0
    4.3076   21.1754    6.1557 C   0  0  0  0  0  0  0  0  0  0  0  0
    3.9046   22.1422    7.0400 O   0  0  0  0  0  0  0  0  0  0  0  0
    3.6152   20.1478    6.0378 O   0  0  0  0  0  0  0  0  0  0  0  0
    3.7898   23.0997    6.7393 H   0  0  0  0  0  0  0  0  0  0  0  0
   14.3626   26.9986   -3.5242 C   0  0  0  0  0  0  0  0  0  0  0  0
   15.3144   27.5038   -4.3883 C   0  0  0  0  0  0  0  0  0  0  0  0
   15.1615   28.7328   -5.0165 C   0  0  0  0  0  0  0  0  0  0  0  0
   14.0261   29.4851   -4.7778 C   0  0  0  0  0  0  0  0  0  0  0  0
   13.0902   28.9680   -3.9120 C   0  0  0  0  0  0  0  0  0  0  0  0
   13.2368   27.7361   -3.2762 C   0  0  0  0  0  0  0  0  0  0  0  0
   11.8700   29.8209   -3.6994 C   0  0  0  0  0  0  0  0  0  0  0  0
   11.6582   29.9310   -2.3175 F   0  0  0  0  0  0  0  0  0  0  0  0
   12.1707   31.0825   -4.1566 F   0  0  0  0  0  0  0  0  0  0  0  0
   10.7527   29.2794   -4.2714 F   0  0  0  0  0  0  0  0  0  0  0  0
   16.2050   29.2390   -5.9433 C   0  0  0  0  0  0  0  0  0  0  0  0
   17.4375   29.3067   -5.3037 F   0  0  0  0  0  0  0  0  0  0  0  0
   15.9111   30.4795   -6.4499 F   0  0  0  0  0  0  0  0  0  0  0  0
   16.3234   28.3518   -6.9737 F   0  0  0  0  0  0  0  0  0  0  0  0
 13 14  1  0  0  0
 14 15  1  0  0  0
 15 16  1  0  0  0
 16 17  1  0  0  0
 17 18  1  0  0  0
 18 19  1  0  0  0
 19  1  1  0  0  0
  1  2  1  0  0  0
  2  3  2  0  0  0
  2  4  1  0  0  0
  4  5  1  0  0  0
  5  6  2  0  0  0
  5  7  1  0  0  0
  7  8  1  0  0  0
  8  9  1  0  0  0
  9 10  1  0  0  0
 10 11  1  0  0  0
 11 12  1  0  0  0
 10 21  1  0  0  0
 21 22  2  0  0  0
 22 23  1  0  0  0
 23 24  2  0  0  0
 24 25  1  0  0  0
 25 26  2  0  0  0
 24 27  1  0  0  0
 27 28  2  0  0  0
 28 29  1  0  0  0
 29 30  2  0  0  0
 30 31  1  0  0  0
 31 32  2  0  0  0
 30 33  1  0  0  0
 33 34  1  0  0  0
 33 35  2  0  0  0
  4 37  1  0  0  0
 37 38  2  0  0  0
 38 39  1  0  0  0
 39 40  2  0  0  0
 40 41  1  0  0  0
 41 42  2  0  0  0
 41 43  1  0  0  0
 43 44  1  0  0  0
 43 45  1  0  0  0
 43 46  1  0  0  0
 39 47  1  0  0  0
 47 48  1  0  0  0
 47 49  1  0  0  0
 47 50  1  0  0  0
 19 14  1  0  0  0
  7  1  1  0  0  0
 12  7  1  0  0  0
 26 21  1  0  0  0
 32 27  1  0  0  0
 42 37  1  0  0  0
 13 20  1  0  0  0
 34 36  1  0  0  0
M  END
> <minimizedAffinity>
22.49856

> <CNNscore>
0.4062981606

> <CNNaffinity>
7.3371000290

> <CNN_VS>
2.9810502529

> <CNNaffinity_variance>
1.5647293329

$$$$
[H]OC(=O)c1c([H])c([H])c(-c2c([H])c([H])c(N3C([H])([H])C([H])([H])C4(C(=O)N(c5c([H])c(C(F)(F)F)c([H])c(C(F)(F)F)c5[H])C(=O)N4[C@@]4([H])C([H])([H])C([H])([H])OC([H])([H])[C@@]4([H])O[H])C([H])([H])C3([H])[H])c([H])c2[H])c([H])c1[H]


 50 55  0  0  0  0  0  0  0  0999 V2000
   16.6491   23.8198   -1.1577 N   0  0  0  0  0  0  0  0  0  0  0  0
   16.7149   24.2117   -2.5331 C   0  0  0  0  0  0  0  0  0  0  0  0
   17.3100   23.6688   -3.5129 O   0  0  0  0  0  0  0  0  0  0  0  0
   15.9519   25.4090   -2.7326 N   0  0  0  0  0  0  0  0  0  0  0  0
   15.4141   25.7318   -1.4493 C   0  0  0  0  0  0  0  0  0  0  0  0
   15.0952   26.8565   -1.0595 O   0  0  0  0  0  0  0  0  0  0  0  0
   15.3571   24.3661   -0.7679 C   0  0  0  0  0  0  0  0  0  0  0  0
   15.0044   24.5666    0.6227 C   0  0  0  0  0  0  0  0  0  0  0  0
   14.0592   23.5117    1.2345 C   0  0  0  0  0  0  0  0  0  0  0  0
   12.8236   23.5469    0.4876 N   0  0  0  0  0  0  0  0  0  0  0  0
   12.9227   24.1544   -0.8411 C   0  0  0  0  0  0  0  0  0  0  0  0
   14.2244   23.5845   -1.4404 C   0  0  0  0  0  0  0  0  0  0  0  0
   16.4514   21.9636    1.2932 O   0  0  0  0  0  0  0  0  0  0  0  0
   17.4248   22.8831    1.0421 C   0  0  0  0  0  0  0  0  0  0  0  0
   17.3966   24.1422    1.7677 C   0  0  0  0  0  0  0  0  0  0  0  0
   18.6118   24.7932    1.6676 O   0  0  0  0  0  0  0  0  0  0  0  0
   19.5143   24.2493    0.8230 C   0  0  0  0  0  0  0  0  0  0  0  0
   19.0337   23.6962   -0.4912 C   0  0  0  0  0  0  0  0  0  0  0  0
   17.6672   23.1257   -0.4717 C   0  0  0  0  0  0  0  0  0  0  0  0
   16.5872   21.1019    0.8156 H   0  0  0  0  0  0  0  0  0  0  0  0
   11.6385   23.0503    1.0317 C   0  0  0  0  0  0  0  0  0  0  0  0
   11.6893   22.1488    2.0722 C   0  0  0  0  0  0  0  0  0  0  0  0
   10.5402   21.5897    2.5905 C   0  0  0  0  0  0  0  0  0  0  0  0
    9.2842   21.8955    2.1068 C   0  0  0  0  0  0  0  0  0  0  0  0
    9.2339   22.7990    1.0752 C   0  0  0  0  0  0  0  0  0  0  0  0
   10.3994   23.3802    0.5304 C   0  0  0  0  0  0  0  0  0  0  0  0
    8.1435   21.1930    2.6803 C   0  0  0  0  0  0  0  0  0  0  0  0
    6.8718   21.5371    2.1705 C   0  0  0  0  0  0  0  0  0  0  0  0
    5.7212   20.9520    2.6674 C   0  0  0  0  0  0  0  0  0  0  0  0
    5.7626   20.0085    3.6771 C   0  0  0  0  0  0  0  0  0  0  0  0
    7.0092   19.6676    4.1727 C   0  0  0  0  0  0  0  0  0  0  0  0
    8.1771   20.2636    3.6701 C   0  0  0  0  0  0  0  0  0  0  0  0
    4.5693   19.4246    4.2402 C   0  0  0  0  0  0  0  0  0  0  0  0
    3.3894   20.1223    4.2493 O   0  0  0  0  0  0  0  0  0  0  0  0
    4.5901   18.2801    4.7288 O   0  0  0  0  0  0  0  0  0  0  0  0
    3.0137   20.5103    3.3956 H   0  0  0  0  0  0  0  0  0  0  0  0
   15.8178   26.0645   -3.9799 C   0  0  0  0  0  0  0  0  0  0  0  0
   15.5883   25.3248   -5.1236 C   0  0  0  0  0  0  0  0  0  0  0  0
   15.4111   25.9220   -6.3647 C   0  0  0  0  0  0  0  0  0  0  0  0
   15.4645   27.2994   -6.4735 C   0  0  0  0  0  0  0  0  0  0  0  0
   15.6970   28.0202   -5.3248 C   0  0  0  0  0  0  0  0  0  0  0  0
   15.8775   27.4284   -4.0756 C   0  0  0  0  0  0  0  0  0  0  0  0
   15.7316   29.5135   -5.4984 C   0  0  0  0  0  0  0  0  0  0  0  0
   16.9171   29.9864   -4.9173 F   0  0  0  0  0  0  0  0  0  0  0  0
   15.8231   29.7644   -6.8474 F   0  0  0  0  0  0  0  0  0  0  0  0
   14.6719   30.1305   -4.8940 F   0  0  0  0  0  0  0  0  0  0  0  0
   15.1611   25.0922   -7.5702 C   0  0  0  0  0  0  0  0  0  0  0  0
   15.1099   23.7440   -7.2352 F   0  0  0  0  0  0  0  0  0  0  0  0
   16.1157   25.2616   -8.5407 F   0  0  0  0  0  0  0  0  0  0  0  0
   13.9418   25.4377   -8.0771 F   0  0  0  0  0  0  0  0  0  0  0  0
 13 14  1  0  0  0
 14 15  1  0  0  0
 15 16  1  0  0  0
 16 17  1  0  0  0
 17 18  1  0  0  0
 18 19  1  0  0  0
 19  1  1  0  0  0
  1  2  1  0  0  0
  2  3  2  0  0  0
  2  4  1  0  0  0
  4  5  1  0  0  0
  5  6  2  0  0  0
  5  7  1  0  0  0
  7  8  1  0  0  0
  8  9  1  0  0  0
  9 10  1  0  0  0
 10 11  1  0  0  0
 11 12  1  0  0  0
 10 21  1  0  0  0
 21 22  2  0  0  0
 22 23  1  0  0  0
 23 24  2  0  0  0
 24 25  1  0  0  0
 25 26  2  0  0  0
 24 27  1  0  0  0
 27 28  2  0  0  0
 28 29  1  0  0  0
 29 30  2  0  0  0
 30 31  1  0  0  0
 31 32  2  0  0  0
 30 33  1  0  0  0
 33 34  1  0  0  0
 33 35  2  0  0  0
  4 37  1  0  0  0
 37 38  2  0  0  0
 38 39  1  0  0  0
 39 40  2  0  0  0
 40 41  1  0  0  0
 41 42  2  0  0  0
 41 43  1  0  0  0
 43 44  1  0  0  0
 43 45  1  0  0  0
 43 46  1  0  0  0
 39 47  1  0  0  0
 47 48  1  0  0  0
 47 49  1  0  0  0
 47 50  1  0  0  0
 19 14  1  0  0  0
  7  1  1  0  0  0
 12  7  1  0  0  0
 26 21  1  0  0  0
 32 27  1  0  0  0
 42 37  1  0  0  0
 13 20  1  0  0  0
 34 36  1  0  0  0
M  END
> <minimizedAffinity>
17.84734

> <CNNscore>
0.4051686227

> <CNNaffinity>
7.4557623863

> <CNN_VS>
3.0208408833

> <CNNaffinity_variance>
0.7218726277

$$$$
[H]OC(=O)c1c([H])c([H])c(-c2c([H])c([H])c(N3C([H])([H])C([H])([H])C4(C(=O)N(c5c([H])c(C(F)(F)F)c([H])c(C(F)(F)F)c5[H])C(=O)N4[C@@]4([H])C([H])([H])C([H])([H])OC([H])([H])[C@@]4([H])O[H])C([H])([H])C3([H])[H])c([H])c2[H])c([H])c1[H]


 50 55  0  0  0  0  0  0  0  0999 V2000
    9.2734   21.5848    2.1089 N   0  0  0  0  0  0  0  0  0  0  0  0
    8.5609   22.2794    3.1383 C   0  0  0  0  0  0  0  0  0  0  0  0
    8.5364   22.0867    4.3918 O   0  0  0  0  0  0  0  0  0  0  0  0
    7.7927   23.3439    2.5619 N   0  0  0  0  0  0  0  0  0  0  0  0
    8.0604   23.2860    1.1601 C   0  0  0  0  0  0  0  0  0  0  0  0
    7.3140   23.6824    0.2631 O   0  0  0  0  0  0  0  0  0  0  0  0
    9.4434   22.6392    1.1196 C   0  0  0  0  0  0  0  0  0  0  0  0
    9.7657   22.3421   -0.2611 C   0  0  0  0  0  0  0  0  0  0  0  0
   11.2377   22.5599   -0.6688 C   0  0  0  0  0  0  0  0  0  0  0  0
   11.5449   23.9565   -0.4662 N   0  0  0  0  0  0  0  0  0  0  0  0
   10.6424   24.6608    0.4468 C   0  0  0  0  0  0  0  0  0  0  0  0
   10.4364   23.6894    1.6269 C   0  0  0  0  0  0  0  0  0  0  0  0
   10.6485   19.9779    4.3491 O   0  0  0  0  0  0  0  0  0  0  0  0
   10.8602   19.8555    3.0089 C   0  0  0  0  0  0  0  0  0  0  0  0
   12.0647   20.4358    2.4388 C   0  0  0  0  0  0  0  0  0  0  0  0
   12.3017   19.9301    1.1744 O   0  0  0  0  0  0  0  0  0  0  0  0
   11.3342   19.1457    0.6526 C   0  0  0  0  0  0  0  0  0  0  0  0
    9.8956   19.5280    0.8727 C   0  0  0  0  0  0  0  0  0  0  0  0
    9.6168   20.2177    2.1533 C   0  0  0  0  0  0  0  0  0  0  0  0
    9.8450   19.4874    4.6700 H   0  0  0  0  0  0  0  0  0  0  0  0
   12.6159   24.5615   -1.1251 C   0  0  0  0  0  0  0  0  0  0  0  0
   13.9038   24.1563   -0.8511 C   0  0  0  0  0  0  0  0  0  0  0  0
   14.9879   24.7760   -1.4360 C   0  0  0  0  0  0  0  0  0  0  0  0
   14.8522   25.8258   -2.3218 C   0  0  0  0  0  0  0  0  0  0  0  0
   13.5688   26.2241   -2.5998 C   0  0  0  0  0  0  0  0  0  0  0  0
   12.4468   25.6032   -2.0093 C   0  0  0  0  0  0  0  0  0  0  0  0
   16.0670   26.4535   -2.8257 C   0  0  0  0  0  0  0  0  0  0  0  0
   16.6670   27.4225   -1.9911 C   0  0  0  0  0  0  0  0  0  0  0  0
   17.8057   28.1002   -2.3880 C   0  0  0  0  0  0  0  0  0  0  0  0
   18.4060   27.8604   -3.6101 C   0  0  0  0  0  0  0  0  0  0  0  0
   17.8209   26.9072   -4.4253 C   0  0  0  0  0  0  0  0  0  0  0  0
   16.6635   26.2211   -4.0236 C   0  0  0  0  0  0  0  0  0  0  0  0
   19.5651   28.5927   -4.0598 C   0  0  0  0  0  0  0  0  0  0  0  0
   20.7359   27.9388   -4.3435 O   0  0  0  0  0  0  0  0  0  0  0  0
   19.5235   29.8292   -4.1959 O   0  0  0  0  0  0  0  0  0  0  0  0
   20.7495   27.1650   -4.9928 H   0  0  0  0  0  0  0  0  0  0  0  0
    6.9677   24.2195    3.3077 C   0  0  0  0  0  0  0  0  0  0  0  0
    6.2252   23.7302    4.3647 C   0  0  0  0  0  0  0  0  0  0  0  0
    5.4307   24.5539    5.1512 C   0  0  0  0  0  0  0  0  0  0  0  0
    5.3710   25.9081    4.8783 C   0  0  0  0  0  0  0  0  0  0  0  0
    6.1143   26.3776    3.8200 C   0  0  0  0  0  0  0  0  0  0  0  0
    6.9131   25.5573    3.0247 C   0  0  0  0  0  0  0  0  0  0  0  0
    6.0230   27.8587    3.5766 C   0  0  0  0  0  0  0  0  0  0  0  0
    7.1167   28.2320    2.7822 F   0  0  0  0  0  0  0  0  0  0  0  0
    4.8928   28.0786    2.8246 F   0  0  0  0  0  0  0  0  0  0  0  0
    6.0602   28.5785    4.7383 F   0  0  0  0  0  0  0  0  0  0  0  0
    4.6514   23.9905    6.2824 C   0  0  0  0  0  0  0  0  0  0  0  0
    5.4412   23.1381    7.0453 F   0  0  0  0  0  0  0  0  0  0  0  0
    3.5399   23.2995    5.8715 F   0  0  0  0  0  0  0  0  0  0  0  0
    4.2640   25.0234    7.0862 F   0  0  0  0  0  0  0  0  0  0  0  0
 13 14  1  0  0  0
 14 15  1  0  0  0
 15 16  1  0  0  0
 16 17  1  0  0  0
 17 18  1  0  0  0
 18 19  1  0  0  0
 19  1  1  0  0  0
  1  2  1  0  0  0
  2  3  2  0  0  0
  2  4  1  0  0  0
  4  5  1  0  0  0
  5  6  2  0  0  0
  5  7  1  0  0  0
  7  8  1  0  0  0
  8  9  1  0  0  0
  9 10  1  0  0  0
 10 11  1  0  0  0
 11 12  1  0  0  0
 10 21  1  0  0  0
 21 22  2  0  0  0
 22 23  1  0  0  0
 23 24  2  0  0  0
 24 25  1  0  0  0
 25 26  2  0  0  0
 24 27  1  0  0  0
 27 28  2  0  0  0
 28 29  1  0  0  0
 29 30  2  0  0  0
 30 31  1  0  0  0
 31 32  2  0  0  0
 30 33  1  0  0  0
 33 34  1  0  0  0
 33 35  2  0  0  0
  4 37  1  0  0  0
 37 38  2  0  0  0
 38 39  1  0  0  0
 39 40  2  0  0  0
 40 41  1  0  0  0
 41 42  2  0  0  0
 41 43  1  0  0  0
 43 44  1  0  0  0
 43 45  1  0  0  0
 43 46  1  0  0  0
 39 47  1  0  0  0
 47 48  1  0  0  0
 47 49  1  0  0  0
 47 50  1  0  0  0
 19 14  1  0  0  0
  7  1  1  0  0  0
 12  7  1  0  0  0
 26 21  1  0  0  0
 32 27  1  0  0  0
 42 37  1  0  0  0
 13 20  1  0  0  0
 34 36  1  0  0  0
M  END
> <minimizedAffinity>
3.91767

> <CNNscore>
0.3769856393

> <CNNaffinity>
7.0944733620

> <CNN_VS>
2.6745145321

> <CNNaffinity_variance>
0.4618567526

$$$$
[H]OC(=O)c1c([H])c([H])c(-c2c([H])c([H])c(N3C([H])([H])C([H])([H])C4(C(=O)N(c5c([H])c(C(F)(F)F)c([H])c(C(F)(F)F)c5[H])C(=O)N4[C@@]4([H])C([H])([H])C([H])([H])OC([H])([H])[C@@]4([H])O[H])C([H])([H])C3([H])[H])c([H])c2[H])c([H])c1[H]


 50 55  0  0  0  0  0  0  0  0999 V2000
   10.3554   22.4182    3.8535 N   0  0  0  0  0  0  0  0  0  0  0  0
    9.5126   23.3842    4.4910 C   0  0  0  0  0  0  0  0  0  0  0  0
    9.5971   23.9149    5.6400 O   0  0  0  0  0  0  0  0  0  0  0  0
    8.4422   23.7496    3.6100 N   0  0  0  0  0  0  0  0  0  0  0  0
    8.6576   22.9903    2.4195 C   0  0  0  0  0  0  0  0  0  0  0  0
    7.7917   22.6469    1.6126 O   0  0  0  0  0  0  0  0  0  0  0  0
   10.1669   22.7583    2.4505 C   0  0  0  0  0  0  0  0  0  0  0  0
   10.5058   21.8305    1.3908 C   0  0  0  0  0  0  0  0  0  0  0  0
   11.8305   22.1109    0.6512 C   0  0  0  0  0  0  0  0  0  0  0  0
   11.7209   23.4137    0.0377 N   0  0  0  0  0  0  0  0  0  0  0  0
   10.6891   24.2807    0.6103 C   0  0  0  0  0  0  0  0  0  0  0  0
   10.8266   24.1045    2.1363 C   0  0  0  0  0  0  0  0  0  0  0  0
   10.9674   19.5188    3.0106 O   0  0  0  0  0  0  0  0  0  0  0  0
   10.6519   19.9557    4.2619 C   0  0  0  0  0  0  0  0  0  0  0  0
    9.3092   19.7170    4.7643 C   0  0  0  0  0  0  0  0  0  0  0  0
    9.2598   19.8925    6.1345 O   0  0  0  0  0  0  0  0  0  0  0  0
   10.3746   20.3863    6.7150 C   0  0  0  0  0  0  0  0  0  0  0  0
   11.1356   21.4761    6.0098 C   0  0  0  0  0  0  0  0  0  0  0  0
   11.0876   21.4211    4.5306 C   0  0  0  0  0  0  0  0  0  0  0  0
   11.9243   19.6509    2.7740 H   0  0  0  0  0  0  0  0  0  0  0  0
   12.5385   23.7768   -1.0332 C   0  0  0  0  0  0  0  0  0  0  0  0
   12.3012   24.9557   -1.7052 C   0  0  0  0  0  0  0  0  0  0  0  0
   13.0490   25.3135   -2.8072 C   0  0  0  0  0  0  0  0  0  0  0  0
   14.0693   24.5243   -3.2981 C   0  0  0  0  0  0  0  0  0  0  0  0
   14.3099   23.3536   -2.6239 C   0  0  0  0  0  0  0  0  0  0  0  0
   13.5536   22.9696   -1.4953 C   0  0  0  0  0  0  0  0  0  0  0  0
   14.7479   24.9639   -4.5105 C   0  0  0  0  0  0  0  0  0  0  0  0
   14.3437   26.2092   -5.0411 C   0  0  0  0  0  0  0  0  0  0  0  0
   14.9024   26.7042   -6.2057 C   0  0  0  0  0  0  0  0  0  0  0  0
   15.8768   26.0091   -6.8976 C   0  0  0  0  0  0  0  0  0  0  0  0
   16.2764   24.7916   -6.3745 C   0  0  0  0  0  0  0  0  0  0  0  0
   15.7074   24.2878   -5.1939 C   0  0  0  0  0  0  0  0  0  0  0  0
   16.4347   26.4880   -8.1392 C   0  0  0  0  0  0  0  0  0  0  0  0
   16.3950   25.7101   -9.2672 O   0  0  0  0  0  0  0  0  0  0  0  0
   16.9629   27.6129   -8.2077 O   0  0  0  0  0  0  0  0  0  0  0  0
   15.5207   25.3280   -9.5989 H   0  0  0  0  0  0  0  0  0  0  0  0
    7.4271   24.6794    3.9395 C   0  0  0  0  0  0  0  0  0  0  0  0
    6.4650   24.3443    4.8723 C   0  0  0  0  0  0  0  0  0  0  0  0
    5.4713   25.2341    5.2585 C   0  0  0  0  0  0  0  0  0  0  0  0
    5.4314   26.4981    4.6993 C   0  0  0  0  0  0  0  0  0  0  0  0
    6.3954   26.8136    3.7697 C   0  0  0  0  0  0  0  0  0  0  0  0
    7.3953   25.9258    3.3754 C   0  0  0  0  0  0  0  0  0  0  0  0
    6.3129   28.2045    3.2042 C   0  0  0  0  0  0  0  0  0  0  0  0
    5.0207   28.3831    2.6893 F   0  0  0  0  0  0  0  0  0  0  0  0
    6.4454   29.0801    4.2563 F   0  0  0  0  0  0  0  0  0  0  0  0
    7.2165   28.4102    2.1992 F   0  0  0  0  0  0  0  0  0  0  0  0
    4.4580   24.8380    6.2687 C   0  0  0  0  0  0  0  0  0  0  0  0
    3.3739   24.2177    5.6583 F   0  0  0  0  0  0  0  0  0  0  0  0
    3.9931   25.9002    7.0017 F   0  0  0  0  0  0  0  0  0  0  0  0
    5.0317   23.9302    7.1113 F   0  0  0  0  0  0  0  0  0  0  0  0
 13 14  1  0  0  0
 14 15  1  0  0  0
 15 16  1  0  0  0
 16 17  1  0  0  0
 17 18  1  0  0  0
 18 19  1  0  0  0
 19  1  1  0  0  0
  1  2  1  0  0  0
  2  3  2  0  0  0
  2  4  1  0  0  0
  4  5  1  0  0  0
  5  6  2  0  0  0
  5  7  1  0  0  0
  7  8  1  0  0  0
  8  9  1  0  0  0
  9 10  1  0  0  0
 10 11  1  0  0  0
 11 12  1  0  0  0
 10 21  1  0  0  0
 21 22  2  0  0  0
 22 23  1  0  0  0
 23 24  2  0  0  0
 24 25  1  0  0  0
 25 26  2  0  0  0
 24 27  1  0  0  0
 27 28  2  0  0  0
 28 29  1  0  0  0
 29 30  2  0  0  0
 30 31  1  0  0  0
 31 32  2  0  0  0
 30 33  1  0  0  0
 33 34  1  0  0  0
 33 35  2  0  0  0
  4 37  1  0  0  0
 37 38  2  0  0  0
 38 39  1  0  0  0
 39 40  2  0  0  0
 40 41  1  0  0  0
 41 42  2  0  0  0
 41 43  1  0  0  0
 43 44  1  0  0  0
 43 45  1  0  0  0
 43 46  1  0  0  0
 39 47  1  0  0  0
 47 48  1  0  0  0
 47 49  1  0  0  0
 47 50  1  0  0  0
 19 14  1  0  0  0
  7  1  1  0  0  0
 12  7  1  0  0  0
 26 21  1  0  0  0
 32 27  1  0  0  0
 42 37  1  0  0  0
 13 20  1  0  0  0
 34 36  1  0  0  0
M  END
> <minimizedAffinity>
-5.66399

> <CNNscore>
0.3736199737

> <CNNaffinity>
7.1201081276

> <CNN_VS>
2.6602146626

> <CNNaffinity_variance>
0.1661110669

$$$$
[H]OC(=O)C([H])([H])[C@@]([H])(C(=O)N([H])[C@]([H])(C(=O)N([H])[C@]([H])(C(=O)O[H])C([H])([H])c1c([H])c([H])c([H])c([H])c1[H])C([H])([H])C([H])(C([H])([H])[H])C([H])([H])[H])N([H])C(=O)C([H])([H])C([H])([H])c1c([H])nc([H])c([H])c1[H]


 43 44  0  0  0  0  0  0  0  0999 V2000
   11.9618   22.2287   -0.6616 N   0  0  0  0  0  0  0  0  0  0  0  0
   13.3505   22.2006   -0.6401 C   0  0  0  0  0  0  0  0  0  0  0  0
   14.0254   23.0370   -0.0017 O   0  0  0  0  0  0  0  0  0  0  0  0
   11.3758   21.5452   -1.1750 H   0  0  0  0  0  0  0  0  0  0  0  0
   11.1576   23.2767    0.0736 C   0  0  0  0  0  0  0  0  0  0  0  0
    9.9742   22.5128    0.4810 C   0  0  0  0  0  0  0  0  0  0  0  0
   10.1403   21.2655    0.8352 O   0  0  0  0  0  0  0  0  0  0  0  0
    8.6582   22.9560    0.5392 N   0  0  0  0  0  0  0  0  0  0  0  0
    8.2517   23.8753    0.3069 H   0  0  0  0  0  0  0  0  0  0  0  0
    7.5819   22.0118    0.9876 C   0  0  0  0  0  0  0  0  0  0  0  0
    7.4860   22.1558    2.4433 C   0  0  0  0  0  0  0  0  0  0  0  0
    8.5182   21.6944    3.2438 O   0  0  0  0  0  0  0  0  0  0  0  0
    6.4991   22.6849    3.0115 O   0  0  0  0  0  0  0  0  0  0  0  0
    9.0848   20.8816    3.0326 H   0  0  0  0  0  0  0  0  0  0  0  0
    7.9478   20.6612    0.4899 C   0  0  0  0  0  0  0  0  0  0  0  0
    7.0802   20.0831   -0.5294 C   0  0  0  0  0  0  0  0  0  0  0  0
    7.0174   18.7031   -0.6657 C   0  0  0  0  0  0  0  0  0  0  0  0
    6.2226   18.0859   -1.5986 C   0  0  0  0  0  0  0  0  0  0  0  0
    5.4416   18.8318   -2.4517 C   0  0  0  0  0  0  0  0  0  0  0  0
    5.4765   20.2126   -2.3469 C   0  0  0  0  0  0  0  0  0  0  0  0
    6.2885   20.8143   -1.3951 C   0  0  0  0  0  0  0  0  0  0  0  0
   10.9629   24.3482   -0.8812 C   0  0  0  0  0  0  0  0  0  0  0  0
   12.7640   25.6259    0.2883 C   0  0  0  0  0  0  0  0  0  0  0  0
   11.7540   25.5880   -0.8527 C   0  0  0  0  0  0  0  0  0  0  0  0
   12.6659   25.6230   -2.1236 C   0  0  0  0  0  0  0  0  0  0  0  0
   14.0363   21.1111   -1.4244 C   0  0  0  0  0  0  0  0  0  0  0  0
   14.4555   21.5974   -2.7135 N   0  0  0  0  0  0  0  0  0  0  0  0
   15.0437   22.9001   -2.9207 C   0  0  0  0  0  0  0  0  0  0  0  0
   15.1602   23.5756   -1.8699 O   0  0  0  0  0  0  0  0  0  0  0  0
   14.3384   20.9990   -3.5483 H   0  0  0  0  0  0  0  0  0  0  0  0
   15.4467   23.3307   -4.2719 C   0  0  0  0  0  0  0  0  0  0  0  0
   14.9492   24.6218   -4.7609 C   0  0  0  0  0  0  0  0  0  0  0  0
   15.6802   25.8340   -4.4819 C   0  0  0  0  0  0  0  0  0  0  0  0
   16.4344   25.9905   -3.3123 C   0  0  0  0  0  0  0  0  0  0  0  0
   17.1064   27.1576   -3.0297 C   0  0  0  0  0  0  0  0  0  0  0  0
   17.0511   28.2234   -3.9115 C   0  0  0  0  0  0  0  0  0  0  0  0
   16.3270   28.0684   -5.0298 N   0  0  0  0  0  0  0  0  0  0  0  0
   15.6544   26.9132   -5.3216 C   0  0  0  0  0  0  0  0  0  0  0  0
   15.1494   20.5788   -0.5809 C   0  0  0  0  0  0  0  0  0  0  0  0
   14.9171   20.7827    0.8721 C   0  0  0  0  0  0  0  0  0  0  0  0
   15.8056   21.4713    1.6513 O   0  0  0  0  0  0  0  0  0  0  0  0
   13.8567   20.2903    1.3619 O   0  0  0  0  0  0  0  0  0  0  0  0
   16.7053   21.7192    1.2580 H   0  0  0  0  0  0  0  0  0  0  0  0
 23 24  1  0  0  0
 24 25  1  0  0  0
 24 22  1  0  0  0
 22  5  1  0  0  0
  5  1  1  0  0  0
  1  2  1  0  0  0
  2  3  2  0  0  0
  2 26  1  0  0  0
 26 39  1  0  0  0
 39 40  1  0  0  0
 40 41  1  0  0  0
 40 42  2  0  0  0
 26 27  1  0  0  0
 27 28  1  0  0  0
 28 29  2  0  0  0
 28 31  1  0  0  0
 31 32  1  0  0  0
 32 33  1  0  0  0
 33 34  2  0  0  0
 34 35  1  0  0  0
 35 36  2  0  0  0
 36 37  1  0  0  0
 37 38  2  0  0  0
  5  6  1  0  0  0
  6  7  2  0  0  0
  6  8  1  0  0  0
  8 10  1  0  0  0
 10 15  1  0  0  0
 15 16  1  0  0  0
 16 17  2  0  0  0
 17 18  1  0  0  0
 18 19  2  0  0  0
 19 20  1  0  0  0
 20 21  2  0  0  0
 10 11  1  0  0  0
 11 12  1  0  0  0
 11 13  2  0  0  0
 38 33  1  0  0  0
 21 16  1  0  0  0
  1  4  1  0  0  0
 41 43  1  0  0  0
 27 30  1  0  0  0
  8  9  1  0  0  0
 12 14  1  0  0  0
M  END
> <minimizedAffinity>
-7.91833

> <CNNscore>
0.5074408650

> <CNNaffinity>
7.6754059792

> <CNN_VS>
3.8948147297

> <CNNaffinity_variance>
0.4344251752

$$$$
[H]OC(=O)C([H])([H])[C@@]([H])(C(=O)N([H])[C@]([H])(C(=O)N([H])[C@]([H])(C(=O)O[H])C([H])([H])c1c([H])c([H])c([H])c([H])c1[H])C([H])([H])C([H])(C([H])([H])[H])C([H])([H])[H])N([H])C(=O)C([H])([H])C([H])([H])c1c([H])nc([H])c([H])c1[H]


 43 44  0  0  0  0  0  0  0  0999 V2000
   12.1574   22.6028   -0.7288 N   0  0  0  0  0  0  0  0  0  0  0  0
   12.5157   23.4632    0.3014 C   0  0  0  0  0  0  0  0  0  0  0  0
   12.4666   23.1226    1.5032 O   0  0  0  0  0  0  0  0  0  0  0  0
   12.1949   22.8541   -1.7337 H   0  0  0  0  0  0  0  0  0  0  0  0
   11.6697   21.1937   -0.4798 C   0  0  0  0  0  0  0  0  0  0  0  0
   10.4645   21.4325    0.3205 C   0  0  0  0  0  0  0  0  0  0  0  0
   10.3923   20.8784    1.5022 O   0  0  0  0  0  0  0  0  0  0  0  0
    9.3542   22.1935   -0.0259 N   0  0  0  0  0  0  0  0  0  0  0  0
    9.1477   22.7200   -0.8887 H   0  0  0  0  0  0  0  0  0  0  0  0
    8.2143   22.3163    0.9417 C   0  0  0  0  0  0  0  0  0  0  0  0
    7.1238   21.4989    0.4017 C   0  0  0  0  0  0  0  0  0  0  0  0
    7.1023   21.1979   -0.9504 O   0  0  0  0  0  0  0  0  0  0  0  0
    6.1923   21.0500    1.1141 O   0  0  0  0  0  0  0  0  0  0  0  0
    7.4377   21.8172   -1.6786 H   0  0  0  0  0  0  0  0  0  0  0  0
    7.9259   23.7648    1.0983 C   0  0  0  0  0  0  0  0  0  0  0  0
    8.1791   24.3434    2.4124 C   0  0  0  0  0  0  0  0  0  0  0  0
    8.8306   23.5848    3.3751 C   0  0  0  0  0  0  0  0  0  0  0  0
    9.1069   24.0611    4.6320 C   0  0  0  0  0  0  0  0  0  0  0  0
    8.7388   25.3380    4.9899 C   0  0  0  0  0  0  0  0  0  0  0  0
    8.0865   26.1267    4.0566 C   0  0  0  0  0  0  0  0  0  0  0  0
    7.8180   25.6229    2.7912 C   0  0  0  0  0  0  0  0  0  0  0  0
   12.7747   20.5155    0.1656 C   0  0  0  0  0  0  0  0  0  0  0  0
   14.3043   21.2931   -1.6509 C   0  0  0  0  0  0  0  0  0  0  0  0
   14.0834   20.3395   -0.4825 C   0  0  0  0  0  0  0  0  0  0  0  0
   15.1984   20.7667    0.5286 C   0  0  0  0  0  0  0  0  0  0  0  0
   12.9750   24.8482   -0.0771 C   0  0  0  0  0  0  0  0  0  0  0  0
   14.3146   24.8147   -0.6046 N   0  0  0  0  0  0  0  0  0  0  0  0
   15.4755   24.4866    0.1896 C   0  0  0  0  0  0  0  0  0  0  0  0
   15.2118   24.2290    1.3888 O   0  0  0  0  0  0  0  0  0  0  0  0
   14.4770   25.0341   -1.6017 H   0  0  0  0  0  0  0  0  0  0  0  0
   16.8178   24.4750   -0.4200 C   0  0  0  0  0  0  0  0  0  0  0  0
   17.1237   25.4921   -1.4328 C   0  0  0  0  0  0  0  0  0  0  0  0
   16.4498   25.4717   -2.7083 C   0  0  0  0  0  0  0  0  0  0  0  0
   16.1650   24.2738   -3.3756 C   0  0  0  0  0  0  0  0  0  0  0  0
   15.5508   24.2541   -4.6067 C   0  0  0  0  0  0  0  0  0  0  0  0
   15.1937   25.4401   -5.2254 C   0  0  0  0  0  0  0  0  0  0  0  0
   15.4692   26.5844   -4.5822 N   0  0  0  0  0  0  0  0  0  0  0  0
   16.0797   26.6167   -3.3582 C   0  0  0  0  0  0  0  0  0  0  0  0
   11.9627   25.4194   -1.0166 C   0  0  0  0  0  0  0  0  0  0  0  0
   12.4808   25.5628   -2.4014 C   0  0  0  0  0  0  0  0  0  0  0  0
   12.6595   26.7905   -2.9774 O   0  0  0  0  0  0  0  0  0  0  0  0
   12.7519   24.4958   -3.0298 O   0  0  0  0  0  0  0  0  0  0  0  0
   12.2949   27.6070   -2.5023 H   0  0  0  0  0  0  0  0  0  0  0  0
 23 24  1  0  0  0
 24 25  1  0  0  0
 24 22  1  0  0  0
 22  5  1  0  0  0
  5  1  1  0  0  0
  1  2  1  0  0  0
  2  3  2  0  0  0
  2 26  1  0  0  0
 26 39  1  0  0  0
 39 40  1  0  0  0
 40 41  1  0  0  0
 40 42  2  0  0  0
 26 27  1  0  0  0
 27 28  1  0  0  0
 28 29  2  0  0  0
 28 31  1  0  0  0
 31 32  1  0  0  0
 32 33  1  0  0  0
 33 34  2  0  0  0
 34 35  1  0  0  0
 35 36  2  0  0  0
 36 37  1  0  0  0
 37 38  2  0  0  0
  5  6  1  0  0  0
  6  7  2  0  0  0
  6  8  1  0  0  0
  8 10  1  0  0  0
 10 15  1  0  0  0
 15 16  1  0  0  0
 16 17  2  0  0  0
 17 18  1  0  0  0
 18 19  2  0  0  0
 19 20  1  0  0  0
 20 21  2  0  0  0
 10 11  1  0  0  0
 11 12  1  0  0  0
 11 13  2  0  0  0
 38 33  1  0  0  0
 21 16  1  0  0  0
  1  4  1  0  0  0
 41 43  1  0  0  0
 27 30  1  0  0  0
  8  9  1  0  0  0
 12 14  1  0  0  0
M  END
> <minimizedAffinity>
-6.79800

> <CNNscore>
0.4457376003

> <CNNaffinity>
7.6353845596

> <CNN_VS>
3.4033780098

> <CNNaffinity_variance>
0.0990927666

$$$$
[H]OC(=O)C([H])([H])[C@@]([H])(C(=O)N([H])[C@]([H])(C(=O)N([H])[C@]([H])(C(=O)O[H])C([H])([H])c1c([H])c([H])c([H])c([H])c1[H])C([H])([H])C([H])(C([H])([H])[H])C([H])([H])[H])N([H])C(=O)C([H])([H])C([H])([H])c1c([H])nc([H])c([H])c1[H]


 43 44  0  0  0  0  0  0  0  0999 V2000
   10.9263   23.1877    1.2078 N   0  0  0  0  0  0  0  0  0  0  0  0
   11.8947   22.3156    0.7266 C   0  0  0  0  0  0  0  0  0  0  0  0
   12.3172   22.3699   -0.4487 O   0  0  0  0  0  0  0  0  0  0  0  0
   10.5624   23.1719    2.1782 H   0  0  0  0  0  0  0  0  0  0  0  0
   10.2990   24.2617    0.3485 C   0  0  0  0  0  0  0  0  0  0  0  0
   11.4792   24.8847   -0.2589 C   0  0  0  0  0  0  0  0  0  0  0  0
   12.3079   25.5238    0.5243 O   0  0  0  0  0  0  0  0  0  0  0  0
   11.8410   24.8854   -1.6009 N   0  0  0  0  0  0  0  0  0  0  0  0
   11.3688   24.4739   -2.4206 H   0  0  0  0  0  0  0  0  0  0  0  0
   13.0992   25.5844   -2.0243 C   0  0  0  0  0  0  0  0  0  0  0  0
   12.7384   26.4282   -3.1674 C   0  0  0  0  0  0  0  0  0  0  0  0
   13.7214   27.1639   -3.8092 O   0  0  0  0  0  0  0  0  0  0  0  0
   11.5639   26.5201   -3.6020 O   0  0  0  0  0  0  0  0  0  0  0  0
   14.5258   27.5688   -3.3452 H   0  0  0  0  0  0  0  0  0  0  0  0
   14.1174   24.5352   -2.2855 C   0  0  0  0  0  0  0  0  0  0  0  0
   15.2132   24.4353   -1.3289 C   0  0  0  0  0  0  0  0  0  0  0  0
   15.0473   23.6701   -0.1826 C   0  0  0  0  0  0  0  0  0  0  0  0
   16.0329   23.5258    0.7611 C   0  0  0  0  0  0  0  0  0  0  0  0
   17.2490   24.1496    0.5998 C   0  0  0  0  0  0  0  0  0  0  0  0
   17.4535   24.9223   -0.5315 C   0  0  0  0  0  0  0  0  0  0  0  0
   16.4413   25.0534   -1.4725 C   0  0  0  0  0  0  0  0  0  0  0  0
    9.5134   25.0690    1.2589 C   0  0  0  0  0  0  0  0  0  0  0  0
    9.6447   26.1225    3.5209 C   0  0  0  0  0  0  0  0  0  0  0  0
    9.5003   24.8389    2.7117 C   0  0  0  0  0  0  0  0  0  0  0  0
    8.0782   24.3304    3.1199 C   0  0  0  0  0  0  0  0  0  0  0  0
   12.4337   21.2800    1.6802 C   0  0  0  0  0  0  0  0  0  0  0  0
   11.3590   20.6070    2.3628 N   0  0  0  0  0  0  0  0  0  0  0  0
   11.1094   20.7379    3.7793 C   0  0  0  0  0  0  0  0  0  0  0  0
   11.9165   21.4974    4.3673 O   0  0  0  0  0  0  0  0  0  0  0  0
   10.7205   19.9926    1.8303 H   0  0  0  0  0  0  0  0  0  0  0  0
    9.9897   20.0151    4.4098 C   0  0  0  0  0  0  0  0  0  0  0  0
    8.7403   20.7486    4.6436 C   0  0  0  0  0  0  0  0  0  0  0  0
    7.7153   20.7779    3.6286 C   0  0  0  0  0  0  0  0  0  0  0  0
    7.9923   21.1530    2.3081 C   0  0  0  0  0  0  0  0  0  0  0  0
    7.0099   21.2121    1.3464 C   0  0  0  0  0  0  0  0  0  0  0  0
    5.7010   20.8962    1.6684 C   0  0  0  0  0  0  0  0  0  0  0  0
    5.4411   20.5382    2.9346 N   0  0  0  0  0  0  0  0  0  0  0  0
    6.4092   20.4761    3.8994 C   0  0  0  0  0  0  0  0  0  0  0  0
   13.3275   20.3698    0.9015 C   0  0  0  0  0  0  0  0  0  0  0  0
   12.8399   20.1308   -0.4812 C   0  0  0  0  0  0  0  0  0  0  0  0
   13.6598   20.2752   -1.5665 O   0  0  0  0  0  0  0  0  0  0  0  0
   11.6274   19.7855   -0.6142 O   0  0  0  0  0  0  0  0  0  0  0  0
   14.5726   20.6926   -1.4328 H   0  0  0  0  0  0  0  0  0  0  0  0
 23 24  1  0  0  0
 24 25  1  0  0  0
 24 22  1  0  0  0
 22  5  1  0  0  0
  5  1  1  0  0  0
  1  2  1  0  0  0
  2  3  2  0  0  0
  2 26  1  0  0  0
 26 39  1  0  0  0
 39 40  1  0  0  0
 40 41  1  0  0  0
 40 42  2  0  0  0
 26 27  1  0  0  0
 27 28  1  0  0  0
 28 29  2  0  0  0
 28 31  1  0  0  0
 31 32  1  0  0  0
 32 33  1  0  0  0
 33 34  2  0  0  0
 34 35  1  0  0  0
 35 36  2  0  0  0
 36 37  1  0  0  0
 37 38  2  0  0  0
  5  6  1  0  0  0
  6  7  2  0  0  0
  6  8  1  0  0  0
  8 10  1  0  0  0
 10 15  1  0  0  0
 15 16  1  0  0  0
 16 17  2  0  0  0
 17 18  1  0  0  0
 18 19  2  0  0  0
 19 20  1  0  0  0
 20 21  2  0  0  0
 10 11  1  0  0  0
 11 12  1  0  0  0
 11 13  2  0  0  0
 38 33  1  0  0  0
 21 16  1  0  0  0
  1  4  1  0  0  0
 41 43  1  0  0  0
 27 30  1  0  0  0
  8  9  1  0  0  0
 12 14  1  0  0  0
M  END
> <minimizedAffinity>
-2.70941

> <CNNscore>
0.4091524184

> <CNNaffinity>
6.8925218582

> <CNN_VS>
2.8200919628

> <CNNaffinity_variance>
0.7818697691

$$$$
[H]OC(=O)C([H])([H])[C@@]([H])(C(=O)N([H])[C@]([H])(C(=O)N([H])[C@]([H])(C(=O)O[H])C([H])([H])c1c([H])c([H])c([H])c([H])c1[H])C([H])([H])C([H])(C([H])([H])[H])C([H])([H])[H])N([H])C(=O)C([H])([H])C([H])([H])c1c([H])nc([H])c([H])c1[H]


 43 44  0  0  0  0  0  0  0  0999 V2000
    9.4849   21.3236   -0.9232 N   0  0  0  0  0  0  0  0  0  0  0  0
   10.5842   20.5743   -0.5232 C   0  0  0  0  0  0  0  0  0  0  0  0
   10.4736   19.5589    0.1974 O   0  0  0  0  0  0  0  0  0  0  0  0
    9.5447   22.1647   -1.5259 H   0  0  0  0  0  0  0  0  0  0  0  0
    8.0718   20.9793   -0.5110 C   0  0  0  0  0  0  0  0  0  0  0  0
    8.0612   21.3969    0.8945 C   0  0  0  0  0  0  0  0  0  0  0  0
    7.5276   20.5879    1.7716 O   0  0  0  0  0  0  0  0  0  0  0  0
    8.5586   22.5786    1.4312 N   0  0  0  0  0  0  0  0  0  0  0  0
    9.0117   23.3830    0.9708 H   0  0  0  0  0  0  0  0  0  0  0  0
    8.4522   22.8192    2.9082 C   0  0  0  0  0  0  0  0  0  0  0  0
    7.7602   24.1015    3.0693 C   0  0  0  0  0  0  0  0  0  0  0  0
    8.4316   25.2793    2.7845 O   0  0  0  0  0  0  0  0  0  0  0  0
    6.5696   24.1884    3.4589 O   0  0  0  0  0  0  0  0  0  0  0  0
    9.4232   25.4220    2.9355 H   0  0  0  0  0  0  0  0  0  0  0  0
    9.8273   22.7473    3.4648 C   0  0  0  0  0  0  0  0  0  0  0  0
   10.3070   21.4264    3.8531 C   0  0  0  0  0  0  0  0  0  0  0  0
   11.4473   20.9130    3.2507 C   0  0  0  0  0  0  0  0  0  0  0  0
   11.9609   19.6802    3.5657 C   0  0  0  0  0  0  0  0  0  0  0  0
   11.3483   18.8913    4.5126 C   0  0  0  0  0  0  0  0  0  0  0  0
   10.2075   19.3686    5.1367 C   0  0  0  0  0  0  0  0  0  0  0  0
    9.7067   20.6192    4.8013 C   0  0  0  0  0  0  0  0  0  0  0  0
    7.9273   19.5648   -0.7870 C   0  0  0  0  0  0  0  0  0  0  0  0
    6.0291   17.9897   -1.1863 C   0  0  0  0  0  0  0  0  0  0  0  0
    6.9636   19.0437   -1.7685 C   0  0  0  0  0  0  0  0  0  0  0  0
    5.9826   20.1978   -2.1604 C   0  0  0  0  0  0  0  0  0  0  0  0
   11.9432   21.0285   -0.9916 C   0  0  0  0  0  0  0  0  0  0  0  0
   11.8603   22.3225   -1.6184 N   0  0  0  0  0  0  0  0  0  0  0  0
   11.5666   23.5392   -0.8978 C   0  0  0  0  0  0  0  0  0  0  0  0
   11.3907   23.3687    0.3326 O   0  0  0  0  0  0  0  0  0  0  0  0
   12.0156   22.4080   -2.6368 H   0  0  0  0  0  0  0  0  0  0  0  0
   11.4957   24.8289   -1.6086 C   0  0  0  0  0  0  0  0  0  0  0  0
   12.7163   25.6397   -1.6891 C   0  0  0  0  0  0  0  0  0  0  0  0
   13.4707   25.6954   -2.9176 C   0  0  0  0  0  0  0  0  0  0  0  0
   14.4663   24.7572   -3.2177 C   0  0  0  0  0  0  0  0  0  0  0  0
   15.2084   24.8275   -4.3743 C   0  0  0  0  0  0  0  0  0  0  0  0
   14.9837   25.8460   -5.2846 C   0  0  0  0  0  0  0  0  0  0  0  0
   14.0295   26.7421   -4.9921 N   0  0  0  0  0  0  0  0  0  0  0  0
   13.2854   26.6830   -3.8455 C   0  0  0  0  0  0  0  0  0  0  0  0
   12.8668   20.9765    0.1822 C   0  0  0  0  0  0  0  0  0  0  0  0
   14.2842   20.7682   -0.2109 C   0  0  0  0  0  0  0  0  0  0  0  0
   15.2437   20.4436    0.7082 O   0  0  0  0  0  0  0  0  0  0  0  0
   14.5686   20.9039   -1.4388 O   0  0  0  0  0  0  0  0  0  0  0  0
   15.0085   20.4897    1.6920 H   0  0  0  0  0  0  0  0  0  0  0  0
 23 24  1  0  0  0
 24 25  1  0  0  0
 24 22  1  0  0  0
 22  5  1  0  0  0
  5  1  1  0  0  0
  1  2  1  0  0  0
  2  3  2  0  0  0
  2 26  1  0  0  0
 26 39  1  0  0  0
 39 40  1  0  0  0
 40 41  1  0  0  0
 40 42  2  0  0  0
 26 27  1  0  0  0
 27 28  1  0  0  0
 28 29  2  0  0  0
 28 31  1  0  0  0
 31 32  1  0  0  0
 32 33  1  0  0  0
 33 34  2  0  0  0
 34 35  1  0  0  0
 35 36  2  0  0  0
 36 37  1  0  0  0
 37 38  2  0  0  0
  5  6  1  0  0  0
  6  7  2  0  0  0
  6  8  1  0  0  0
  8 10  1  0  0  0
 10 15  1  0  0  0
 15 16  1  0  0  0
 16 17  2  0  0  0
 17 18  1  0  0  0
 18 19  2  0  0  0
 19 20  1  0  0  0
 20 21  2  0  0  0
 10 11  1  0  0  0
 11 12  1  0  0  0
 11 13  2  0  0  0
 38 33  1  0  0  0
 21 16  1  0  0  0
  1  4  1  0  0  0
 41 43  1  0  0  0
 27 30  1  0  0  0
  8  9  1  0  0  0
 12 14  1  0  0  0
M  END
> <minimizedAffinity>
-8.93568

> <CNNscore>
0.3833021224

> <CNNaffinity>
7.0237946510

> <CNN_VS>
2.6922354698

> <CNNaffinity_variance>
0.1864402294

$$$$
[H]OC(=O)C([H])([H])[C@@]([H])(C(=O)N([H])[C@]([H])(C(=O)N([H])[C@]([H])(C(=O)O[H])C([H])([H])c1c([H])c([H])c([H])c([H])c1[H])C([H])([H])C([H])(C([H])([H])[H])C([H])([H])[H])N([H])C(=O)C([H])([H])C([H])([H])c1c([H])nc([H])c([H])c1[H]


 43 44  0  0  0  0  0  0  0  0999 V2000
   11.7155   22.6020   -0.1613 N   0  0  0  0  0  0  0  0  0  0  0  0
   12.6089   23.3579    0.5873 C   0  0  0  0  0  0  0  0  0  0  0  0
   13.0765   22.9554    1.6745 O   0  0  0  0  0  0  0  0  0  0  0  0
   11.3173   22.9056   -1.0688 H   0  0  0  0  0  0  0  0  0  0  0  0
   11.2294   21.2411    0.2827 C   0  0  0  0  0  0  0  0  0  0  0  0
   10.2658   21.5958    1.3294 C   0  0  0  0  0  0  0  0  0  0  0  0
    9.0122   21.2751    1.1442 O   0  0  0  0  0  0  0  0  0  0  0  0
   10.5201   22.2504    2.5288 N   0  0  0  0  0  0  0  0  0  0  0  0
   11.4028   22.6196    2.9145 H   0  0  0  0  0  0  0  0  0  0  0  0
    9.3876   22.5212    3.4748 C   0  0  0  0  0  0  0  0  0  0  0  0
    9.0796   21.2449    4.1269 C   0  0  0  0  0  0  0  0  0  0  0  0
    9.9022   20.1517    3.9089 O   0  0  0  0  0  0  0  0  0  0  0  0
    8.0913   21.0891    4.8857 O   0  0  0  0  0  0  0  0  0  0  0  0
   10.3854   19.9655    3.0382 H   0  0  0  0  0  0  0  0  0  0  0  0
    8.2888   23.1286    2.6814 C   0  0  0  0  0  0  0  0  0  0  0  0
    7.6403   24.3020    3.2544 C   0  0  0  0  0  0  0  0  0  0  0  0
    7.9564   25.5613    2.7634 C   0  0  0  0  0  0  0  0  0  0  0  0
    7.3859   26.7109    3.2490 C   0  0  0  0  0  0  0  0  0  0  0  0
    6.4582   26.6535    4.2641 C   0  0  0  0  0  0  0  0  0  0  0  0
    6.1159   25.4148    4.7809 C   0  0  0  0  0  0  0  0  0  0  0  0
    6.7066   24.2656    4.2732 C   0  0  0  0  0  0  0  0  0  0  0  0
   12.4204   20.5239    0.6887 C   0  0  0  0  0  0  0  0  0  0  0  0
   13.3969   20.8763   -1.5842 C   0  0  0  0  0  0  0  0  0  0  0  0
   13.4626   20.1150   -0.2654 C   0  0  0  0  0  0  0  0  0  0  0  0
   14.8546   20.5385    0.3099 C   0  0  0  0  0  0  0  0  0  0  0  0
   13.0076   24.7054    0.0416 C   0  0  0  0  0  0  0  0  0  0  0  0
   14.3139   24.6451   -0.5615 N   0  0  0  0  0  0  0  0  0  0  0  0
   15.5260   25.0289    0.1237 C   0  0  0  0  0  0  0  0  0  0  0  0
   15.3395   25.4206    1.3009 O   0  0  0  0  0  0  0  0  0  0  0  0
   14.4124   24.3128   -1.5354 H   0  0  0  0  0  0  0  0  0  0  0  0
   16.8293   24.9423   -0.5601 C   0  0  0  0  0  0  0  0  0  0  0  0
   17.0991   25.8858   -1.6513 C   0  0  0  0  0  0  0  0  0  0  0  0
   16.4417   25.7284   -2.9259 C   0  0  0  0  0  0  0  0  0  0  0  0
   15.9870   26.8278   -3.6647 C   0  0  0  0  0  0  0  0  0  0  0  0
   15.3316   26.6778   -4.8653 C   0  0  0  0  0  0  0  0  0  0  0  0
   15.1025   25.4131   -5.3798 C   0  0  0  0  0  0  0  0  0  0  0  0
   15.5395   24.3636   -4.6680 N   0  0  0  0  0  0  0  0  0  0  0  0
   16.1920   24.5001   -3.4731 C   0  0  0  0  0  0  0  0  0  0  0  0
   11.9263   25.1552   -0.8869 C   0  0  0  0  0  0  0  0  0  0  0  0
   12.3860   25.2607   -2.2956 C   0  0  0  0  0  0  0  0  0  0  0  0
   12.9439   24.1971   -2.9501 O   0  0  0  0  0  0  0  0  0  0  0  0
   12.2388   26.3819   -2.8685 O   0  0  0  0  0  0  0  0  0  0  0  0
   13.1789   23.3686   -2.4175 H   0  0  0  0  0  0  0  0  0  0  0  0
 23 24  1  0  0  0
 24 25  1  0  0  0
 24 22  1  0  0  0
 22  5  1  0  0  0
  5  1  1  0  0  0
  1  2  1  0  0  0
  2  3  2  0  0  0
  2 26  1  0  0  0
 26 39  1  0  0  0
 39 40  1  0  0  0
 40 41  1  0  0  0
 40 42  2  0  0  0
 26 27  1  0  0  0
 27 28  1  0  0  0
 28 29  2  0  0  0
 28 31  1  0  0  0
 31 32  1  0  0  0
 32 33  1  0  0  0
 33 34  2  0  0  0
 34 35  1  0  0  0
 35 36  2  0  0  0
 36 37  1  0  0  0
 37 38  2  0  0  0
  5  6  1  0  0  0
  6  7  2  0  0  0
  6  8  1  0  0  0
  8 10  1  0  0  0
 10 15  1  0  0  0
 15 16  1  0  0  0
 16 17  2  0  0  0
 17 18  1  0  0  0
 18 19  2  0  0  0
 19 20  1  0  0  0
 20 21  2  0  0  0
 10 11  1  0  0  0
 11 12  1  0  0  0
 11 13  2  0  0  0
 38 33  1  0  0  0
 21 16  1  0  0  0
  1  4  1  0  0  0
 41 43  1  0  0  0
 27 30  1  0  0  0
  8  9  1  0  0  0
 12 14  1  0  0  0
M  END
> <minimizedAffinity>
-6.11566

> <CNNscore>
0.3351675570

> <CNNaffinity>
7.1917128563

> <CNN_VS>
2.4104287624

> <CNNaffinity_variance>
0.0383770503

$$$$
[H]OC(=O)C([H])([H])[C@@]([H])(C(=O)N([H])[C@]([H])(C(=O)N([H])[C@]([H])(C(=O)O[H])C([H])([H])c1c([H])c([H])c([H])c([H])c1[H])C([H])([H])C([H])(C([H])([H])[H])C([H])([H])[H])N([H])C(=O)C([H])([H])C([H])([H])c1c([H])nc([H])c([H])c1[H]


 43 44  0  0  0  0  0  0  0  0999 V2000
   10.7284   21.1118   -0.1659 N   0  0  0  0  0  0  0  0  0  0  0  0
   11.3888   21.6886   -1.2435 C   0  0  0  0  0  0  0  0  0  0  0  0
   10.8053   22.4262   -2.0669 O   0  0  0  0  0  0  0  0  0  0  0  0
   11.1866   20.5029    0.5366 H   0  0  0  0  0  0  0  0  0  0  0  0
    9.2530   21.3194    0.0902 C   0  0  0  0  0  0  0  0  0  0  0  0
    9.2404   21.6334    1.5224 C   0  0  0  0  0  0  0  0  0  0  0  0
    8.2912   21.1151    2.2565 O   0  0  0  0  0  0  0  0  0  0  0  0
   10.1334   22.4369    2.2216 N   0  0  0  0  0  0  0  0  0  0  0  0
   10.9533   22.9690    1.8916 H   0  0  0  0  0  0  0  0  0  0  0  0
    9.9477   22.6334    3.6974 C   0  0  0  0  0  0  0  0  0  0  0  0
   10.4537   21.4185    4.3430 C   0  0  0  0  0  0  0  0  0  0  0  0
   11.7601   21.0181    4.1142 O   0  0  0  0  0  0  0  0  0  0  0  0
    9.7516   20.7098    5.1056 O   0  0  0  0  0  0  0  0  0  0  0  0
   12.2539   21.1534    3.2400 H   0  0  0  0  0  0  0  0  0  0  0  0
    8.5119   22.9401    3.9220 C   0  0  0  0  0  0  0  0  0  0  0  0
    8.1435   24.3501    3.9638 C   0  0  0  0  0  0  0  0  0  0  0  0
    9.1401   25.3150    3.9121 C   0  0  0  0  0  0  0  0  0  0  0  0
    8.8715   26.6603    3.9433 C   0  0  0  0  0  0  0  0  0  0  0  0
    7.5736   27.1100    4.0292 C   0  0  0  0  0  0  0  0  0  0  0  0
    6.5505   26.1778    4.0829 C   0  0  0  0  0  0  0  0  0  0  0  0
    6.8470   24.8219    4.0496 C   0  0  0  0  0  0  0  0  0  0  0  0
    8.6158   20.0877   -0.3276 C   0  0  0  0  0  0  0  0  0  0  0  0
    7.3081   19.7085   -2.4229 C   0  0  0  0  0  0  0  0  0  0  0  0
    7.2783   20.0557   -0.9390 C   0  0  0  0  0  0  0  0  0  0  0  0
    6.4791   18.8616   -0.3200 C   0  0  0  0  0  0  0  0  0  0  0  0
   12.8594   21.3948   -1.3962 C   0  0  0  0  0  0  0  0  0  0  0  0
   13.6192   22.6164   -1.4629 N   0  0  0  0  0  0  0  0  0  0  0  0
   14.6254   22.8748   -2.4662 C   0  0  0  0  0  0  0  0  0  0  0  0
   14.7791   21.9346   -3.2826 O   0  0  0  0  0  0  0  0  0  0  0  0
   13.4521   23.3610   -0.7655 H   0  0  0  0  0  0  0  0  0  0  0  0
   15.3657   24.1498   -2.4698 C   0  0  0  0  0  0  0  0  0  0  0  0
   14.6680   25.3505   -2.9443 C   0  0  0  0  0  0  0  0  0  0  0  0
   15.0235   25.9435   -4.2107 C   0  0  0  0  0  0  0  0  0  0  0  0
   15.1547   25.1772   -5.3756 C   0  0  0  0  0  0  0  0  0  0  0  0
   15.5246   25.7363   -6.5773 C   0  0  0  0  0  0  0  0  0  0  0  0
   15.7801   27.0942   -6.6638 C   0  0  0  0  0  0  0  0  0  0  0  0
   15.6535   27.8232   -5.5451 N   0  0  0  0  0  0  0  0  0  0  0  0
   15.2868   27.2789   -4.3446 C   0  0  0  0  0  0  0  0  0  0  0  0
   13.2580   20.4879   -0.2771 C   0  0  0  0  0  0  0  0  0  0  0  0
   13.8531   21.2193    0.8708 C   0  0  0  0  0  0  0  0  0  0  0  0
   15.2047   21.2533    1.0774 O   0  0  0  0  0  0  0  0  0  0  0  0
   13.0529   21.8134    1.6542 O   0  0  0  0  0  0  0  0  0  0  0  0
   15.7960   20.6487    0.5204 H   0  0  0  0  0  0  0  0  0  0  0  0
 23 24  1  0  0  0
 24 25  1  0  0  0
 24 22  1  0  0  0
 22  5  1  0  0  0
  5  1  1  0  0  0
  1  2  1  0  0  0
  2  3  2  0  0  0
  2 26  1  0  0  0
 26 39  1  0  0  0
 39 40  1  0  0  0
 40 41  1  0  0  0
 40 42  2  0  0  0
 26 27  1  0  0  0
 27 28  1  0  0  0
 28 29  2  0  0  0
 28 31  1  0  0  0
 31 32  1  0  0  0
 32 33  1  0  0  0
 33 34  2  0  0  0
 34 35  1  0  0  0
 35 36  2  0  0  0
 36 37  1  0  0  0
 37 38  2  0  0  0
  5  6  1  0  0  0
  6  7  2  0  0  0
  6  8  1  0  0  0
  8 10  1  0  0  0
 10 15  1  0  0  0
 15 16  1  0  0  0
 16 17  2  0  0  0
 17 18  1  0  0  0
 18 19  2  0  0  0
 19 20  1  0  0  0
 20 21  2  0  0  0
 10 11  1  0  0  0
 11 12  1  0  0  0
 11 13  2  0  0  0
 38 33  1  0  0  0
 21 16  1  0  0  0
  1  4  1  0  0  0
 41 43  1  0  0  0
 27 30  1  0  0  0
  8  9  1  0  0  0
 12 14  1  0  0  0
M  END
> <minimizedAffinity>
-8.66266

> <CNNscore>
0.3023866713

> <CNNaffinity>
6.9226179123

> <CNN_VS>
2.0933074951

> <CNNaffinity_variance>
0.4597392082

$$$$
[H]OC(=O)C([H])([H])[C@@]([H])(C(=O)N([H])[C@]([H])(C(=O)N([H])[C@]([H])(C(=O)O[H])C([H])([H])c1c([H])c([H])c([H])c([H])c1[H])C([H])([H])C([H])(C([H])([H])[H])C([H])([H])[H])N([H])C(=O)C([H])([H])C([H])([H])c1c([H])nc([H])c([H])c1[H]


 43 44  0  0  0  0  0  0  0  0999 V2000
   12.6983   23.2421    0.1911 N   0  0  0  0  0  0  0  0  0  0  0  0
   11.8056   24.3055    0.2364 C   0  0  0  0  0  0  0  0  0  0  0  0
   12.1422   25.4435    0.6292 O   0  0  0  0  0  0  0  0  0  0  0  0
   12.4506   22.2905   -0.1365 H   0  0  0  0  0  0  0  0  0  0  0  0
   14.1413   23.3719    0.6229 C   0  0  0  0  0  0  0  0  0  0  0  0
   14.7884   23.7945   -0.6231 C   0  0  0  0  0  0  0  0  0  0  0  0
   15.6036   22.9558   -1.2069 O   0  0  0  0  0  0  0  0  0  0  0  0
   14.6444   25.0092   -1.2832 N   0  0  0  0  0  0  0  0  0  0  0  0
   14.0833   25.8398   -1.0394 H   0  0  0  0  0  0  0  0  0  0  0  0
   15.3986   25.2490   -2.5577 C   0  0  0  0  0  0  0  0  0  0  0  0
   16.6612   25.8891   -2.1767 C   0  0  0  0  0  0  0  0  0  0  0  0
   17.4091   25.3579   -1.1385 O   0  0  0  0  0  0  0  0  0  0  0  0
   17.1071   26.9118   -2.7528 O   0  0  0  0  0  0  0  0  0  0  0  0
   17.0132   24.9051   -0.3232 H   0  0  0  0  0  0  0  0  0  0  0  0
   14.5121   26.0385   -3.4503 C   0  0  0  0  0  0  0  0  0  0  0  0
   14.9719   26.2363   -4.8196 C   0  0  0  0  0  0  0  0  0  0  0  0
   15.0535   25.1452   -5.6738 C   0  0  0  0  0  0  0  0  0  0  0  0
   15.4736   25.2528   -6.9756 C   0  0  0  0  0  0  0  0  0  0  0  0
   15.8373   26.4758   -7.4917 C   0  0  0  0  0  0  0  0  0  0  0  0
   15.7694   27.5892   -6.6705 C   0  0  0  0  0  0  0  0  0  0  0  0
   15.3412   27.4554   -5.3568 C   0  0  0  0  0  0  0  0  0  0  0  0
   14.4999   22.0725    1.1527 C   0  0  0  0  0  0  0  0  0  0  0  0
   14.9864   19.8338    0.1549 C   0  0  0  0  0  0  0  0  0  0  0  0
   13.9280   20.8204    0.6341 C   0  0  0  0  0  0  0  0  0  0  0  0
   13.2533   20.0553    1.8204 C   0  0  0  0  0  0  0  0  0  0  0  0
   10.3898   24.0445   -0.2105 C   0  0  0  0  0  0  0  0  0  0  0  0
   10.2724   22.7326   -0.7927 N   0  0  0  0  0  0  0  0  0  0  0  0
    9.0460   21.9700   -0.7973 C   0  0  0  0  0  0  0  0  0  0  0  0
    8.0833   22.5566   -0.2468 O   0  0  0  0  0  0  0  0  0  0  0  0
   11.0972   22.2945   -1.2360 H   0  0  0  0  0  0  0  0  0  0  0  0
    9.0025   20.6302   -1.4111 C   0  0  0  0  0  0  0  0  0  0  0  0
    7.6955   20.0999   -1.8166 C   0  0  0  0  0  0  0  0  0  0  0  0
    6.9674   19.2155   -0.9395 C   0  0  0  0  0  0  0  0  0  0  0  0
    6.4203   19.6593    0.2709 C   0  0  0  0  0  0  0  0  0  0  0  0
    5.7531   18.8100    1.1235 C   0  0  0  0  0  0  0  0  0  0  0  0
    5.6048   17.4725    0.7982 C   0  0  0  0  0  0  0  0  0  0  0  0
    6.1311   17.0526   -0.3618 N   0  0  0  0  0  0  0  0  0  0  0  0
    6.7968   17.8873   -1.2175 C   0  0  0  0  0  0  0  0  0  0  0  0
    9.4951   24.2734    0.9647 C   0  0  0  0  0  0  0  0  0  0  0  0
    9.9675   23.5792    2.1901 C   0  0  0  0  0  0  0  0  0  0  0  0
   10.4231   22.2900    2.1543 O   0  0  0  0  0  0  0  0  0  0  0  0
    9.9310   24.2339    3.2749 O   0  0  0  0  0  0  0  0  0  0  0  0
   10.2989   21.7550    1.3036 H   0  0  0  0  0  0  0  0  0  0  0  0
 23 24  1  0  0  0
 24 25  1  0  0  0
 24 22  1  0  0  0
 22  5  1  0  0  0
  5  1  1  0  0  0
  1  2  1  0  0  0
  2  3  2  0  0  0
  2 26  1  0  0  0
 26 39  1  0  0  0
 39 40  1  0  0  0
 40 41  1  0  0  0
 40 42  2  0  0  0
 26 27  1  0  0  0
 27 28  1  0  0  0
 28 29  2  0  0  0
 28 31  1  0  0  0
 31 32  1  0  0  0
 32 33  1  0  0  0
 33 34  2  0  0  0
 34 35  1  0  0  0
 35 36  2  0  0  0
 36 37  1  0  0  0
 37 38  2  0  0  0
  5  6  1  0  0  0
  6  7  2  0  0  0
  6  8  1  0  0  0
  8 10  1  0  0  0
 10 15  1  0  0  0
 15 16  1  0  0  0
 16 17  2  0  0  0
 17 18  1  0  0  0
 18 19  2  0  0  0
 19 20  1  0  0  0
 20 21  2  0  0  0
 10 11  1  0  0  0
 11 12  1  0  0  0
 11 13  2  0  0  0
 38 33  1  0  0  0
 21 16  1  0  0  0
  1  4  1  0  0  0
 41 43  1  0  0  0
 27 30  1  0  0  0
  8  9  1  0  0  0
 12 14  1  0  0  0
M  END
> <minimizedAffinity>
-4.66730

> <CNNscore>
0.2925234735

> <CNNaffinity>
6.9042882919

> <CNN_VS>
2.0196664333

> <CNNaffinity_variance>
0.1974424571

$$$$
[H]OC(=O)C([H])([H])[C@@]([H])(C(=O)N([H])[C@]([H])(C(=O)N([H])[C@]([H])(C(=O)O[H])C([H])([H])c1c([H])c([H])c([H])c([H])c1[H])C([H])([H])C([H])(C([H])([H])[H])C([H])([H])[H])N([H])C(=O)C([H])([H])C([H])([H])c1c([H])nc([H])c([H])c1[H]


 43 44  0  0  0  0  0  0  0  0999 V2000
   12.9203   23.1553   -0.3840 N   0  0  0  0  0  0  0  0  0  0  0  0
   13.7321   22.3480   -1.1708 C   0  0  0  0  0  0  0  0  0  0  0  0
   14.4149   21.4176   -0.6905 O   0  0  0  0  0  0  0  0  0  0  0  0
   12.3378   23.9285   -0.7543 H   0  0  0  0  0  0  0  0  0  0  0  0
   12.8066   22.9818    1.1135 C   0  0  0  0  0  0  0  0  0  0  0  0
   11.3566   23.0662    1.3140 C   0  0  0  0  0  0  0  0  0  0  0  0
   10.5804   22.8462    0.2855 O   0  0  0  0  0  0  0  0  0  0  0  0
   10.6797   23.3609    2.4917 N   0  0  0  0  0  0  0  0  0  0  0  0
   11.0407   23.5841    3.4320 H   0  0  0  0  0  0  0  0  0  0  0  0
    9.1799   23.3973    2.4901 C   0  0  0  0  0  0  0  0  0  0  0  0
    8.7927   24.5183    3.3517 C   0  0  0  0  0  0  0  0  0  0  0  0
    9.1391   24.4989    4.6930 O   0  0  0  0  0  0  0  0  0  0  0  0
    8.1522   25.5122    2.9291 O   0  0  0  0  0  0  0  0  0  0  0  0
    9.1953   23.6585    5.2559 H   0  0  0  0  0  0  0  0  0  0  0  0
    8.7079   22.0552    2.9168 C   0  0  0  0  0  0  0  0  0  0  0  0
    7.5716   21.5007    2.1910 C   0  0  0  0  0  0  0  0  0  0  0  0
    7.5327   21.6040    0.8072 C   0  0  0  0  0  0  0  0  0  0  0  0
    6.4993   21.1042    0.0555 C   0  0  0  0  0  0  0  0  0  0  0  0
    5.4403   20.4680    0.6621 C   0  0  0  0  0  0  0  0  0  0  0  0
    5.4423   20.3447    2.0417 C   0  0  0  0  0  0  0  0  0  0  0  0
    6.4991   20.8583    2.7811 C   0  0  0  0  0  0  0  0  0  0  0  0
   13.6206   24.0357    1.6831 C   0  0  0  0  0  0  0  0  0  0  0  0
   14.8243   26.2182    1.5055 C   0  0  0  0  0  0  0  0  0  0  0  0
   14.5242   24.8652    0.8711 C   0  0  0  0  0  0  0  0  0  0  0  0
   15.9299   24.1792    0.8372 C   0  0  0  0  0  0  0  0  0  0  0  0
   13.7682   22.6303   -2.6512 C   0  0  0  0  0  0  0  0  0  0  0  0
   13.1458   23.8955   -2.9443 N   0  0  0  0  0  0  0  0  0  0  0  0
   13.7550   25.1708   -2.6471 C   0  0  0  0  0  0  0  0  0  0  0  0
   14.8844   25.0788   -2.1086 O   0  0  0  0  0  0  0  0  0  0  0  0
   12.2136   23.9152   -3.3908 H   0  0  0  0  0  0  0  0  0  0  0  0
   13.0554   26.4266   -2.9745 C   0  0  0  0  0  0  0  0  0  0  0  0
   13.0441   26.8643   -4.3752 C   0  0  0  0  0  0  0  0  0  0  0  0
   14.2837   27.0202   -5.0968 C   0  0  0  0  0  0  0  0  0  0  0  0
   14.4717   26.4720   -6.3717 C   0  0  0  0  0  0  0  0  0  0  0  0
   15.6641   26.5926   -7.0478 C   0  0  0  0  0  0  0  0  0  0  0  0
   16.7248   27.2713   -6.4725 C   0  0  0  0  0  0  0  0  0  0  0  0
   16.5395   27.7939   -5.2512 N   0  0  0  0  0  0  0  0  0  0  0  0
   15.3590   27.6802   -4.5690 C   0  0  0  0  0  0  0  0  0  0  0  0
   15.1918   22.5325   -3.0957 C   0  0  0  0  0  0  0  0  0  0  0  0
   15.3354   22.5639   -4.5739 C   0  0  0  0  0  0  0  0  0  0  0  0
   15.0779   21.4631   -5.3437 O   0  0  0  0  0  0  0  0  0  0  0  0
   15.7079   23.6581   -5.0946 O   0  0  0  0  0  0  0  0  0  0  0  0
   14.9278   20.5736   -4.8836 H   0  0  0  0  0  0  0  0  0  0  0  0
 23 24  1  0  0  0
 24 25  1  0  0  0
 24 22  1  0  0  0
 22  5  1  0  0  0
  5  1  1  0  0  0
  1  2  1  0  0  0
  2  3  2  0  0  0
  2 26  1  0  0  0
 26 39  1  0  0  0
 39 40  1  0  0  0
 40 41  1  0  0  0
 40 42  2  0  0  0
 26 27  1  0  0  0
 27 28  1  0  0  0
 28 29  2  0  0  0
 28 31  1  0  0  0
 31 32  1  0  0  0
 32 33  1  0  0  0
 33 34  2  0  0  0
 34 35  1  0  0  0
 35 36  2  0  0  0
 36 37  1  0  0  0
 37 38  2  0  0  0
  5  6  1  0  0  0
  6  7  2  0  0  0
  6  8  1  0  0  0
  8 10  1  0  0  0
 10 15  1  0  0  0
 15 16  1  0  0  0
 16 17  2  0  0  0
 17 18  1  0  0  0
 18 19  2  0  0  0
 19 20  1  0  0  0
 20 21  2  0  0  0
 10 11  1  0  0  0
 11 12  1  0  0  0
 11 13  2  0  0  0
 38 33  1  0  0  0
 21 16  1  0  0  0
  1  4  1  0  0  0
 41 43  1  0  0  0
 27 30  1  0  0  0
  8  9  1  0  0  0
 12 14  1  0  0  0
M  END
> <minimizedAffinity>
-1.89782

> <CNNscore>
0.2773634493

> <CNNaffinity>
6.4623169899

> <CNN_VS>
1.7924104929

> <CNNaffinity_variance>
0.0980341136

$$$$
[H]OC(=O)C([H])([H])[C@@]([H])(C(=O)N([H])[C@]([H])(C(=O)N([H])[C@]([H])(C(=O)O[H])C([H])([H])c1c([H])c([H])c([H])c([H])c1[H])C([H])([H])C([H])(C([H])([H])[H])C([H])([H])[H])N([H])C(=O)C([H])([H])C([H])([H])c1c([H])nc([H])c([H])c1[H]


 43 44  0  0  0  0  0  0  0  0999 V2000
   12.1083   22.7563   -0.7247 N   0  0  0  0  0  0  0  0  0  0  0  0
   12.6121   23.5978    0.2591 C   0  0  0  0  0  0  0  0  0  0  0  0
   12.6894   23.2521    1.4579 O   0  0  0  0  0  0  0  0  0  0  0  0
   12.0389   23.0120   -1.7267 H   0  0  0  0  0  0  0  0  0  0  0  0
   11.6037   21.3633   -0.4239 C   0  0  0  0  0  0  0  0  0  0  0  0
   10.4009   21.6460    0.3656 C   0  0  0  0  0  0  0  0  0  0  0  0
    9.2385   21.5141   -0.2173 O   0  0  0  0  0  0  0  0  0  0  0  0
   10.3348   22.0503    1.6938 N   0  0  0  0  0  0  0  0  0  0  0  0
   11.0879   22.2397    2.3730 H   0  0  0  0  0  0  0  0  0  0  0  0
    8.9950   22.2885    2.3256 C   0  0  0  0  0  0  0  0  0  0  0  0
    8.8170   23.7425    2.3814 C   0  0  0  0  0  0  0  0  0  0  0  0
    9.9311   24.5651    2.4170 O   0  0  0  0  0  0  0  0  0  0  0  0
    7.6870   24.2898    2.3989 O   0  0  0  0  0  0  0  0  0  0  0  0
   10.8036   24.3252    2.8726 H   0  0  0  0  0  0  0  0  0  0  0  0
    8.9942   21.5821    3.6321 C   0  0  0  0  0  0  0  0  0  0  0  0
    7.7980   20.8158    3.9600 C   0  0  0  0  0  0  0  0  0  0  0  0
    6.7846   20.7011    3.0183 C   0  0  0  0  0  0  0  0  0  0  0  0
    5.6318   19.9946    3.2524 C   0  0  0  0  0  0  0  0  0  0  0  0
    5.4359   19.3601    4.4579 C   0  0  0  0  0  0  0  0  0  0  0  0
    6.4245   19.4510    5.4239 C   0  0  0  0  0  0  0  0  0  0  0  0
    7.5823   20.1714    5.1639 C   0  0  0  0  0  0  0  0  0  0  0  0
   12.7002   20.6966    0.2475 C   0  0  0  0  0  0  0  0  0  0  0  0
   14.1967   21.2310   -1.6809 C   0  0  0  0  0  0  0  0  0  0  0  0
   13.9765   20.4012   -0.4214 C   0  0  0  0  0  0  0  0  0  0  0  0
   15.1436   20.8688    0.5098 C   0  0  0  0  0  0  0  0  0  0  0  0
   13.0728   24.9684   -0.1671 C   0  0  0  0  0  0  0  0  0  0  0  0
   14.3960   24.9087   -0.7322 N   0  0  0  0  0  0  0  0  0  0  0  0
   15.5792   24.6093    0.0400 C   0  0  0  0  0  0  0  0  0  0  0  0
   15.3508   24.4020    1.2560 O   0  0  0  0  0  0  0  0  0  0  0  0
   14.5291   25.0864   -1.7419 H   0  0  0  0  0  0  0  0  0  0  0  0
   16.9028   24.5681   -0.6081 C   0  0  0  0  0  0  0  0  0  0  0  0
   17.2065   25.5861   -1.6207 C   0  0  0  0  0  0  0  0  0  0  0  0
   16.4908   25.5997   -2.8733 C   0  0  0  0  0  0  0  0  0  0  0  0
   16.2284   24.4244   -3.5883 C   0  0  0  0  0  0  0  0  0  0  0  0
   15.5739   24.4390   -4.7986 C   0  0  0  0  0  0  0  0  0  0  0  0
   15.1520   25.6381   -5.3472 C   0  0  0  0  0  0  0  0  0  0  0  0
   15.4063   26.7606   -4.6586 N   0  0  0  0  0  0  0  0  0  0  0  0
   16.0564   26.7589   -3.4548 C   0  0  0  0  0  0  0  0  0  0  0  0
   12.0387   25.5262   -1.0907 C   0  0  0  0  0  0  0  0  0  0  0  0
   12.5144   25.6221   -2.4948 C   0  0  0  0  0  0  0  0  0  0  0  0
   12.5667   26.8190   -3.1547 O   0  0  0  0  0  0  0  0  0  0  0  0
   12.8716   24.5442   -3.0582 O   0  0  0  0  0  0  0  0  0  0  0  0
   12.1369   27.6291   -2.7253 H   0  0  0  0  0  0  0  0  0  0  0  0
 23 24  1  0  0  0
 24 25  1  0  0  0
 24 22  1  0  0  0
 22  5  1  0  0  0
  5  1  1  0  0  0
  1  2  1  0  0  0
  2  3  2  0  0  0
  2 26  1  0  0  0
 26 39  1  0  0  0
 39 40  1  0  0  0
 40 41  1  0  0  0
 40 42  2  0  0  0
 26 27  1  0  0  0
 27 28  1  0  0  0
 28 29  2  0  0  0
 28 31  1  0  0  0
 31 32  1  0  0  0
 32 33  1  0  0  0
 33 34  2  0  0  0
 34 35  1  0  0  0
 35 36  2  0  0  0
 36 37  1  0  0  0
 37 38  2  0  0  0
  5  6  1  0  0  0
  6  7  2  0  0  0
  6  8  1  0  0  0
  8 10  1  0  0  0
 10 15  1  0  0  0
 15 16  1  0  0  0
 16 17  2  0  0  0
 17 18  1  0  0  0
 18 19  2  0  0  0
 19 20  1  0  0  0
 20 21  2  0  0  0
 10 11  1  0  0  0
 11 12  1  0  0  0
 11 13  2  0  0  0
 38 33  1  0  0  0
 21 16  1  0  0  0
  1  4  1  0  0  0
 41 43  1  0  0  0
 27 30  1  0  0  0
  8  9  1  0  0  0
 12 14  1  0  0  0
M  END
> <minimizedAffinity>
-6.09141

> <CNNscore>
0.2704283595

> <CNNaffinity>
7.1134948730

> <CNN_VS>
1.9236907959

> <CNNaffinity_variance>
0.0727447569

$$$$
[H]OC1([H])C([H])([H])C([H])([H])N(C([H])([H])c2c([H])c([H])c(C(=O)N([H])[C@]([H])(C(=O)N([H])C([H])([H])[H])C([H])([H])c3c([H])c([H])c([H])c([H])c3[H])c([H])c2[H])C([H])([H])C1([H])[H]


 32 34  0  0  0  0  0  0  0  0999 V2000
   14.0939   25.9828   -2.9291 N   0  0  0  0  0  0  0  0  0  0  0  0
   13.7416   26.5341   -4.1987 C   0  0  0  0  0  0  0  0  0  0  0  0
   14.3632   26.1609   -5.1959 O   0  0  0  0  0  0  0  0  0  0  0  0
   13.5824   26.2794   -2.0938 H   0  0  0  0  0  0  0  0  0  0  0  0
   12.6678   27.5059   -4.2775 C   0  0  0  0  0  0  0  0  0  0  0  0
   12.8208   28.7789   -3.7564 C   0  0  0  0  0  0  0  0  0  0  0  0
   11.7998   29.6874   -3.8428 C   0  0  0  0  0  0  0  0  0  0  0  0
   10.6126   29.3692   -4.4413 C   0  0  0  0  0  0  0  0  0  0  0  0
   10.4654   28.0938   -4.9632 C   0  0  0  0  0  0  0  0  0  0  0  0
   11.4602   27.1602   -4.8955 C   0  0  0  0  0  0  0  0  0  0  0  0
    9.4572   30.2847   -4.5782 C   0  0  0  0  0  0  0  0  0  0  0  0
    8.2448   29.5966   -4.2051 N   0  0  0  0  0  0  0  0  0  0  0  0
    7.3352   30.5358   -3.5717 C   0  0  0  0  0  0  0  0  0  0  0  0
    6.1078   29.8506   -3.0539 C   0  0  0  0  0  0  0  0  0  0  0  0
    5.6451   28.7494   -4.0178 C   0  0  0  0  0  0  0  0  0  0  0  0
    6.2888   27.5704   -3.5976 O   0  0  0  0  0  0  0  0  0  0  0  0
    6.1383   29.1774   -5.3892 C   0  0  0  0  0  0  0  0  0  0  0  0
    7.6642   28.9863   -5.3650 C   0  0  0  0  0  0  0  0  0  0  0  0
    5.6793   26.8097   -3.5026 H   0  0  0  0  0  0  0  0  0  0  0  0
   15.1774   24.9861   -2.7861 C   0  0  0  0  0  0  0  0  0  0  0  0
   14.4891   21.3181   -1.6989 C   0  0  0  0  0  0  0  0  0  0  0  0
   15.0988   22.4372   -2.3850 N   0  0  0  0  0  0  0  0  0  0  0  0
   14.7051   23.7565   -2.2004 C   0  0  0  0  0  0  0  0  0  0  0  0
   13.7316   23.9049   -1.3506 O   0  0  0  0  0  0  0  0  0  0  0  0
   15.8639   22.2163   -3.0524 H   0  0  0  0  0  0  0  0  0  0  0  0
   16.2893   25.7214   -2.1170 C   0  0  0  0  0  0  0  0  0  0  0  0
   16.9795   26.7647   -2.8715 C   0  0  0  0  0  0  0  0  0  0  0  0
   16.2971   27.6678   -3.6541 C   0  0  0  0  0  0  0  0  0  0  0  0
   16.9719   28.6674   -4.3622 C   0  0  0  0  0  0  0  0  0  0  0  0
   18.3468   28.7895   -4.3047 C   0  0  0  0  0  0  0  0  0  0  0  0
   19.0275   27.8708   -3.5087 C   0  0  0  0  0  0  0  0  0  0  0  0
   18.3675   26.8975   -2.8228 C   0  0  0  0  0  0  0  0  0  0  0  0
 21 22  1  0  0  0
 22 23  1  0  0  0
 23 24  2  0  0  0
 23 20  1  0  0  0
 20 26  1  0  0  0
 26 27  1  0  0  0
 27 28  2  0  0  0
 28 29  1  0  0  0
 29 30  2  0  0  0
 30 31  1  0  0  0
 31 32  2  0  0  0
 20  1  1  0  0  0
  1  2  1  0  0  0
  2  3  2  0  0  0
  2  5  1  0  0  0
  5  6  2  0  0  0
  6  7  1  0  0  0
  7  8  2  0  0  0
  8 11  1  0  0  0
 11 12  1  0  0  0
 12 13  1  0  0  0
 13 14  1  0  0  0
 14 15  1  0  0  0
 15 16  1  0  0  0
 15 17  1  0  0  0
 17 18  1  0  0  0
  8  9  1  0  0  0
  9 10  2  0  0  0
 32 27  1  0  0  0
 10  5  1  0  0  0
 18 12  1  0  0  0
 22 25  1  0  0  0
  1  4  1  0  0  0
 16 19  1  0  0  0
M  END
> <minimizedAffinity>
15.51941

> <CNNscore>
0.5549964905

> <CNNaffinity>
5.9727230072

> <CNN_VS>
3.3148403168

> <CNNaffinity_variance>
0.6222075224

$$$$
[H]OC1([H])C([H])([H])C([H])([H])N(C([H])([H])c2c([H])c([H])c(C(=O)N([H])[C@]([H])(C(=O)N([H])C([H])([H])[H])C([H])([H])c3c([H])c([H])c([H])c([H])c3[H])c([H])c2[H])C([H])([H])C1([H])[H]


 32 34  0  0  0  0  0  0  0  0999 V2000
   14.6578   27.3950   -3.1285 N   0  0  0  0  0  0  0  0  0  0  0  0
   13.8357   27.3592   -4.2959 C   0  0  0  0  0  0  0  0  0  0  0  0
   14.1922   26.6592   -5.2461 O   0  0  0  0  0  0  0  0  0  0  0  0
   14.3710   27.9674   -2.3300 H   0  0  0  0  0  0  0  0  0  0  0  0
   12.6124   28.1379   -4.3270 C   0  0  0  0  0  0  0  0  0  0  0  0
   12.5329   29.3633   -3.6886 C   0  0  0  0  0  0  0  0  0  0  0  0
   11.3727   30.0896   -3.7310 C   0  0  0  0  0  0  0  0  0  0  0  0
   10.2710   29.6328   -4.3991 C   0  0  0  0  0  0  0  0  0  0  0  0
   10.3567   28.4061   -5.0383 C   0  0  0  0  0  0  0  0  0  0  0  0
   11.4958   27.6526   -5.0178 C   0  0  0  0  0  0  0  0  0  0  0  0
    8.9784   30.3480   -4.4961 C   0  0  0  0  0  0  0  0  0  0  0  0
    7.9837   29.6641   -3.7050 N   0  0  0  0  0  0  0  0  0  0  0  0
    7.2564   30.6342   -2.9048 C   0  0  0  0  0  0  0  0  0  0  0  0
    6.2919   29.9675   -1.9725 C   0  0  0  0  0  0  0  0  0  0  0  0
    5.6244   28.7593   -2.6438 C   0  0  0  0  0  0  0  0  0  0  0  0
    6.4373   27.6504   -2.3434 O   0  0  0  0  0  0  0  0  0  0  0  0
    5.6456   29.0599   -4.1326 C   0  0  0  0  0  0  0  0  0  0  0  0
    7.1139   28.9202   -4.5682 C   0  0  0  0  0  0  0  0  0  0  0  0
    5.9345   26.8846   -1.9970 H   0  0  0  0  0  0  0  0  0  0  0  0
   15.9144   26.6202   -3.0365 C   0  0  0  0  0  0  0  0  0  0  0  0
   19.4136   28.0676   -3.9148 C   0  0  0  0  0  0  0  0  0  0  0  0
   18.4132   27.1894   -3.3464 N   0  0  0  0  0  0  0  0  0  0  0  0
   17.0469   27.3702   -3.5194 C   0  0  0  0  0  0  0  0  0  0  0  0
   16.7369   28.4061   -4.2424 O   0  0  0  0  0  0  0  0  0  0  0  0
   18.7595   26.3933   -2.7755 H   0  0  0  0  0  0  0  0  0  0  0  0
   15.6012   25.3047   -3.6656 C   0  0  0  0  0  0  0  0  0  0  0  0
   14.9381   24.2900   -2.8504 C   0  0  0  0  0  0  0  0  0  0  0  0
   13.9566   24.6148   -1.9421 C   0  0  0  0  0  0  0  0  0  0  0  0
   13.3241   23.6301   -1.1765 C   0  0  0  0  0  0  0  0  0  0  0  0
   13.6566   22.2950   -1.3007 C   0  0  0  0  0  0  0  0  0  0  0  0
   14.6506   21.9773   -2.2239 C   0  0  0  0  0  0  0  0  0  0  0  0
   15.2660   22.9388   -2.9656 C   0  0  0  0  0  0  0  0  0  0  0  0
 21 22  1  0  0  0
 22 23  1  0  0  0
 23 24  2  0  0  0
 23 20  1  0  0  0
 20 26  1  0  0  0
 26 27  1  0  0  0
 27 28  2  0  0  0
 28 29  1  0  0  0
 29 30  2  0  0  0
 30 31  1  0  0  0
 31 32  2  0  0  0
 20  1  1  0  0  0
  1  2  1  0  0  0
  2  3  2  0  0  0
  2  5  1  0  0  0
  5  6  2  0  0  0
  6  7  1  0  0  0
  7  8  2  0  0  0
  8 11  1  0  0  0
 11 12  1  0  0  0
 12 13  1  0  0  0
 13 14  1  0  0  0
 14 15  1  0  0  0
 15 16  1  0  0  0
 15 17  1  0  0  0
 17 18  1  0  0  0
  8  9  1  0  0  0
  9 10  2  0  0  0
 32 27  1  0  0  0
 10  5  1  0  0  0
 18 12  1  0  0  0
 22 25  1  0  0  0
  1  4  1  0  0  0
 16 19  1  0  0  0
M  END
> <minimizedAffinity>
14.53039

> <CNNscore>
0.5212630630

> <CNNaffinity>
6.1066203117

> <CNN_VS>
3.1831555367

> <CNNaffinity_variance>
0.6305235624

$$$$
[H]OC1([H])C([H])([H])C([H])([H])N(C([H])([H])c2c([H])c([H])c(C(=O)N([H])[C@]([H])(C(=O)N([H])C([H])([H])[H])C([H])([H])c3c([H])c([H])c([H])c([H])c3[H])c([H])c2[H])C([H])([H])C1([H])[H]


 32 34  0  0  0  0  0  0  0  0999 V2000
   13.6171   25.2624   -3.0416 N   0  0  0  0  0  0  0  0  0  0  0  0
   13.9309   26.5522   -3.5688 C   0  0  0  0  0  0  0  0  0  0  0  0
   15.1136   26.8325   -3.7748 O   0  0  0  0  0  0  0  0  0  0  0  0
   12.6389   25.0142   -2.8711 H   0  0  0  0  0  0  0  0  0  0  0  0
   12.8564   27.4854   -3.8487 C   0  0  0  0  0  0  0  0  0  0  0  0
   12.9303   28.8020   -3.4285 C   0  0  0  0  0  0  0  0  0  0  0  0
   11.9103   29.6729   -3.7047 C   0  0  0  0  0  0  0  0  0  0  0  0
   10.8015   29.2738   -4.3976 C   0  0  0  0  0  0  0  0  0  0  0  0
   10.7335   27.9548   -4.8178 C   0  0  0  0  0  0  0  0  0  0  0  0
   11.7300   27.0567   -4.5608 C   0  0  0  0  0  0  0  0  0  0  0  0
    9.6533   30.1438   -4.7389 C   0  0  0  0  0  0  0  0  0  0  0  0
    8.4243   29.3974   -4.6164 N   0  0  0  0  0  0  0  0  0  0  0  0
    7.4175   30.2309   -3.9822 C   0  0  0  0  0  0  0  0  0  0  0  0
    6.1558   29.4674   -3.7189 C   0  0  0  0  0  0  0  0  0  0  0  0
    5.8464   28.5026   -4.8719 C   0  0  0  0  0  0  0  0  0  0  0  0
    6.4669   27.2849   -4.5360 O   0  0  0  0  0  0  0  0  0  0  0  0
    6.4919   29.1193   -6.1008 C   0  0  0  0  0  0  0  0  0  0  0  0
    8.0080   28.9443   -5.9112 C   0  0  0  0  0  0  0  0  0  0  0  0
    5.8723   26.5113   -4.6209 H   0  0  0  0  0  0  0  0  0  0  0  0
   14.6689   24.2673   -2.7393 C   0  0  0  0  0  0  0  0  0  0  0  0
   16.3646   23.6710   -6.1859 C   0  0  0  0  0  0  0  0  0  0  0  0
   15.7896   24.3791   -5.0621 N   0  0  0  0  0  0  0  0  0  0  0  0
   15.2775   23.7451   -3.9372 C   0  0  0  0  0  0  0  0  0  0  0  0
   15.3578   22.4475   -3.9778 O   0  0  0  0  0  0  0  0  0  0  0  0
   15.7619   25.4158   -5.1268 H   0  0  0  0  0  0  0  0  0  0  0  0
   14.0338   23.3166   -1.7815 C   0  0  0  0  0  0  0  0  0  0  0  0
   12.9050   23.7905   -0.9844 C   0  0  0  0  0  0  0  0  0  0  0  0
   13.0584   24.7387    0.0010 C   0  0  0  0  0  0  0  0  0  0  0  0
   11.9656   25.1895    0.7484 C   0  0  0  0  0  0  0  0  0  0  0  0
   10.6912   24.7039    0.5282 C   0  0  0  0  0  0  0  0  0  0  0  0
   10.5472   23.7453   -0.4725 C   0  0  0  0  0  0  0  0  0  0  0  0
   11.6136   23.3069   -1.1962 C   0  0  0  0  0  0  0  0  0  0  0  0
 21 22  1  0  0  0
 22 23  1  0  0  0
 23 24  2  0  0  0
 23 20  1  0  0  0
 20 26  1  0  0  0
 26 27  1  0  0  0
 27 28  2  0  0  0
 28 29  1  0  0  0
 29 30  2  0  0  0
 30 31  1  0  0  0
 31 32  2  0  0  0
 20  1  1  0  0  0
  1  2  1  0  0  0
  2  3  2  0  0  0
  2  5  1  0  0  0
  5  6  2  0  0  0
  6  7  1  0  0  0
  7  8  2  0  0  0
  8 11  1  0  0  0
 11 12  1  0  0  0
 12 13  1  0  0  0
 13 14  1  0  0  0
 14 15  1  0  0  0
 15 16  1  0  0  0
 15 17  1  0  0  0
 17 18  1  0  0  0
  8  9  1  0  0  0
  9 10  2  0  0  0
 32 27  1  0  0  0
 10  5  1  0  0  0
 18 12  1  0  0  0
 22 25  1  0  0  0
  1  4  1  0  0  0
 16 19  1  0  0  0
M  END
> <minimizedAffinity>
13.26579

> <CNNscore>
0.5064534545

> <CNNaffinity>
6.0916471481

> <CNN_VS>
3.0851356983

> <CNNaffinity_variance>
0.6080120206

$$$$
[H]OC1([H])C([H])([H])C([H])([H])N(C([H])([H])c2c([H])c([H])c(C(=O)N([H])[C@]([H])(C(=O)N([H])C([H])([H])[H])C([H])([H])c3c([H])c([H])c([H])c([H])c3[H])c([H])c2[H])C([H])([H])C1([H])[H]


 32 34  0  0  0  0  0  0  0  0999 V2000
   13.6360   26.6207   -2.3612 N   0  0  0  0  0  0  0  0  0  0  0  0
   13.3205   25.2300   -2.2800 C   0  0  0  0  0  0  0  0  0  0  0  0
   13.9515   24.4407   -2.9862 O   0  0  0  0  0  0  0  0  0  0  0  0
   13.1240   27.2865   -1.7764 H   0  0  0  0  0  0  0  0  0  0  0  0
   12.2782   24.7903   -1.3723 C   0  0  0  0  0  0  0  0  0  0  0  0
   12.1005   25.4018   -0.1435 C   0  0  0  0  0  0  0  0  0  0  0  0
   11.1087   24.9791    0.7009 C   0  0  0  0  0  0  0  0  0  0  0  0
   10.2722   23.9534    0.3591 C   0  0  0  0  0  0  0  0  0  0  0  0
   10.4531   23.3458   -0.8734 C   0  0  0  0  0  0  0  0  0  0  0  0
   11.4314   23.7387   -1.7420 C   0  0  0  0  0  0  0  0  0  0  0  0
    9.1770   23.4308    1.2072 C   0  0  0  0  0  0  0  0  0  0  0  0
    9.7125   22.5076    2.1787 N   0  0  0  0  0  0  0  0  0  0  0  0
    8.8645   21.3296    2.2399 C   0  0  0  0  0  0  0  0  0  0  0  0
    9.3045   20.3892    3.3197 C   0  0  0  0  0  0  0  0  0  0  0  0
   10.8358   20.3304    3.4072 C   0  0  0  0  0  0  0  0  0  0  0  0
   11.2096   21.3205    4.3349 O   0  0  0  0  0  0  0  0  0  0  0  0
   11.3349   20.6758    2.0148 C   0  0  0  0  0  0  0  0  0  0  0  0
   11.0641   22.1787    1.8325 C   0  0  0  0  0  0  0  0  0  0  0  0
   11.8295   20.9947    5.0197 H   0  0  0  0  0  0  0  0  0  0  0  0
   14.6905   27.1289   -3.2654 C   0  0  0  0  0  0  0  0  0  0  0  0
   13.4209   26.3213   -6.8496 C   0  0  0  0  0  0  0  0  0  0  0  0
   13.4349   26.8550   -5.5042 N   0  0  0  0  0  0  0  0  0  0  0  0
   14.4957   26.6863   -4.6234 C   0  0  0  0  0  0  0  0  0  0  0  0
   15.4868   26.0007   -5.1129 O   0  0  0  0  0  0  0  0  0  0  0  0
   12.5919   27.3814   -5.2009 H   0  0  0  0  0  0  0  0  0  0  0  0
   15.9741   26.8029   -2.5793 C   0  0  0  0  0  0  0  0  0  0  0  0
   17.2012   27.4139   -3.0841 C   0  0  0  0  0  0  0  0  0  0  0  0
   17.4152   28.7720   -3.0236 C   0  0  0  0  0  0  0  0  0  0  0  0
   18.6001   29.3404   -3.5020 C   0  0  0  0  0  0  0  0  0  0  0  0
   19.6018   28.5644   -4.0523 C   0  0  0  0  0  0  0  0  0  0  0  0
   19.3753   27.1908   -4.1076 C   0  0  0  0  0  0  0  0  0  0  0  0
   18.2196   26.6413   -3.6434 C   0  0  0  0  0  0  0  0  0  0  0  0
 21 22  1  0  0  0
 22 23  1  0  0  0
 23 24  2  0  0  0
 23 20  1  0  0  0
 20 26  1  0  0  0
 26 27  1  0  0  0
 27 28  2  0  0  0
 28 29  1  0  0  0
 29 30  2  0  0  0
 30 31  1  0  0  0
 31 32  2  0  0  0
 20  1  1  0  0  0
  1  2  1  0  0  0
  2  3  2  0  0  0
  2  5  1  0  0  0
  5  6  2  0  0  0
  6  7  1  0  0  0
  7  8  2  0  0  0
  8 11  1  0  0  0
 11 12  1  0  0  0
 12 13  1  0  0  0
 13 14  1  0  0  0
 14 15  1  0  0  0
 15 16  1  0  0  0
 15 17  1  0  0  0
 17 18  1  0  0  0
  8  9  1  0  0  0
  9 10  2  0  0  0
 32 27  1  0  0  0
 10  5  1  0  0  0
 18 12  1  0  0  0
 22 25  1  0  0  0
  1  4  1  0  0  0
 16 19  1  0  0  0
M  END
> <minimizedAffinity>
8.35212

> <CNNscore>
0.4284718037

> <CNNaffinity>
6.1298050880

> <CNN_VS>
2.6264486313

> <CNNaffinity_variance>
0.9406930804

$$$$
[H]OC1([H])C([H])([H])C([H])([H])N(C([H])([H])c2c([H])c([H])c(C(=O)N([H])[C@]([H])(C(=O)N([H])C([H])([H])[H])C([H])([H])c3c([H])c([H])c([H])c([H])c3[H])c([H])c2[H])C([H])([H])C1([H])[H]


 32 34  0  0  0  0  0  0  0  0999 V2000
   11.3509   22.9663   -0.4177 N   0  0  0  0  0  0  0  0  0  0  0  0
   12.5671   23.6998   -0.2667 C   0  0  0  0  0  0  0  0  0  0  0  0
   12.8610   24.1293    0.8509 O   0  0  0  0  0  0  0  0  0  0  0  0
   11.0973   22.5990   -1.3387 H   0  0  0  0  0  0  0  0  0  0  0  0
   13.4164   23.9120   -1.4231 C   0  0  0  0  0  0  0  0  0  0  0  0
   13.8746   22.8440   -2.1747 C   0  0  0  0  0  0  0  0  0  0  0  0
   14.6716   23.0602   -3.2671 C   0  0  0  0  0  0  0  0  0  0  0  0
   15.0334   24.3231   -3.6454 C   0  0  0  0  0  0  0  0  0  0  0  0
   14.5703   25.3891   -2.8905 C   0  0  0  0  0  0  0  0  0  0  0  0
   13.7745   25.2134   -1.7943 C   0  0  0  0  0  0  0  0  0  0  0  0
   15.8903   24.6498   -4.8077 C   0  0  0  0  0  0  0  0  0  0  0  0
   15.7420   26.0454   -5.1441 N   0  0  0  0  0  0  0  0  0  0  0  0
   14.3697   26.4549   -4.9002 C   0  0  0  0  0  0  0  0  0  0  0  0
   14.1274   27.8641   -5.3467 C   0  0  0  0  0  0  0  0  0  0  0  0
   15.3394   28.7543   -5.0393 C   0  0  0  0  0  0  0  0  0  0  0  0
   16.1599   28.7004   -6.1816 O   0  0  0  0  0  0  0  0  0  0  0  0
   16.0252   28.1081   -3.8480 C   0  0  0  0  0  0  0  0  0  0  0  0
   16.6772   26.8229   -4.3851 C   0  0  0  0  0  0  0  0  0  0  0  0
   16.4399   29.5837   -6.4988 H   0  0  0  0  0  0  0  0  0  0  0  0
   10.4457   22.7149    0.7248 C   0  0  0  0  0  0  0  0  0  0  0  0
    8.4049   25.5876    2.3659 C   0  0  0  0  0  0  0  0  0  0  0  0
    8.7136   24.2807    1.8260 N   0  0  0  0  0  0  0  0  0  0  0  0
    9.9552   23.9405    1.3039 C   0  0  0  0  0  0  0  0  0  0  0  0
   10.8274   24.9048    1.3403 O   0  0  0  0  0  0  0  0  0  0  0  0
    7.9474   23.5789    1.8322 H   0  0  0  0  0  0  0  0  0  0  0  0
   11.1827   21.7527    1.5940 C   0  0  0  0  0  0  0  0  0  0  0  0
   12.3545   21.0793    1.0395 C   0  0  0  0  0  0  0  0  0  0  0  0
   12.3469   20.5270   -0.2209 C   0  0  0  0  0  0  0  0  0  0  0  0
   13.4806   19.8947   -0.7412 C   0  0  0  0  0  0  0  0  0  0  0  0
   14.6514   19.7997   -0.0142 C   0  0  0  0  0  0  0  0  0  0  0  0
   14.6485   20.3632    1.2600 C   0  0  0  0  0  0  0  0  0  0  0  0
   13.5422   20.9756    1.7643 C   0  0  0  0  0  0  0  0  0  0  0  0
 21 22  1  0  0  0
 22 23  1  0  0  0
 23 24  2  0  0  0
 23 20  1  0  0  0
 20 26  1  0  0  0
 26 27  1  0  0  0
 27 28  2  0  0  0
 28 29  1  0  0  0
 29 30  2  0  0  0
 30 31  1  0  0  0
 31 32  2  0  0  0
 20  1  1  0  0  0
  1  2  1  0  0  0
  2  3  2  0  0  0
  2  5  1  0  0  0
  5  6  2  0  0  0
  6  7  1  0  0  0
  7  8  2  0  0  0
  8 11  1  0  0  0
 11 12  1  0  0  0
 12 13  1  0  0  0
 13 14  1  0  0  0
 14 15  1  0  0  0
 15 16  1  0  0  0
 15 17  1  0  0  0
 17 18  1  0  0  0
  8  9  1  0  0  0
  9 10  2  0  0  0
 32 27  1  0  0  0
 10  5  1  0  0  0
 18 12  1  0  0  0
 22 25  1  0  0  0
  1  4  1  0  0  0
 16 19  1  0  0  0
M  END
> <minimizedAffinity>
-2.34929

> <CNNscore>
0.3275307715

> <CNNaffinity>
6.6569013596

> <CNN_VS>
2.1803400517

> <CNNaffinity_variance>
0.2822442651

$$$$
[H]OC1([H])C([H])([H])C([H])([H])N(C([H])([H])c2c([H])c([H])c(C(=O)N([H])[C@]([H])(C(=O)N([H])C([H])([H])[H])C([H])([H])c3c([H])c([H])c([H])c([H])c3[H])c([H])c2[H])C([H])([H])C1([H])[H]


 32 34  0  0  0  0  0  0  0  0999 V2000
   14.4591   24.4349   -1.0351 N   0  0  0  0  0  0  0  0  0  0  0  0
   13.1100   24.3042   -1.4854 C   0  0  0  0  0  0  0  0  0  0  0  0
   12.9050   24.1280   -2.6883 O   0  0  0  0  0  0  0  0  0  0  0  0
   14.6441   24.5759   -0.0384 H   0  0  0  0  0  0  0  0  0  0  0  0
   12.0293   24.3773   -0.5208 C   0  0  0  0  0  0  0  0  0  0  0  0
   12.2058   25.0076    0.6987 C   0  0  0  0  0  0  0  0  0  0  0  0
   11.1746   25.0732    1.5973 C   0  0  0  0  0  0  0  0  0  0  0  0
    9.9528   24.5263    1.3199 C   0  0  0  0  0  0  0  0  0  0  0  0
    9.7808   23.8982    0.0965 C   0  0  0  0  0  0  0  0  0  0  0  0
   10.7854   23.8118   -0.8250 C   0  0  0  0  0  0  0  0  0  0  0  0
    8.7849   24.5487    2.2295 C   0  0  0  0  0  0  0  0  0  0  0  0
    8.7135   23.3059    2.9597 N   0  0  0  0  0  0  0  0  0  0  0  0
    8.3249   23.5776    4.3329 C   0  0  0  0  0  0  0  0  0  0  0  0
    8.3525   22.3353    5.1697 C   0  0  0  0  0  0  0  0  0  0  0  0
    7.8442   21.1252    4.3740 C   0  0  0  0  0  0  0  0  0  0  0  0
    8.9794   20.5538    3.7693 O   0  0  0  0  0  0  0  0  0  0  0  0
    6.9015   21.6948    3.3280 C   0  0  0  0  0  0  0  0  0  0  0  0
    7.7951   22.4193    2.3074 C   0  0  0  0  0  0  0  0  0  0  0  0
    9.0452   19.5863    3.9065 H   0  0  0  0  0  0  0  0  0  0  0  0
   15.6028   24.3658   -1.9705 C   0  0  0  0  0  0  0  0  0  0  0  0
   15.4725   27.2886   -4.5300 C   0  0  0  0  0  0  0  0  0  0  0  0
   15.7402   26.5745   -3.2997 N   0  0  0  0  0  0  0  0  0  0  0  0
   15.4241   25.2357   -3.1060 C   0  0  0  0  0  0  0  0  0  0  0  0
   14.8608   24.6703   -4.1330 O   0  0  0  0  0  0  0  0  0  0  0  0
   16.1852   27.1152   -2.5322 H   0  0  0  0  0  0  0  0  0  0  0  0
   15.8178   22.9089   -2.2068 C   0  0  0  0  0  0  0  0  0  0  0  0
   15.0287   21.9591   -1.4263 C   0  0  0  0  0  0  0  0  0  0  0  0
   15.2653   21.7445   -0.0878 C   0  0  0  0  0  0  0  0  0  0  0  0
   14.4940   20.8391    0.6479 C   0  0  0  0  0  0  0  0  0  0  0  0
   13.4654   20.1258    0.0633 C   0  0  0  0  0  0  0  0  0  0  0  0
   13.2338   20.3516   -1.2919 C   0  0  0  0  0  0  0  0  0  0  0  0
   13.9884   21.2318   -2.0054 C   0  0  0  0  0  0  0  0  0  0  0  0
 21 22  1  0  0  0
 22 23  1  0  0  0
 23 24  2  0  0  0
 23 20  1  0  0  0
 20 26  1  0  0  0
 26 27  1  0  0  0
 27 28  2  0  0  0
 28 29  1  0  0  0
 29 30  2  0  0  0
 30 31  1  0  0  0
 31 32  2  0  0  0
 20  1  1  0  0  0
  1  2  1  0  0  0
  2  3  2  0  0  0
  2  5  1  0  0  0
  5  6  2  0  0  0
  6  7  1  0  0  0
  7  8  2  0  0  0
  8 11  1  0  0  0
 11 12  1  0  0  0
 12 13  1  0  0  0
 13 14  1  0  0  0
 14 15  1  0  0  0
 15 16  1  0  0  0
 15 17  1  0  0  0
 17 18  1  0  0  0
  8  9  1  0  0  0
  9 10  2  0  0  0
 32 27  1  0  0  0
 10  5  1  0  0  0
 18 12  1  0  0  0
 22 25  1  0  0  0
  1  4  1  0  0  0
 16 19  1  0  0  0
M  END
> <minimizedAffinity>
-4.36133

> <CNNscore>
0.2716808021

> <CNNaffinity>
5.9360513687

> <CNN_VS>
1.6127111912

> <CNNaffinity_variance>
0.0868055075

$$$$
[H]OC1([H])C([H])([H])C([H])([H])N(C([H])([H])c2c([H])c([H])c(C(=O)N([H])[C@]([H])(C(=O)N([H])C([H])([H])[H])C([H])([H])c3c([H])c([H])c([H])c([H])c3[H])c([H])c2[H])C([H])([H])C1([H])[H]


 32 34  0  0  0  0  0  0  0  0999 V2000
   14.3906   25.4553   -2.5898 N   0  0  0  0  0  0  0  0  0  0  0  0
   13.0358   25.8833   -2.4437 C   0  0  0  0  0  0  0  0  0  0  0  0
   12.6507   26.8538   -3.0993 O   0  0  0  0  0  0  0  0  0  0  0  0
   14.7221   24.6475   -2.0560 H   0  0  0  0  0  0  0  0  0  0  0  0
   12.1582   25.1658   -1.5389 C   0  0  0  0  0  0  0  0  0  0  0  0
   12.2427   25.3510   -0.1699 C   0  0  0  0  0  0  0  0  0  0  0  0
   11.4039   24.6704    0.6718 C   0  0  0  0  0  0  0  0  0  0  0  0
   10.4669   23.7987    0.1911 C   0  0  0  0  0  0  0  0  0  0  0  0
   10.3851   23.6184   -1.1806 C   0  0  0  0  0  0  0  0  0  0  0  0
   11.2046   24.2784   -2.0516 C   0  0  0  0  0  0  0  0  0  0  0  0
    9.5221   23.0212    1.0247 C   0  0  0  0  0  0  0  0  0  0  0  0
    9.2189   23.7556    2.2295 N   0  0  0  0  0  0  0  0  0  0  0  0
    7.7801   23.7778    2.4289 C   0  0  0  0  0  0  0  0  0  0  0  0
    7.3991   24.6304    3.6003 C   0  0  0  0  0  0  0  0  0  0  0  0
    8.4062   24.4703    4.7474 C   0  0  0  0  0  0  0  0  0  0  0  0
    9.3850   25.4612    4.5455 O   0  0  0  0  0  0  0  0  0  0  0  0
    8.9972   23.0815    4.5771 C   0  0  0  0  0  0  0  0  0  0  0  0
    9.9054   23.1606    3.3385 C   0  0  0  0  0  0  0  0  0  0  0  0
    9.5741   25.9878    5.3493 H   0  0  0  0  0  0  0  0  0  0  0  0
   15.3316   26.1447   -3.4992 C   0  0  0  0  0  0  0  0  0  0  0  0
   15.3755   25.3897   -7.3121 C   0  0  0  0  0  0  0  0  0  0  0  0
   15.4046   26.1480   -6.0796 N   0  0  0  0  0  0  0  0  0  0  0  0
   15.3255   25.5675   -4.8202 C   0  0  0  0  0  0  0  0  0  0  0  0
   15.2213   24.2711   -4.8400 O   0  0  0  0  0  0  0  0  0  0  0  0
   15.4808   27.1806   -6.1673 H   0  0  0  0  0  0  0  0  0  0  0  0
   16.6178   26.2055   -2.7464 C   0  0  0  0  0  0  0  0  0  0  0  0
   16.7385   25.4191   -1.5213 C   0  0  0  0  0  0  0  0  0  0  0  0
   17.8916   24.7375   -1.2058 C   0  0  0  0  0  0  0  0  0  0  0  0
   17.9948   23.9973   -0.0237 C   0  0  0  0  0  0  0  0  0  0  0  0
   16.9471   23.9208    0.8736 C   0  0  0  0  0  0  0  0  0  0  0  0
   15.7850   24.6155    0.5448 C   0  0  0  0  0  0  0  0  0  0  0  0
   15.6872   25.3329   -0.6080 C   0  0  0  0  0  0  0  0  0  0  0  0
 21 22  1  0  0  0
 22 23  1  0  0  0
 23 24  2  0  0  0
 23 20  1  0  0  0
 20 26  1  0  0  0
 26 27  1  0  0  0
 27 28  2  0  0  0
 28 29  1  0  0  0
 29 30  2  0  0  0
 30 31  1  0  0  0
 31 32  2  0  0  0
 20  1  1  0  0  0
  1  2  1  0  0  0
  2  3  2  0  0  0
  2  5  1  0  0  0
  5  6  2  0  0  0
  6  7  1  0  0  0
  7  8  2  0  0  0
  8 11  1  0  0  0
 11 12  1  0  0  0
 12 13  1  0  0  0
 13 14  1  0  0  0
 14 15  1  0  0  0
 15 16  1  0  0  0
 15 17  1  0  0  0
 17 18  1  0  0  0
  8  9  1  0  0  0
  9 10  2  0  0  0
 32 27  1  0  0  0
 10  5  1  0  0  0
 18 12  1  0  0  0
 22 25  1  0  0  0
  1  4  1  0  0  0
 16 19  1  0  0  0
M  END
> <minimizedAffinity>
-5.25428

> <CNNscore>
0.2537574768

> <CNNaffinity>
6.1223616600

> <CNN_VS>
1.5535950661

> <CNNaffinity_variance>
0.0304725058

$$$$
[H]OC1([H])C([H])([H])C([H])([H])N(C([H])([H])c2c([H])c([H])c(C(=O)N([H])[C@]([H])(C(=O)N([H])C([H])([H])[H])C([H])([H])c3c([H])c([H])c([H])c([H])c3[H])c([H])c2[H])C([H])([H])C1([H])[H]


 32 34  0  0  0  0  0  0  0  0999 V2000
   10.2063   23.0308    0.1553 N   0  0  0  0  0  0  0  0  0  0  0  0
   11.5284   23.0546    0.6953 C   0  0  0  0  0  0  0  0  0  0  0  0
   11.7148   22.5800    1.8178 O   0  0  0  0  0  0  0  0  0  0  0  0
   10.0383   23.4161   -0.7778 H   0  0  0  0  0  0  0  0  0  0  0  0
   12.6054   23.6277   -0.0890 C   0  0  0  0  0  0  0  0  0  0  0  0
   12.3603   24.6377   -1.0030 C   0  0  0  0  0  0  0  0  0  0  0  0
   13.3882   25.1727   -1.7327 C   0  0  0  0  0  0  0  0  0  0  0  0
   14.6734   24.7321   -1.5811 C   0  0  0  0  0  0  0  0  0  0  0  0
   14.9137   23.7220   -0.6631 C   0  0  0  0  0  0  0  0  0  0  0  0
   13.9147   23.1630    0.0823 C   0  0  0  0  0  0  0  0  0  0  0  0
   15.8432   25.2499   -2.3263 C   0  0  0  0  0  0  0  0  0  0  0  0
   15.3971   25.9419   -3.5116 N   0  0  0  0  0  0  0  0  0  0  0  0
   16.3964   26.9223   -3.8998 C   0  0  0  0  0  0  0  0  0  0  0  0
   15.9317   27.7554   -5.0549 C   0  0  0  0  0  0  0  0  0  0  0  0
   15.1478   26.9061   -6.0649 C   0  0  0  0  0  0  0  0  0  0  0  0
   13.7987   26.9820   -5.6712 O   0  0  0  0  0  0  0  0  0  0  0  0
   15.6805   25.4926   -5.9059 C   0  0  0  0  0  0  0  0  0  0  0  0
   15.1443   24.9914   -4.5545 C   0  0  0  0  0  0  0  0  0  0  0  0
   13.1928   27.2060   -6.4073 H   0  0  0  0  0  0  0  0  0  0  0  0
    9.0683   22.4569    0.9060 C   0  0  0  0  0  0  0  0  0  0  0  0
    6.8848   19.8623   -0.9943 C   0  0  0  0  0  0  0  0  0  0  0  0
    7.2760   21.1101   -0.3738 N   0  0  0  0  0  0  0  0  0  0  0  0
    8.5066   21.3089    0.2393 C   0  0  0  0  0  0  0  0  0  0  0  0
    9.2872   20.2689    0.2099 O   0  0  0  0  0  0  0  0  0  0  0  0
    6.5794   21.8808   -0.3931 H   0  0  0  0  0  0  0  0  0  0  0  0
    8.1829   23.6185    1.2078 C   0  0  0  0  0  0  0  0  0  0  0  0
    8.3004   24.2541    2.5179 C   0  0  0  0  0  0  0  0  0  0  0  0
    8.8516   23.6003    3.5961 C   0  0  0  0  0  0  0  0  0  0  0  0
    8.9664   24.2266    4.8413 C   0  0  0  0  0  0  0  0  0  0  0  0
    8.5334   25.5234    5.0395 C   0  0  0  0  0  0  0  0  0  0  0  0
    7.9781   26.1762    3.9410 C   0  0  0  0  0  0  0  0  0  0  0  0
    7.8656   25.5626    2.7311 C   0  0  0  0  0  0  0  0  0  0  0  0
 21 22  1  0  0  0
 22 23  1  0  0  0
 23 24  2  0  0  0
 23 20  1  0  0  0
 20 26  1  0  0  0
 26 27  1  0  0  0
 27 28  2  0  0  0
 28 29  1  0  0  0
 29 30  2  0  0  0
 30 31  1  0  0  0
 31 32  2  0  0  0
 20  1  1  0  0  0
  1  2  1  0  0  0
  2  3  2  0  0  0
  2  5  1  0  0  0
  5  6  2  0  0  0
  6  7  1  0  0  0
  7  8  2  0  0  0
  8 11  1  0  0  0
 11 12  1  0  0  0
 12 13  1  0  0  0
 13 14  1  0  0  0
 14 15  1  0  0  0
 15 16  1  0  0  0
 15 17  1  0  0  0
 17 18  1  0  0  0
  8  9  1  0  0  0
  9 10  2  0  0  0
 32 27  1  0  0  0
 10  5  1  0  0  0
 18 12  1  0  0  0
 22 25  1  0  0  0
  1  4  1  0  0  0
 16 19  1  0  0  0
M  END
> <minimizedAffinity>
-8.47177

> <CNNscore>
0.2388726920

> <CNNaffinity>
6.4265928268

> <CNN_VS>
1.5351375341

> <CNNaffinity_variance>
0.1361720413

$$$$
[H]OC1([H])C([H])([H])C([H])([H])N(C([H])([H])c2c([H])c([H])c(C(=O)N([H])[C@]([H])(C(=O)N([H])C([H])([H])[H])C([H])([H])c3c([H])c([H])c([H])c([H])c3[H])c([H])c2[H])C([H])([H])C1([H])[H]


 32 34  0  0  0  0  0  0  0  0999 V2000
   14.2918   25.2577   -2.2959 N   0  0  0  0  0  0  0  0  0  0  0  0
   12.9680   25.7854   -2.2005 C   0  0  0  0  0  0  0  0  0  0  0  0
   12.6966   26.8121   -2.8267 O   0  0  0  0  0  0  0  0  0  0  0  0
   14.5293   24.4028   -1.7858 H   0  0  0  0  0  0  0  0  0  0  0  0
   11.9880   25.1003   -1.3795 C   0  0  0  0  0  0  0  0  0  0  0  0
   12.0463   25.1663    0.0017 C   0  0  0  0  0  0  0  0  0  0  0  0
   11.1109   24.5183    0.7637 C   0  0  0  0  0  0  0  0  0  0  0  0
   10.1016   23.7965    0.1901 C   0  0  0  0  0  0  0  0  0  0  0  0
   10.0467   23.7354   -1.1933 C   0  0  0  0  0  0  0  0  0  0  0  0
   10.9616   24.3673   -1.9868 C   0  0  0  0  0  0  0  0  0  0  0  0
    9.0508   23.0650    0.9335 C   0  0  0  0  0  0  0  0  0  0  0  0
    8.4568   22.0654    0.0786 N   0  0  0  0  0  0  0  0  0  0  0  0
    9.2556   20.8531    0.1307 C   0  0  0  0  0  0  0  0  0  0  0  0
    8.7538   19.8206   -0.8317 C   0  0  0  0  0  0  0  0  0  0  0  0
    7.2198   19.8172   -0.8840 C   0  0  0  0  0  0  0  0  0  0  0  0
    6.8645   20.7158   -1.9072 O   0  0  0  0  0  0  0  0  0  0  0  0
    6.7669   20.3320    0.4714 C   0  0  0  0  0  0  0  0  0  0  0  0
    7.1014   21.8330    0.4836 C   0  0  0  0  0  0  0  0  0  0  0  0
    6.2166   20.3442   -2.5407 H   0  0  0  0  0  0  0  0  0  0  0  0
   15.3330   25.9100   -3.1194 C   0  0  0  0  0  0  0  0  0  0  0  0
   15.2448   25.5960   -6.9930 C   0  0  0  0  0  0  0  0  0  0  0  0
   15.3282   26.2075   -5.6837 N   0  0  0  0  0  0  0  0  0  0  0  0
   15.2740   25.4881   -4.4967 C   0  0  0  0  0  0  0  0  0  0  0  0
   15.1401   24.2048   -4.6606 O   0  0  0  0  0  0  0  0  0  0  0  0
   15.4249   27.2417   -5.6557 H   0  0  0  0  0  0  0  0  0  0  0  0
   16.6017   25.7135   -2.3603 C   0  0  0  0  0  0  0  0  0  0  0  0
   16.5707   24.8647   -1.1718 C   0  0  0  0  0  0  0  0  0  0  0  0
   17.6310   24.7999   -0.2970 C   0  0  0  0  0  0  0  0  0  0  0  0
   17.5815   23.9900    0.8421 C   0  0  0  0  0  0  0  0  0  0  0  0
   16.4693   23.2249    1.1357 C   0  0  0  0  0  0  0  0  0  0  0  0
   15.4013   23.2990    0.2441 C   0  0  0  0  0  0  0  0  0  0  0  0
   15.4540   24.0864   -0.8651 C   0  0  0  0  0  0  0  0  0  0  0  0
 21 22  1  0  0  0
 22 23  1  0  0  0
 23 24  2  0  0  0
 23 20  1  0  0  0
 20 26  1  0  0  0
 26 27  1  0  0  0
 27 28  2  0  0  0
 28 29  1  0  0  0
 29 30  2  0  0  0
 30 31  1  0  0  0
 31 32  2  0  0  0
 20  1  1  0  0  0
  1  2  1  0  0  0
  2  3  2  0  0  0
  2  5  1  0  0  0
  5  6  2  0  0  0
  6  7  1  0  0  0
  7  8  2  0  0  0
  8 11  1  0  0  0
 11 12  1  0  0  0
 12 13  1  0  0  0
 13 14  1  0  0  0
 14 15  1  0  0  0
 15 16  1  0  0  0
 15 17  1  0  0  0
 17 18  1  0  0  0
  8  9  1  0  0  0
  9 10  2  0  0  0
 32 27  1  0  0  0
 10  5  1  0  0  0
 18 12  1  0  0  0
 22 25  1  0  0  0
  1  4  1  0  0  0
 16 19  1  0  0  0
M  END
> <minimizedAffinity>
-5.40039

> <CNNscore>
0.1812976301

> <CNNaffinity>
6.1729760170

> <CNN_VS>
1.1191458702

> <CNNaffinity_variance>
0.0201909505

$$$$
[H]c1c([H])c(F)c([H])c(Oc2c([H])c([H])c(N3C(=O)C([H])([H])C4(C([H])([H])C3([H])[H])C([H])([H])C([H])([H])N(C([H])([H])c3c([H])c([H])c([H])c([H])c3S(=O)(=O)C([H])([H])[H])C([H])([H])C4([H])[H])c([H])c2[H])c1[H]


 37 41  0  0  0  0  0  0  0  0999 V2000
   15.2986   24.0005   -2.1665 N   0  0  0  0  0  0  0  0  0  0  0  0
   14.4910   22.8029   -2.1395 C   0  0  0  0  0  0  0  0  0  0  0  0
   13.0703   23.2607   -1.9872 C   0  0  0  0  0  0  0  0  0  0  0  0
   12.9344   23.9986   -0.6602 C   0  0  0  0  0  0  0  0  0  0  0  0
   11.6464   24.7454   -0.7165 C   0  0  0  0  0  0  0  0  0  0  0  0
   10.4626   23.8711   -0.3495 C   0  0  0  0  0  0  0  0  0  0  0  0
   10.6644   23.4554    0.9992 N   0  0  0  0  0  0  0  0  0  0  0  0
   11.9560   22.9000    1.3273 C   0  0  0  0  0  0  0  0  0  0  0  0
   12.1035   22.3577    2.4404 O   0  0  0  0  0  0  0  0  0  0  0  0
   13.0774   22.9589    0.4032 C   0  0  0  0  0  0  0  0  0  0  0  0
   14.0075   25.0304   -0.3984 C   0  0  0  0  0  0  0  0  0  0  0  0
   15.3520   24.5422   -0.9036 C   0  0  0  0  0  0  0  0  0  0  0  0
    9.6991   23.4802    2.0383 C   0  0  0  0  0  0  0  0  0  0  0  0
    9.7378   24.5063    2.9599 C   0  0  0  0  0  0  0  0  0  0  0  0
    8.7474   24.6680    3.8805 C   0  0  0  0  0  0  0  0  0  0  0  0
    7.6327   23.7924    3.9379 C   0  0  0  0  0  0  0  0  0  0  0  0
    7.6111   22.7787    3.0214 C   0  0  0  0  0  0  0  0  0  0  0  0
    8.6313   22.6117    2.0774 C   0  0  0  0  0  0  0  0  0  0  0  0
    6.6968   24.0282    4.8850 O   0  0  0  0  0  0  0  0  0  0  0  0
    5.7079   24.8594    5.1545 C   0  0  0  0  0  0  0  0  0  0  0  0
    4.6983   24.6182    6.0666 C   0  0  0  0  0  0  0  0  0  0  0  0
    3.6953   25.5454    6.3177 C   0  0  0  0  0  0  0  0  0  0  0  0
    3.6842   26.7439    5.6557 C   0  0  0  0  0  0  0  0  0  0  0  0
    4.6621   27.0196    4.7423 C   0  0  0  0  0  0  0  0  0  0  0  0
    4.6207   28.2144    4.1020 F   0  0  0  0  0  0  0  0  0  0  0  0
    5.6522   26.0761    4.5078 C   0  0  0  0  0  0  0  0  0  0  0  0
   15.1470   24.7293   -3.3747 C   0  0  0  0  0  0  0  0  0  0  0  0
   16.0745   26.6331   -4.5443 C   0  0  0  0  0  0  0  0  0  0  0  0
   16.9262   27.7441   -4.6080 C   0  0  0  0  0  0  0  0  0  0  0  0
   17.6368   28.2037   -3.5267 C   0  0  0  0  0  0  0  0  0  0  0  0
   17.5026   27.5443   -2.3364 C   0  0  0  0  0  0  0  0  0  0  0  0
   16.6565   26.4234   -2.2430 C   0  0  0  0  0  0  0  0  0  0  0  0
   15.9747   25.9833   -3.3163 C   0  0  0  0  0  0  0  0  0  0  0  0
   15.9074   26.4404   -7.4852 C   0  0  0  0  0  0  0  0  0  0  0  0
   15.1711   26.1149   -5.9121 S   0  0  0  0  0  0  0  0  0  0  0  0
   13.8481   26.8733   -5.8875 O   0  0  0  0  0  0  0  0  0  0  0  0
   14.7369   24.6596   -5.8214 O   0  0  0  0  0  0  0  0  0  0  0  0
 34 35  1  0  0  0
 35 36  2  0  0  0
 35 37  2  0  0  0
 35 28  1  0  0  0
 28 29  2  0  0  0
 29 30  1  0  0  0
 30 31  2  0  0  0
 31 32  1  0  0  0
 32 33  2  0  0  0
 33 27  1  0  0  0
 27  1  1  0  0  0
  1  2  1  0  0  0
  2  3  1  0  0  0
  3  4  1  0  0  0
  4  5  1  0  0  0
  5  6  1  0  0  0
  6  7  1  0  0  0
  7  8  1  0  0  0
  8  9  2  0  0  0
  8 10  1  0  0  0
  7 13  1  0  0  0
 13 14  2  0  0  0
 14 15  1  0  0  0
 15 16  2  0  0  0
 16 19  1  0  0  0
 19 20  1  0  0  0
 20 21  2  0  0  0
 21 22  1  0  0  0
 22 23  2  0  0  0
 23 24  1  0  0  0
 24 25  1  0  0  0
 24 26  2  0  0  0
 16 17  1  0  0  0
 17 18  2  0  0  0
  4 11  1  0  0  0
 11 12  1  0  0  0
 33 28  1  0  0  0
 12  1  1  0  0  0
 10  4  1  0  0  0
 18 13  1  0  0  0
 26 20  1  0  0  0
M  END
> <minimizedAffinity>
-8.16354

> <CNNscore>
0.4448466599

> <CNNaffinity>
7.3734321594

> <CNN_VS>
3.2800467014

> <CNNaffinity_variance>
0.1298708171

$$$$
[H]c1c([H])c(F)c([H])c(Oc2c([H])c([H])c(N3C(=O)C([H])([H])C4(C([H])([H])C3([H])[H])C([H])([H])C([H])([H])N(C([H])([H])c3c([H])c([H])c([H])c([H])c3S(=O)(=O)C([H])([H])[H])C([H])([H])C4([H])[H])c([H])c2[H])c1[H]


 37 41  0  0  0  0  0  0  0  0999 V2000
   15.2422   24.2011   -2.2675 N   0  0  0  0  0  0  0  0  0  0  0  0
   14.4572   22.9910   -2.3496 C   0  0  0  0  0  0  0  0  0  0  0  0
   13.0380   23.3947   -2.0774 C   0  0  0  0  0  0  0  0  0  0  0  0
   12.9540   23.9634   -0.6655 C   0  0  0  0  0  0  0  0  0  0  0  0
   11.6524   24.6820   -0.5711 C   0  0  0  0  0  0  0  0  0  0  0  0
   10.5027   23.7431   -0.2594 C   0  0  0  0  0  0  0  0  0  0  0  0
   10.7766   23.1721    1.0179 N   0  0  0  0  0  0  0  0  0  0  0  0
   12.0918   22.6105    1.2161 C   0  0  0  0  0  0  0  0  0  0  0  0
   12.3022   21.9409    2.2468 O   0  0  0  0  0  0  0  0  0  0  0  0
   13.1660   22.8062    0.2554 C   0  0  0  0  0  0  0  0  0  0  0  0
   14.0209   24.9800   -0.3296 C   0  0  0  0  0  0  0  0  0  0  0  0
   15.3475   24.5872   -0.9518 C   0  0  0  0  0  0  0  0  0  0  0  0
    9.8625   23.0490    2.0956 C   0  0  0  0  0  0  0  0  0  0  0  0
    9.0755   21.9187    2.1766 C   0  0  0  0  0  0  0  0  0  0  0  0
    8.2978   21.6748    3.2675 C   0  0  0  0  0  0  0  0  0  0  0  0
    8.2577   22.5677    4.3692 C   0  0  0  0  0  0  0  0  0  0  0  0
    9.0393   23.6848    4.2720 C   0  0  0  0  0  0  0  0  0  0  0  0
    9.8361   23.9359    3.1486 C   0  0  0  0  0  0  0  0  0  0  0  0
    7.4569   22.2457    5.4101 O   0  0  0  0  0  0  0  0  0  0  0  0
    6.2079   21.9057    5.6666 C   0  0  0  0  0  0  0  0  0  0  0  0
    5.2988   22.6909    6.3495 C   0  0  0  0  0  0  0  0  0  0  0  0
    3.9902   22.2810    6.5698 C   0  0  0  0  0  0  0  0  0  0  0  0
    3.5619   21.0665    6.1049 C   0  0  0  0  0  0  0  0  0  0  0  0
    4.4309   20.2577    5.4286 C   0  0  0  0  0  0  0  0  0  0  0  0
    3.9758   19.0601    4.9838 F   0  0  0  0  0  0  0  0  0  0  0  0
    5.7336   20.6892    5.2229 C   0  0  0  0  0  0  0  0  0  0  0  0
   15.0199   25.0671   -3.3696 C   0  0  0  0  0  0  0  0  0  0  0  0
   16.0447   26.9393   -4.5088 C   0  0  0  0  0  0  0  0  0  0  0  0
   17.0200   27.9413   -4.6002 C   0  0  0  0  0  0  0  0  0  0  0  0
   17.9048   28.2174   -3.5871 C   0  0  0  0  0  0  0  0  0  0  0  0
   17.8250   27.4788   -2.4391 C   0  0  0  0  0  0  0  0  0  0  0  0
   16.8572   26.4639   -2.3197 C   0  0  0  0  0  0  0  0  0  0  0  0
   16.0043   26.2029   -3.3271 C   0  0  0  0  0  0  0  0  0  0  0  0
   15.2186   25.1970   -6.7439 C   0  0  0  0  0  0  0  0  0  0  0  0
   14.9292   26.6530   -5.7853 S   0  0  0  0  0  0  0  0  0  0  0  0
   15.0366   27.8328   -6.7458 O   0  0  0  0  0  0  0  0  0  0  0  0
   13.4783   26.7083   -5.3309 O   0  0  0  0  0  0  0  0  0  0  0  0
 34 35  1  0  0  0
 35 36  2  0  0  0
 35 37  2  0  0  0
 35 28  1  0  0  0
 28 29  2  0  0  0
 29 30  1  0  0  0
 30 31  2  0  0  0
 31 32  1  0  0  0
 32 33  2  0  0  0
 33 27  1  0  0  0
 27  1  1  0  0  0
  1  2  1  0  0  0
  2  3  1  0  0  0
  3  4  1  0  0  0
  4  5  1  0  0  0
  5  6  1  0  0  0
  6  7  1  0  0  0
  7  8  1  0  0  0
  8  9  2  0  0  0
  8 10  1  0  0  0
  7 13  1  0  0  0
 13 14  2  0  0  0
 14 15  1  0  0  0
 15 16  2  0  0  0
 16 19  1  0  0  0
 19 20  1  0  0  0
 20 21  2  0  0  0
 21 22  1  0  0  0
 22 23  2  0  0  0
 23 24  1  0  0  0
 24 25  1  0  0  0
 24 26  2  0  0  0
 16 17  1  0  0  0
 17 18  2  0  0  0
  4 11  1  0  0  0
 11 12  1  0  0  0
 33 28  1  0  0  0
 12  1  1  0  0  0
 10  4  1  0  0  0
 18 13  1  0  0  0
 26 20  1  0  0  0
M  END
> <minimizedAffinity>
-6.92525

> <CNNscore>
0.4280409217

> <CNNaffinity>
7.5130872726

> <CNN_VS>
3.2159087658

> <CNNaffinity_variance>
0.3542307615

$$$$
[H]c1c([H])c(F)c([H])c(Oc2c([H])c([H])c(N3C(=O)C([H])([H])C4(C([H])([H])C3([H])[H])C([H])([H])C([H])([H])N(C([H])([H])c3c([H])c([H])c([H])c([H])c3S(=O)(=O)C([H])([H])[H])C([H])([H])C4([H])[H])c([H])c2[H])c1[H]


 37 41  0  0  0  0  0  0  0  0999 V2000
   15.1276   24.3475   -1.4896 N   0  0  0  0  0  0  0  0  0  0  0  0
   14.7193   22.9682   -1.3547 C   0  0  0  0  0  0  0  0  0  0  0  0
   13.2406   22.9438   -1.6073 C   0  0  0  0  0  0  0  0  0  0  0  0
   12.5491   23.7877   -0.5426 C   0  0  0  0  0  0  0  0  0  0  0  0
   11.1659   24.0446   -1.0327 C   0  0  0  0  0  0  0  0  0  0  0  0
   10.2281   22.8926   -0.7261 C   0  0  0  0  0  0  0  0  0  0  0  0
   10.1711   22.7792    0.6939 N   0  0  0  0  0  0  0  0  0  0  0  0
   11.4302   22.7431    1.3993 C   0  0  0  0  0  0  0  0  0  0  0  0
   11.4226   22.4577    2.6132 O   0  0  0  0  0  0  0  0  0  0  0  0
   12.6928   23.0306    0.7373 C   0  0  0  0  0  0  0  0  0  0  0  0
   13.1716   25.1453   -0.3100 C   0  0  0  0  0  0  0  0  0  0  0  0
   14.6836   25.0622   -0.4018 C   0  0  0  0  0  0  0  0  0  0  0  0
    8.9973   22.6392    1.4781 C   0  0  0  0  0  0  0  0  0  0  0  0
    8.2210   21.5096    1.3205 C   0  0  0  0  0  0  0  0  0  0  0  0
    7.1752   21.2482    2.1526 C   0  0  0  0  0  0  0  0  0  0  0  0
    6.8331   22.1213    3.2171 C   0  0  0  0  0  0  0  0  0  0  0  0
    7.6088   23.2379    3.3575 C   0  0  0  0  0  0  0  0  0  0  0  0
    8.6818   23.5071    2.4995 C   0  0  0  0  0  0  0  0  0  0  0  0
    5.7790   21.7827    3.9934 O   0  0  0  0  0  0  0  0  0  0  0  0
    5.3513   20.7929    4.7542 C   0  0  0  0  0  0  0  0  0  0  0  0
    5.4689   20.7453    6.1302 C   0  0  0  0  0  0  0  0  0  0  0  0
    4.9791   19.6804    6.8752 C   0  0  0  0  0  0  0  0  0  0  0  0
    4.3549   18.6334    6.2515 C   0  0  0  0  0  0  0  0  0  0  0  0
    4.2222   18.6397    4.8917 C   0  0  0  0  0  0  0  0  0  0  0  0
    3.6015   17.5863    4.3049 F   0  0  0  0  0  0  0  0  0  0  0  0
    4.7215   19.7143    4.1697 C   0  0  0  0  0  0  0  0  0  0  0  0
   15.1036   24.7904   -2.8376 C   0  0  0  0  0  0  0  0  0  0  0  0
   15.7132   26.7605   -4.1026 C   0  0  0  0  0  0  0  0  0  0  0  0
   16.5919   27.8112   -4.3982 C   0  0  0  0  0  0  0  0  0  0  0  0
   17.7112   28.0820   -3.6502 C   0  0  0  0  0  0  0  0  0  0  0  0
   17.9744   27.2879   -2.5685 C   0  0  0  0  0  0  0  0  0  0  0  0
   17.1110   26.2233   -2.2489 C   0  0  0  0  0  0  0  0  0  0  0  0
   16.0234   25.9689   -2.9993 C   0  0  0  0  0  0  0  0  0  0  0  0
   12.7636   26.7738   -4.2196 C   0  0  0  0  0  0  0  0  0  0  0  0
   14.3003   26.4807   -5.0414 S   0  0  0  0  0  0  0  0  0  0  0  0
   14.3083   25.0067   -5.4328 O   0  0  0  0  0  0  0  0  0  0  0  0
   14.3275   27.1951   -6.3843 O   0  0  0  0  0  0  0  0  0  0  0  0
 34 35  1  0  0  0
 35 36  2  0  0  0
 35 37  2  0  0  0
 35 28  1  0  0  0
 28 29  2  0  0  0
 29 30  1  0  0  0
 30 31  2  0  0  0
 31 32  1  0  0  0
 32 33  2  0  0  0
 33 27  1  0  0  0
 27  1  1  0  0  0
  1  2  1  0  0  0
  2  3  1  0  0  0
  3  4  1  0  0  0
  4  5  1  0  0  0
  5  6  1  0  0  0
  6  7  1  0  0  0
  7  8  1  0  0  0
  8  9  2  0  0  0
  8 10  1  0  0  0
  7 13  1  0  0  0
 13 14  2  0  0  0
 14 15  1  0  0  0
 15 16  2  0  0  0
 16 19  1  0  0  0
 19 20  1  0  0  0
 20 21  2  0  0  0
 21 22  1  0  0  0
 22 23  2  0  0  0
 23 24  1  0  0  0
 24 25  1  0  0  0
 24 26  2  0  0  0
 16 17  1  0  0  0
 17 18  2  0  0  0
  4 11  1  0  0  0
 11 12  1  0  0  0
 33 28  1  0  0  0
 12  1  1  0  0  0
 10  4  1  0  0  0
 18 13  1  0  0  0
 26 20  1  0  0  0
M  END
> <minimizedAffinity>
-6.30099

> <CNNscore>
0.3720306456

> <CNNaffinity>
7.2573843002

> <CNN_VS>
2.6999692917

> <CNNaffinity_variance>
0.1864428818

$$$$
[H]c1c([H])c(F)c([H])c(Oc2c([H])c([H])c(N3C(=O)C([H])([H])C4(C([H])([H])C3([H])[H])C([H])([H])C([H])([H])N(C([H])([H])c3c([H])c([H])c([H])c([H])c3S(=O)(=O)C([H])([H])[H])C([H])([H])C4([H])[H])c([H])c2[H])c1[H]


 37 41  0  0  0  0  0  0  0  0999 V2000
   15.1322   24.0160   -1.7464 N   0  0  0  0  0  0  0  0  0  0  0  0
   14.1232   23.0384   -2.0832 C   0  0  0  0  0  0  0  0  0  0  0  0
   12.9034   23.4074   -1.2913 C   0  0  0  0  0  0  0  0  0  0  0  0
   13.2361   23.3078    0.1931 C   0  0  0  0  0  0  0  0  0  0  0  0
   12.1537   24.0260    0.9226 C   0  0  0  0  0  0  0  0  0  0  0  0
   10.9333   23.1518    1.1392 C   0  0  0  0  0  0  0  0  0  0  0  0
   11.3532   22.0586    1.9524 N   0  0  0  0  0  0  0  0  0  0  0  0
   12.5419   21.3522    1.5375 C   0  0  0  0  0  0  0  0  0  0  0  0
   12.8291   20.2841    2.1135 O   0  0  0  0  0  0  0  0  0  0  0  0
   13.4045   21.8510    0.4782 C   0  0  0  0  0  0  0  0  0  0  0  0
   14.5303   23.9763    0.5966 C   0  0  0  0  0  0  0  0  0  0  0  0
   15.5892   23.7780   -0.4714 C   0  0  0  0  0  0  0  0  0  0  0  0
   10.6830   21.5596    3.0988 C   0  0  0  0  0  0  0  0  0  0  0  0
    9.3142   21.3935    3.0513 C   0  0  0  0  0  0  0  0  0  0  0  0
    8.6413   20.7741    4.0602 C   0  0  0  0  0  0  0  0  0  0  0  0
    9.3115   20.2722    5.2054 C   0  0  0  0  0  0  0  0  0  0  0  0
   10.6665   20.4482    5.2396 C   0  0  0  0  0  0  0  0  0  0  0  0
   11.3568   21.0880    4.2032 C   0  0  0  0  0  0  0  0  0  0  0  0
    8.5634   19.6715    6.1582 O   0  0  0  0  0  0  0  0  0  0  0  0
    7.8502   18.5786    6.3541 C   0  0  0  0  0  0  0  0  0  0  0  0
    8.3716   17.3428    6.6862 C   0  0  0  0  0  0  0  0  0  0  0  0
    7.5622   16.2343    6.8978 C   0  0  0  0  0  0  0  0  0  0  0  0
    6.2022   16.3427    6.7814 C   0  0  0  0  0  0  0  0  0  0  0  0
    5.6468   17.5461    6.4500 C   0  0  0  0  0  0  0  0  0  0  0  0
    4.2970   17.6190    6.3401 F   0  0  0  0  0  0  0  0  0  0  0  0
    6.4770   18.6384    6.2420 C   0  0  0  0  0  0  0  0  0  0  0  0
   14.8576   25.2921   -2.3032 C   0  0  0  0  0  0  0  0  0  0  0  0
   14.3462   26.0760   -4.5341 C   0  0  0  0  0  0  0  0  0  0  0  0
   14.5213   26.0362   -5.9238 C   0  0  0  0  0  0  0  0  0  0  0  0
   15.4891   25.2764   -6.5334 C   0  0  0  0  0  0  0  0  0  0  0  0
   16.3172   24.5279   -5.7436 C   0  0  0  0  0  0  0  0  0  0  0  0
   16.1631   24.5458   -4.3447 C   0  0  0  0  0  0  0  0  0  0  0  0
   15.2031   25.2906   -3.7666 C   0  0  0  0  0  0  0  0  0  0  0  0
   12.3794   26.4157   -2.3592 C   0  0  0  0  0  0  0  0  0  0  0  0
   13.1479   27.0726   -3.8084 S   0  0  0  0  0  0  0  0  0  0  0  0
   12.0396   27.2616   -4.8390 O   0  0  0  0  0  0  0  0  0  0  0  0
   13.6299   28.4932   -3.5548 O   0  0  0  0  0  0  0  0  0  0  0  0
 34 35  1  0  0  0
 35 36  2  0  0  0
 35 37  2  0  0  0
 35 28  1  0  0  0
 28 29  2  0  0  0
 29 30  1  0  0  0
 30 31  2  0  0  0
 31 32  1  0  0  0
 32 33  2  0  0  0
 33 27  1  0  0  0
 27  1  1  0  0  0
  1  2  1  0  0  0
  2  3  1  0  0  0
  3  4  1  0  0  0
  4  5  1  0  0  0
  5  6  1  0  0  0
  6  7  1  0  0  0
  7  8  1  0  0  0
  8  9  2  0  0  0
  8 10  1  0  0  0
  7 13  1  0  0  0
 13 14  2  0  0  0
 14 15  1  0  0  0
 15 16  2  0  0  0
 16 19  1  0  0  0
 19 20  1  0  0  0
 20 21  2  0  0  0
 21 22  1  0  0  0
 22 23  2  0  0  0
 23 24  1  0  0  0
 24 25  1  0  0  0
 24 26  2  0  0  0
 16 17  1  0  0  0
 17 18  2  0  0  0
  4 11  1  0  0  0
 11 12  1  0  0  0
 33 28  1  0  0  0
 12  1  1  0  0  0
 10  4  1  0  0  0
 18 13  1  0  0  0
 26 20  1  0  0  0
M  END
> <minimizedAffinity>
-3.85721

> <CNNscore>
0.3671365082

> <CNNaffinity>
7.0707168579

> <CNN_VS>
2.5959184170

> <CNNaffinity_variance>
0.1602699459

$$$$
[H]c1c([H])c(F)c([H])c(Oc2c([H])c([H])c(N3C(=O)C([H])([H])C4(C([H])([H])C3([H])[H])C([H])([H])C([H])([H])N(C([H])([H])c3c([H])c([H])c([H])c([H])c3S(=O)(=O)C([H])([H])[H])C([H])([H])C4([H])[H])c([H])c2[H])c1[H]


 37 41  0  0  0  0  0  0  0  0999 V2000
    5.4610   20.7261    0.9448 N   0  0  0  0  0  0  0  0  0  0  0  0
    6.0071   20.3926   -0.3505 C   0  0  0  0  0  0  0  0  0  0  0  0
    7.4329   19.9911   -0.1118 C   0  0  0  0  0  0  0  0  0  0  0  0
    8.1855   21.1830    0.4685 C   0  0  0  0  0  0  0  0  0  0  0  0
    9.4589   20.6518    1.0306 C   0  0  0  0  0  0  0  0  0  0  0  0
   10.5304   20.4944   -0.0312 C   0  0  0  0  0  0  0  0  0  0  0  0
   10.7930   21.7990   -0.5429 N   0  0  0  0  0  0  0  0  0  0  0  0
    9.6518   22.5880   -0.9422 C   0  0  0  0  0  0  0  0  0  0  0  0
    9.8528   23.6503   -1.5635 O   0  0  0  0  0  0  0  0  0  0  0  0
    8.2891   22.1806   -0.6388 C   0  0  0  0  0  0  0  0  0  0  0  0
    7.4808   21.8803    1.6095 C   0  0  0  0  0  0  0  0  0  0  0  0
    5.9845   21.9266    1.3643 C   0  0  0  0  0  0  0  0  0  0  0  0
   12.0716   22.3763   -0.7531 C   0  0  0  0  0  0  0  0  0  0  0  0
   12.2849   23.6832   -0.3658 C   0  0  0  0  0  0  0  0  0  0  0  0
   13.5287   24.2366   -0.3982 C   0  0  0  0  0  0  0  0  0  0  0  0
   14.6613   23.5002   -0.8310 C   0  0  0  0  0  0  0  0  0  0  0  0
   14.4331   22.2086   -1.2155 C   0  0  0  0  0  0  0  0  0  0  0  0
   13.1534   21.6417   -1.1847 C   0  0  0  0  0  0  0  0  0  0  0  0
   15.8579   24.1301   -0.8307 O   0  0  0  0  0  0  0  0  0  0  0  0
   16.9622   24.2175   -0.1134 C   0  0  0  0  0  0  0  0  0  0  0  0
   17.0056   24.2947    1.2655 C   0  0  0  0  0  0  0  0  0  0  0  0
   18.2049   24.3656    1.9622 C   0  0  0  0  0  0  0  0  0  0  0  0
   19.3953   24.3589    1.2857 C   0  0  0  0  0  0  0  0  0  0  0  0
   19.3961   24.2883   -0.0788 C   0  0  0  0  0  0  0  0  0  0  0  0
   20.5919   24.2864   -0.7184 F   0  0  0  0  0  0  0  0  0  0  0  0
   18.1845   24.2200   -0.7518 C   0  0  0  0  0  0  0  0  0  0  0  0
    5.2584   19.5812    1.7585 C   0  0  0  0  0  0  0  0  0  0  0  0
    4.3740   18.9482    3.9195 C   0  0  0  0  0  0  0  0  0  0  0  0
    3.8302   19.2704    5.1702 C   0  0  0  0  0  0  0  0  0  0  0  0
    3.7311   20.5598    5.6320 C   0  0  0  0  0  0  0  0  0  0  0  0
    4.1864   21.5707    4.8316 C   0  0  0  0  0  0  0  0  0  0  0  0
    4.7350   21.2774    3.5691 C   0  0  0  0  0  0  0  0  0  0  0  0
    4.8158   20.0078    3.1308 C   0  0  0  0  0  0  0  0  0  0  0  0
    6.1662   16.7336    3.1465 C   0  0  0  0  0  0  0  0  0  0  0  0
    4.5169   17.3168    3.3961 S   0  0  0  0  0  0  0  0  0  0  0  0
    3.8129   17.2170    2.0468 O   0  0  0  0  0  0  0  0  0  0  0  0
    3.7365   16.3427    4.2660 O   0  0  0  0  0  0  0  0  0  0  0  0
 34 35  1  0  0  0
 35 36  2  0  0  0
 35 37  2  0  0  0
 35 28  1  0  0  0
 28 29  2  0  0  0
 29 30  1  0  0  0
 30 31  2  0  0  0
 31 32  1  0  0  0
 32 33  2  0  0  0
 33 27  1  0  0  0
 27  1  1  0  0  0
  1  2  1  0  0  0
  2  3  1  0  0  0
  3  4  1  0  0  0
  4  5  1  0  0  0
  5  6  1  0  0  0
  6  7  1  0  0  0
  7  8  1  0  0  0
  8  9  2  0  0  0
  8 10  1  0  0  0
  7 13  1  0  0  0
 13 14  2  0  0  0
 14 15  1  0  0  0
 15 16  2  0  0  0
 16 19  1  0  0  0
 19 20  1  0  0  0
 20 21  2  0  0  0
 21 22  1  0  0  0
 22 23  2  0  0  0
 23 24  1  0  0  0
 24 25  1  0  0  0
 24 26  2  0  0  0
 16 17  1  0  0  0
 17 18  2  0  0  0
  4 11  1  0  0  0
 11 12  1  0  0  0
 33 28  1  0  0  0
 12  1  1  0  0  0
 10  4  1  0  0  0
 18 13  1  0  0  0
 26 20  1  0  0  0
M  END
> <minimizedAffinity>
11.04636

> <CNNscore>
0.3639448881

> <CNNaffinity>
6.3016471863

> <CNN_VS>
2.2934522629

> <CNNaffinity_variance>
0.6776117682

$$$$
[H]c1c([H])c(F)c([H])c(Oc2c([H])c([H])c(N3C(=O)C([H])([H])C4(C([H])([H])C3([H])[H])C([H])([H])C([H])([H])N(C([H])([H])c3c([H])c([H])c([H])c([H])c3S(=O)(=O)C([H])([H])[H])C([H])([H])C4([H])[H])c([H])c2[H])c1[H]


 37 41  0  0  0  0  0  0  0  0999 V2000
    7.0875   18.2656   -1.3823 N   0  0  0  0  0  0  0  0  0  0  0  0
    8.2787   17.5948   -0.9150 C   0  0  0  0  0  0  0  0  0  0  0  0
    8.9043   18.5102    0.0958 C   0  0  0  0  0  0  0  0  0  0  0  0
    9.2897   19.8124   -0.5969 C   0  0  0  0  0  0  0  0  0  0  0  0
    9.5495   20.8086    0.4799 C   0  0  0  0  0  0  0  0  0  0  0  0
   10.9546   20.6921    1.0390 C   0  0  0  0  0  0  0  0  0  0  0  0
   11.8468   20.9736   -0.0368 N   0  0  0  0  0  0  0  0  0  0  0  0
   11.6239   20.2656   -1.2751 C   0  0  0  0  0  0  0  0  0  0  0  0
   12.4900   20.3456   -2.1687 O   0  0  0  0  0  0  0  0  0  0  0  0
   10.4267   19.4725   -1.5046 C   0  0  0  0  0  0  0  0  0  0  0  0
    8.2082   20.4081   -1.4688 C   0  0  0  0  0  0  0  0  0  0  0  0
    7.4455   19.3160   -2.1946 C   0  0  0  0  0  0  0  0  0  0  0  0
   12.9696   21.8393    0.0088 C   0  0  0  0  0  0  0  0  0  0  0  0
   12.8182   23.0997    0.5493 C   0  0  0  0  0  0  0  0  0  0  0  0
   13.8905   23.9117    0.7621 C   0  0  0  0  0  0  0  0  0  0  0  0
   15.2103   23.5039    0.4389 C   0  0  0  0  0  0  0  0  0  0  0  0
   15.3433   22.2547   -0.0996 C   0  0  0  0  0  0  0  0  0  0  0  0
   14.2398   21.4220   -0.3208 C   0  0  0  0  0  0  0  0  0  0  0  0
   16.2149   24.3751    0.6840 O   0  0  0  0  0  0  0  0  0  0  0  0
   17.5307   24.4116    0.7778 C   0  0  0  0  0  0  0  0  0  0  0  0
   18.2363   24.5307    1.9599 C   0  0  0  0  0  0  0  0  0  0  0  0
   19.6247   24.5436    1.9911 C   0  0  0  0  0  0  0  0  0  0  0  0
   20.3404   24.4349    0.8289 C   0  0  0  0  0  0  0  0  0  0  0  0
   19.6807   24.3198   -0.3620 C   0  0  0  0  0  0  0  0  0  0  0  0
   20.4191   24.2168   -1.4948 F   0  0  0  0  0  0  0  0  0  0  0  0
   18.2931   24.3112   -0.3668 C   0  0  0  0  0  0  0  0  0  0  0  0
    6.0591   18.2877   -0.4046 C   0  0  0  0  0  0  0  0  0  0  0  0
    4.8794   20.0899    0.6967 C   0  0  0  0  0  0  0  0  0  0  0  0
    4.0359   21.2086    0.6681 C   0  0  0  0  0  0  0  0  0  0  0  0
    3.6011   21.7867   -0.4990 C   0  0  0  0  0  0  0  0  0  0  0  0
    4.0140   21.2427   -1.6837 C   0  0  0  0  0  0  0  0  0  0  0  0
    4.8591   20.1172   -1.6860 C   0  0  0  0  0  0  0  0  0  0  0  0
    5.2678   19.5599   -0.5314 C   0  0  0  0  0  0  0  0  0  0  0  0
    4.5024   19.8633    3.6157 C   0  0  0  0  0  0  0  0  0  0  0  0
    5.4337   19.4213    2.1805 S   0  0  0  0  0  0  0  0  0  0  0  0
    6.8492   19.9429    2.4047 O   0  0  0  0  0  0  0  0  0  0  0  0
    5.6269   17.9135    2.1179 O   0  0  0  0  0  0  0  0  0  0  0  0
 34 35  1  0  0  0
 35 36  2  0  0  0
 35 37  2  0  0  0
 35 28  1  0  0  0
 28 29  2  0  0  0
 29 30  1  0  0  0
 30 31  2  0  0  0
 31 32  1  0  0  0
 32 33  2  0  0  0
 33 27  1  0  0  0
 27  1  1  0  0  0
  1  2  1  0  0  0
  2  3  1  0  0  0
  3  4  1  0  0  0
  4  5  1  0  0  0
  5  6  1  0  0  0
  6  7  1  0  0  0
  7  8  1  0  0  0
  8  9  2  0  0  0
  8 10  1  0  0  0
  7 13  1  0  0  0
 13 14  2  0  0  0
 14 15  1  0  0  0
 15 16  2  0  0  0
 16 19  1  0  0  0
 19 20  1  0  0  0
 20 21  2  0  0  0
 21 22  1  0  0  0
 22 23  2  0  0  0
 23 24  1  0  0  0
 24 25  1  0  0  0
 24 26  2  0  0  0
 16 17  1  0  0  0
 17 18  2  0  0  0
  4 11  1  0  0  0
 11 12  1  0  0  0
 33 28  1  0  0  0
 12  1  1  0  0  0
 10  4  1  0  0  0
 18 13  1  0  0  0
 26 20  1  0  0  0
M  END
> <minimizedAffinity>
13.21780

> <CNNscore>
0.3569979072

> <CNNaffinity>
6.5289001465

> <CNN_VS>
2.3308036327

> <CNNaffinity_variance>
0.1503376216

$$$$
[H]c1c([H])c(F)c([H])c(Oc2c([H])c([H])c(N3C(=O)C([H])([H])C4(C([H])([H])C3([H])[H])C([H])([H])C([H])([H])N(C([H])([H])c3c([H])c([H])c([H])c([H])c3S(=O)(=O)C([H])([H])[H])C([H])([H])C4([H])[H])c([H])c2[H])c1[H]


 37 41  0  0  0  0  0  0  0  0999 V2000
   15.0236   24.9109   -2.3131 N   0  0  0  0  0  0  0  0  0  0  0  0
   13.7777   24.2913   -2.7019 C   0  0  0  0  0  0  0  0  0  0  0  0
   12.7342   24.8297   -1.7679 C   0  0  0  0  0  0  0  0  0  0  0  0
   13.0900   24.4128   -0.3454 C   0  0  0  0  0  0  0  0  0  0  0  0
   12.2691   25.2587    0.5658 C   0  0  0  0  0  0  0  0  0  0  0  0
   10.8703   24.7037    0.7549 C   0  0  0  0  0  0  0  0  0  0  0  0
   11.0178   23.4242    1.3663 N   0  0  0  0  0  0  0  0  0  0  0  0
   11.9574   22.5121    0.7585 C   0  0  0  0  0  0  0  0  0  0  0  0
   11.9739   21.3284    1.1505 O   0  0  0  0  0  0  0  0  0  0  0  0
   12.8766   22.9353   -0.2860 C   0  0  0  0  0  0  0  0  0  0  0  0
   14.5311   24.6539    0.0417 C   0  0  0  0  0  0  0  0  0  0  0  0
   15.4536   24.3635   -1.1270 C   0  0  0  0  0  0  0  0  0  0  0  0
   10.2875   22.9376    2.4808 C   0  0  0  0  0  0  0  0  0  0  0  0
    9.7817   23.8412    3.3925 C   0  0  0  0  0  0  0  0  0  0  0  0
    8.9440   23.4454    4.3905 C   0  0  0  0  0  0  0  0  0  0  0  0
    8.5526   22.0903    4.5420 C   0  0  0  0  0  0  0  0  0  0  0  0
    9.0654   21.2068    3.6338 C   0  0  0  0  0  0  0  0  0  0  0  0
    9.9291   21.6144    2.6101 C   0  0  0  0  0  0  0  0  0  0  0  0
    7.7177   21.7876    5.5616 O   0  0  0  0  0  0  0  0  0  0  0  0
    6.4642   21.4384    5.7816 C   0  0  0  0  0  0  0  0  0  0  0  0
    5.4731   22.2901    6.2309 C   0  0  0  0  0  0  0  0  0  0  0  0
    4.1660   21.8625    6.4242 C   0  0  0  0  0  0  0  0  0  0  0  0
    3.8220   20.5623    6.1676 C   0  0  0  0  0  0  0  0  0  0  0  0
    4.7735   19.6867    5.7262 C   0  0  0  0  0  0  0  0  0  0  0  0
    4.4005   18.4055    5.4840 F   0  0  0  0  0  0  0  0  0  0  0  0
    6.0728   20.1379    5.5426 C   0  0  0  0  0  0  0  0  0  0  0  0
   15.0753   26.2866   -2.6574 C   0  0  0  0  0  0  0  0  0  0  0  0
   16.2930   27.2188   -4.5285 C   0  0  0  0  0  0  0  0  0  0  0  0
   16.4225   27.5049   -5.8942 C   0  0  0  0  0  0  0  0  0  0  0  0
   15.5453   27.0378   -6.8417 C   0  0  0  0  0  0  0  0  0  0  0  0
   14.5009   26.2579   -6.4284 C   0  0  0  0  0  0  0  0  0  0  0  0
   14.3439   25.9562   -5.0626 C   0  0  0  0  0  0  0  0  0  0  0  0
   15.2096   26.4303   -4.1481 C   0  0  0  0  0  0  0  0  0  0  0  0
   19.0080   28.2665   -4.0332 C   0  0  0  0  0  0  0  0  0  0  0  0
   17.4370   27.7900   -3.3793 S   0  0  0  0  0  0  0  0  0  0  0  0
   17.7017   26.6464   -2.4055 O   0  0  0  0  0  0  0  0  0  0  0  0
   16.8821   28.8863   -2.4821 O   0  0  0  0  0  0  0  0  0  0  0  0
 34 35  1  0  0  0
 35 36  2  0  0  0
 35 37  2  0  0  0
 35 28  1  0  0  0
 28 29  2  0  0  0
 29 30  1  0  0  0
 30 31  2  0  0  0
 31 32  1  0  0  0
 32 33  2  0  0  0
 33 27  1  0  0  0
 27  1  1  0  0  0
  1  2  1  0  0  0
  2  3  1  0  0  0
  3  4  1  0  0  0
  4  5  1  0  0  0
  5  6  1  0  0  0
  6  7  1  0  0  0
  7  8  1  0  0  0
  8  9  2  0  0  0
  8 10  1  0  0  0
  7 13  1  0  0  0
 13 14  2  0  0  0
 14 15  1  0  0  0
 15 16  2  0  0  0
 16 19  1  0  0  0
 19 20  1  0  0  0
 20 21  2  0  0  0
 21 22  1  0  0  0
 22 23  2  0  0  0
 23 24  1  0  0  0
 24 25  1  0  0  0
 24 26  2  0  0  0
 16 17  1  0  0  0
 17 18  2  0  0  0
  4 11  1  0  0  0
 11 12  1  0  0  0
 33 28  1  0  0  0
 12  1  1  0  0  0
 10  4  1  0  0  0
 18 13  1  0  0  0
 26 20  1  0  0  0
M  END
> <minimizedAffinity>
-7.03628

> <CNNscore>
0.3481495678

> <CNNaffinity>
7.1730661392

> <CNN_VS>
2.4972999096

> <CNNaffinity_variance>
0.2963439822

$$$$
[H]c1c([H])c(F)c([H])c(Oc2c([H])c([H])c(N3C(=O)C([H])([H])C4(C([H])([H])C3([H])[H])C([H])([H])C([H])([H])N(C([H])([H])c3c([H])c([H])c([H])c([H])c3S(=O)(=O)C([H])([H])[H])C([H])([H])C4([H])[H])c([H])c2[H])c1[H]


 37 41  0  0  0  0  0  0  0  0999 V2000
   16.0607   24.2977   -3.4534 N   0  0  0  0  0  0  0  0  0  0  0  0
   16.0022   22.8582   -3.3463 C   0  0  0  0  0  0  0  0  0  0  0  0
   14.5810   22.5224   -3.0024 C   0  0  0  0  0  0  0  0  0  0  0  0
   14.2434   23.1492   -1.6544 C   0  0  0  0  0  0  0  0  0  0  0  0
   12.7592   23.1185   -1.5285 C   0  0  0  0  0  0  0  0  0  0  0  0
   12.2558   21.7778   -1.0292 C   0  0  0  0  0  0  0  0  0  0  0  0
   12.8054   21.5945    0.2734 N   0  0  0  0  0  0  0  0  0  0  0  0
   14.2262   21.8041    0.4204 C   0  0  0  0  0  0  0  0  0  0  0  0
   14.7672   21.4727    1.4940 O   0  0  0  0  0  0  0  0  0  0  0  0
   15.0328   22.3880   -0.6396 C   0  0  0  0  0  0  0  0  0  0  0  0
   14.6475   24.5988   -1.5128 C   0  0  0  0  0  0  0  0  0  0  0  0
   15.9775   24.8515   -2.1974 C   0  0  0  0  0  0  0  0  0  0  0  0
   12.1014   21.1686    1.4290 C   0  0  0  0  0  0  0  0  0  0  0  0
   12.3480   19.9082    1.9331 C   0  0  0  0  0  0  0  0  0  0  0  0
   11.8218   19.5069    3.1233 C   0  0  0  0  0  0  0  0  0  0  0  0
   10.9966   20.3609    3.8995 C   0  0  0  0  0  0  0  0  0  0  0  0
   10.7582   21.6044    3.3846 C   0  0  0  0  0  0  0  0  0  0  0  0
   11.2973   22.0147    2.1594 C   0  0  0  0  0  0  0  0  0  0  0  0
   10.5174   19.8791    5.0685 O   0  0  0  0  0  0  0  0  0  0  0  0
    9.3878   19.4697    5.6142 C   0  0  0  0  0  0  0  0  0  0  0  0
    9.2425   18.3157    6.3602 C   0  0  0  0  0  0  0  0  0  0  0  0
    8.0269   17.9511    6.9243 C   0  0  0  0  0  0  0  0  0  0  0  0
    6.9232   18.7428    6.7524 C   0  0  0  0  0  0  0  0  0  0  0  0
    7.0233   19.8903    6.0175 C   0  0  0  0  0  0  0  0  0  0  0  0
    5.9109   20.6506    5.8640 F   0  0  0  0  0  0  0  0  0  0  0  0
    8.2486   20.2318    5.4627 C   0  0  0  0  0  0  0  0  0  0  0  0
   15.4080   24.7815   -4.6170 C   0  0  0  0  0  0  0  0  0  0  0  0
   14.5876   27.0523   -4.4644 C   0  0  0  0  0  0  0  0  0  0  0  0
   13.6555   27.9976   -4.0157 C   0  0  0  0  0  0  0  0  0  0  0  0
   12.4924   27.6528   -3.3723 C   0  0  0  0  0  0  0  0  0  0  0  0
   12.2371   26.3258   -3.1638 C   0  0  0  0  0  0  0  0  0  0  0  0
   13.1564   25.3539   -3.6010 C   0  0  0  0  0  0  0  0  0  0  0  0
   14.2948   25.7123   -4.2225 C   0  0  0  0  0  0  0  0  0  0  0  0
   17.4888   27.5811   -4.3326 C   0  0  0  0  0  0  0  0  0  0  0  0
   16.0126   27.5245   -5.3023 S   0  0  0  0  0  0  0  0  0  0  0  0
   15.7790   28.9402   -5.8192 O   0  0  0  0  0  0  0  0  0  0  0  0
   16.2458   26.7257   -6.5760 O   0  0  0  0  0  0  0  0  0  0  0  0
 34 35  1  0  0  0
 35 36  2  0  0  0
 35 37  2  0  0  0
 35 28  1  0  0  0
 28 29  2  0  0  0
 29 30  1  0  0  0
 30 31  2  0  0  0
 31 32  1  0  0  0
 32 33  2  0  0  0
 33 27  1  0  0  0
 27  1  1  0  0  0
  1  2  1  0  0  0
  2  3  1  0  0  0
  3  4  1  0  0  0
  4  5  1  0  0  0
  5  6  1  0  0  0
  6  7  1  0  0  0
  7  8  1  0  0  0
  8  9  2  0  0  0
  8 10  1  0  0  0
  7 13  1  0  0  0
 13 14  2  0  0  0
 14 15  1  0  0  0
 15 16  2  0  0  0
 16 19  1  0  0  0
 19 20  1  0  0  0
 20 21  2  0  0  0
 21 22  1  0  0  0
 22 23  2  0  0  0
 23 24  1  0  0  0
 24 25  1  0  0  0
 24 26  2  0  0  0
 16 17  1  0  0  0
 17 18  2  0  0  0
  4 11  1  0  0  0
 11 12  1  0  0  0
 33 28  1  0  0  0
 12  1  1  0  0  0
 10  4  1  0  0  0
 18 13  1  0  0  0
 26 20  1  0  0  0
M  END
> <minimizedAffinity>
-4.28856

> <CNNscore>
0.3458685875

> <CNNaffinity>
7.4412546158

> <CNN_VS>
2.5736961365

> <CNNaffinity_variance>
0.3603893816

$$$$
[H]c1c([H])c(F)c([H])c(Oc2c([H])c([H])c(N3C(=O)C([H])([H])C4(C([H])([H])C3([H])[H])C([H])([H])C([H])([H])N(C([H])([H])c3c([H])c([H])c([H])c([H])c3S(=O)(=O)C([H])([H])[H])C([H])([H])C4([H])[H])c([H])c2[H])c1[H]


 37 41  0  0  0  0  0  0  0  0999 V2000
   15.2494   24.2141   -2.2876 N   0  0  0  0  0  0  0  0  0  0  0  0
   14.4692   23.0021   -2.3860 C   0  0  0  0  0  0  0  0  0  0  0  0
   13.0523   23.3918   -2.0830 C   0  0  0  0  0  0  0  0  0  0  0  0
   12.9873   23.9270   -0.6570 C   0  0  0  0  0  0  0  0  0  0  0  0
   11.6838   24.6364   -0.5260 C   0  0  0  0  0  0  0  0  0  0  0  0
   10.5436   23.6845   -0.2189 C   0  0  0  0  0  0  0  0  0  0  0  0
   10.8399   23.0853    1.0404 N   0  0  0  0  0  0  0  0  0  0  0  0
   12.1607   22.5261    1.2053 C   0  0  0  0  0  0  0  0  0  0  0  0
   12.3901   21.8339    2.2168 O   0  0  0  0  0  0  0  0  0  0  0  0
   13.2190   22.7498    0.2333 C   0  0  0  0  0  0  0  0  0  0  0  0
   14.0542   24.9411   -0.3137 C   0  0  0  0  0  0  0  0  0  0  0  0
   15.3730   24.5699   -0.9650 C   0  0  0  0  0  0  0  0  0  0  0  0
    9.9430   22.9324    2.1287 C   0  0  0  0  0  0  0  0  0  0  0  0
    9.1980   21.7747    2.2211 C   0  0  0  0  0  0  0  0  0  0  0  0
    8.4420   21.5060    3.3214 C   0  0  0  0  0  0  0  0  0  0  0  0
    8.3823   22.3998    4.4215 C   0  0  0  0  0  0  0  0  0  0  0  0
    9.1222   23.5439    4.3130 C   0  0  0  0  0  0  0  0  0  0  0  0
    9.8967   23.8205    3.1800 C   0  0  0  0  0  0  0  0  0  0  0  0
    7.6054   22.0519    5.4722 O   0  0  0  0  0  0  0  0  0  0  0  0
    6.8185   21.0727    5.8764 C   0  0  0  0  0  0  0  0  0  0  0  0
    5.4446   21.1600    5.9952 C   0  0  0  0  0  0  0  0  0  0  0  0
    4.6709   20.0835    6.4091 C   0  0  0  0  0  0  0  0  0  0  0  0
    5.2629   18.8870    6.7135 C   0  0  0  0  0  0  0  0  0  0  0  0
    6.6196   18.7604    6.6136 C   0  0  0  0  0  0  0  0  0  0  0  0
    7.1748   17.5629    6.9250 F   0  0  0  0  0  0  0  0  0  0  0  0
    7.3707   19.8511    6.1994 C   0  0  0  0  0  0  0  0  0  0  0  0
   15.0060   25.1043   -3.3657 C   0  0  0  0  0  0  0  0  0  0  0  0
   16.0629   26.9492   -4.5200 C   0  0  0  0  0  0  0  0  0  0  0  0
   17.0525   27.9365   -4.6172 C   0  0  0  0  0  0  0  0  0  0  0  0
   17.9354   28.2118   -3.6022 C   0  0  0  0  0  0  0  0  0  0  0  0
   17.8391   27.4875   -2.4464 C   0  0  0  0  0  0  0  0  0  0  0  0
   16.8567   26.4874   -2.3211 C   0  0  0  0  0  0  0  0  0  0  0  0
   16.0059   26.2269   -3.3304 C   0  0  0  0  0  0  0  0  0  0  0  0
   15.2080   25.1789   -6.7220 C   0  0  0  0  0  0  0  0  0  0  0  0
   14.9506   26.6639   -5.7995 S   0  0  0  0  0  0  0  0  0  0  0  0
   15.0982   27.8179   -6.7857 O   0  0  0  0  0  0  0  0  0  0  0  0
   13.4981   26.7691   -5.3593 O   0  0  0  0  0  0  0  0  0  0  0  0
 34 35  1  0  0  0
 35 36  2  0  0  0
 35 37  2  0  0  0
 35 28  1  0  0  0
 28 29  2  0  0  0
 29 30  1  0  0  0
 30 31  2  0  0  0
 31 32  1  0  0  0
 32 33  2  0  0  0
 33 27  1  0  0  0
 27  1  1  0  0  0
  1  2  1  0  0  0
  2  3  1  0  0  0
  3  4  1  0  0  0
  4  5  1  0  0  0
  5  6  1  0  0  0
  6  7  1  0  0  0
  7  8  1  0  0  0
  8  9  2  0  0  0
  8 10  1  0  0  0
  7 13  1  0  0  0
 13 14  2  0  0  0
 14 15  1  0  0  0
 15 16  2  0  0  0
 16 19  1  0  0  0
 19 20  1  0  0  0
 20 21  2  0  0  0
 21 22  1  0  0  0
 22 23  2  0  0  0
 23 24  1  0  0  0
 24 25  1  0  0  0
 24 26  2  0  0  0
 16 17  1  0  0  0
 17 18  2  0  0  0
  4 11  1  0  0  0
 11 12  1  0  0  0
 33 28  1  0  0  0
 12  1  1  0  0  0
 10  4  1  0  0  0
 18 13  1  0  0  0
 26 20  1  0  0  0
M  END
> <minimizedAffinity>
-7.00819

> <CNNscore>
0.3305279911

> <CNNaffinity>
7.3858518600

> <CNN_VS>
2.4412307739

> <CNNaffinity_variance>
0.2262927592

$$$$
[H]OC(=O)c1c([H])c([H])c(-c2c([H])c([H])c(C([H])([H])[C@]([H])(C(=O)N3C([H])([H])C([H])([H])C([H])([H])[C@@]3([H])C(=O)N([H])C([H])([H])C(=O)N([H])C(C([H])([H])[H])(C([H])([H])[H])C([H])([H])O[H])N(C(=O)C([H])([H])C([H])([H])C(=O)O[H])C3([H])C([H])([H])C([H])([H])C([H])([H])C([H])([H])C3([H])[H])c([H])c2[H])c([H])c1[H]


 55 58  0  0  0  0  0  0  0  0999 V2000
   11.1904   24.6917    1.2291 C   0  0  0  0  0  0  0  0  0  0  0  0
   15.1045   25.4093    1.0336 C   0  0  0  0  0  0  0  0  0  0  0  0
   15.4433   26.1199    2.3004 C   0  0  0  0  0  0  0  0  0  0  0  0
   14.4609   27.3091    2.1910 C   0  0  0  0  0  0  0  0  0  0  0  0
   13.4634   26.9033    1.0681 C   0  0  0  0  0  0  0  0  0  0  0  0
   13.6627   25.4585    1.1132 N   0  0  0  0  0  0  0  0  0  0  0  0
   12.6432   24.5193    1.3218 C   0  0  0  0  0  0  0  0  0  0  0  0
   13.1085   23.3436    1.6388 O   0  0  0  0  0  0  0  0  0  0  0  0
   15.6263   23.0235    1.4284 N   0  0  0  0  0  0  0  0  0  0  0  0
   15.7788   24.2054    0.6762 C   0  0  0  0  0  0  0  0  0  0  0  0
   16.5259   24.1653   -0.3290 O   0  0  0  0  0  0  0  0  0  0  0  0
   14.9981   22.9792    2.2843 H   0  0  0  0  0  0  0  0  0  0  0  0
   16.2980   21.8117    1.0657 C   0  0  0  0  0  0  0  0  0  0  0  0
   14.2816   21.3314   -0.3049 N   0  0  0  0  0  0  0  0  0  0  0  0
   15.5232   20.8744    0.2348 C   0  0  0  0  0  0  0  0  0  0  0  0
   15.9191   19.7237   -0.0015 O   0  0  0  0  0  0  0  0  0  0  0  0
   13.9917   22.3290   -0.0715 H   0  0  0  0  0  0  0  0  0  0  0  0
   13.5386   20.8148   -2.6050 C   0  0  0  0  0  0  0  0  0  0  0  0
   13.4237   20.5407   -1.1260 C   0  0  0  0  0  0  0  0  0  0  0  0
   13.6967   19.0689   -0.9161 C   0  0  0  0  0  0  0  0  0  0  0  0
   11.9515   20.7379   -0.7707 C   0  0  0  0  0  0  0  0  0  0  0  0
   11.2459   21.2868   -1.8337 O   0  0  0  0  0  0  0  0  0  0  0  0
   11.0624   20.5673   -2.4822 H   0  0  0  0  0  0  0  0  0  0  0  0
   10.4077   23.9926    2.2080 N   0  0  0  0  0  0  0  0  0  0  0  0
    9.6292   24.7293    3.1449 C   0  0  0  0  0  0  0  0  0  0  0  0
    8.9935   24.1590    4.0812 O   0  0  0  0  0  0  0  0  0  0  0  0
   10.4193   22.5571    2.3808 C   0  0  0  0  0  0  0  0  0  0  0  0
    9.1229   21.9202    2.7854 C   0  0  0  0  0  0  0  0  0  0  0  0
    9.3158   20.4050    2.6084 C   0  0  0  0  0  0  0  0  0  0  0  0
   10.2419   19.9777    3.7075 C   0  0  0  0  0  0  0  0  0  0  0  0
   11.0159   21.0922    4.3207 C   0  0  0  0  0  0  0  0  0  0  0  0
   11.5068   22.1533    3.3924 C   0  0  0  0  0  0  0  0  0  0  0  0
    9.4776   26.2077    3.1139 C   0  0  0  0  0  0  0  0  0  0  0  0
    8.5656   26.7275    4.2058 C   0  0  0  0  0  0  0  0  0  0  0  0
    7.3332   27.3650    3.7034 C   0  0  0  0  0  0  0  0  0  0  0  0
    7.3237   28.7422    3.4241 O   0  0  0  0  0  0  0  0  0  0  0  0
    6.2935   26.6831    3.5236 O   0  0  0  0  0  0  0  0  0  0  0  0
    7.5451   28.9858    2.4451 H   0  0  0  0  0  0  0  0  0  0  0  0
   10.6599   24.6931   -0.1784 C   0  0  0  0  0  0  0  0  0  0  0  0
   11.4831   24.9506   -1.3285 C   0  0  0  0  0  0  0  0  0  0  0  0
   12.5084   24.0906   -1.6867 C   0  0  0  0  0  0  0  0  0  0  0  0
   13.3356   24.3200   -2.7585 C   0  0  0  0  0  0  0  0  0  0  0  0
   13.1846   25.4354   -3.5437 C   0  0  0  0  0  0  0  0  0  0  0  0
   12.1764   26.3088   -3.2148 C   0  0  0  0  0  0  0  0  0  0  0  0
   11.3610   26.0606   -2.1398 C   0  0  0  0  0  0  0  0  0  0  0  0
   14.0793   25.6935   -4.6931 C   0  0  0  0  0  0  0  0  0  0  0  0
   15.0186   24.7421   -5.0900 C   0  0  0  0  0  0  0  0  0  0  0  0
   15.8613   24.9259   -6.1436 C   0  0  0  0  0  0  0  0  0  0  0  0
   15.8001   26.1044   -6.8683 C   0  0  0  0  0  0  0  0  0  0  0  0
   14.8875   27.0423   -6.4919 C   0  0  0  0  0  0  0  0  0  0  0  0
   14.0267   26.8656   -5.4235 C   0  0  0  0  0  0  0  0  0  0  0  0
   16.7147   26.2843   -8.0000 C   0  0  0  0  0  0  0  0  0  0  0  0
   17.1694   25.2082   -8.7212 O   0  0  0  0  0  0  0  0  0  0  0  0
   17.0986   27.4409   -8.3280 O   0  0  0  0  0  0  0  0  0  0  0  0
   17.8403   24.5434   -8.3342 H   0  0  0  0  0  0  0  0  0  0  0  0
 18 19  1  0  0  0
 19 20  1  0  0  0
 19 21  1  0  0  0
 21 22  1  0  0  0
 19 14  1  0  0  0
 14 15  1  0  0  0
 15 16  2  0  0  0
 15 13  1  0  0  0
 13  9  1  0  0  0
  9 10  1  0  0  0
 10 11  2  0  0  0
 10  2  1  0  0  0
  2  3  1  0  0  0
  3  4  1  0  0  0
  4  5  1  0  0  0
  5  6  1  0  0  0
  6  7  1  0  0  0
  7  8  2  0  0  0
  7  1  1  0  0  0
  1 39  1  0  0  0
 39 40  1  0  0  0
 40 41  2  0  0  0
 41 42  1  0  0  0
 42 43  2  0  0  0
 43 44  1  0  0  0
 44 45  2  0  0  0
 43 46  1  0  0  0
 46 47  2  0  0  0
 47 48  1  0  0  0
 48 49  2  0  0  0
 49 50  1  0  0  0
 50 51  2  0  0  0
 49 52  1  0  0  0
 52 53  1  0  0  0
 52 54  2  0  0  0
  1 24  1  0  0  0
 24 27  1  0  0  0
 27 28  1  0  0  0
 28 29  1  0  0  0
 29 30  1  0  0  0
 30 31  1  0  0  0
 31 32  1  0  0  0
 24 25  1  0  0  0
 25 26  2  0  0  0
 25 33  1  0  0  0
 33 34  1  0  0  0
 34 35  1  0  0  0
 35 36  1  0  0  0
 35 37  2  0  0  0
  6  2  1  0  0  0
 45 40  1  0  0  0
 51 46  1  0  0  0
 32 27  1  0  0  0
 22 23  1  0  0  0
 14 17  1  0  0  0
  9 12  1  0  0  0
 53 55  1  0  0  0
 36 38  1  0  0  0
M  END
> <minimizedAffinity>
8.86849

> <CNNscore>
0.6332214475

> <CNNaffinity>
8.1451206207

> <CNN_VS>
5.1576652527

> <CNNaffinity_variance>
0.7589672804

$$$$
[H]OC(=O)c1c([H])c([H])c(-c2c([H])c([H])c(C([H])([H])[C@]([H])(C(=O)N3C([H])([H])C([H])([H])C([H])([H])[C@@]3([H])C(=O)N([H])C([H])([H])C(=O)N([H])C(C([H])([H])[H])(C([H])([H])[H])C([H])([H])O[H])N(C(=O)C([H])([H])C([H])([H])C(=O)O[H])C3([H])C([H])([H])C([H])([H])C([H])([H])C([H])([H])C3([H])[H])c([H])c2[H])c([H])c1[H]


 55 58  0  0  0  0  0  0  0  0999 V2000
   13.5371   26.2184   -2.8782 C   0  0  0  0  0  0  0  0  0  0  0  0
   15.1763   23.3797   -5.1426 C   0  0  0  0  0  0  0  0  0  0  0  0
   16.5141   23.9077   -5.5375 C   0  0  0  0  0  0  0  0  0  0  0  0
   16.0740   25.2317   -6.2042 C   0  0  0  0  0  0  0  0  0  0  0  0
   14.5940   25.4286   -5.7665 C   0  0  0  0  0  0  0  0  0  0  0  0
   14.6050   24.5810   -4.5788 N   0  0  0  0  0  0  0  0  0  0  0  0
   14.2566   25.0095   -3.2904 C   0  0  0  0  0  0  0  0  0  0  0  0
   14.6508   24.1781   -2.3671 O   0  0  0  0  0  0  0  0  0  0  0  0
   14.0887   21.9117   -3.4745 N   0  0  0  0  0  0  0  0  0  0  0  0
   15.0616   22.1276   -4.4710 C   0  0  0  0  0  0  0  0  0  0  0  0
   15.8254   21.1763   -4.7570 O   0  0  0  0  0  0  0  0  0  0  0  0
   13.3980   22.6675   -3.1903 H   0  0  0  0  0  0  0  0  0  0  0  0
   13.9684   20.6517   -2.8044 C   0  0  0  0  0  0  0  0  0  0  0  0
   14.8014   21.4755   -0.6130 N   0  0  0  0  0  0  0  0  0  0  0  0
   13.8330   20.7161   -1.3392 C   0  0  0  0  0  0  0  0  0  0  0  0
   12.9154   20.1391   -0.7378 O   0  0  0  0  0  0  0  0  0  0  0  0
   15.5661   21.9516   -1.1806 H   0  0  0  0  0  0  0  0  0  0  0  0
   16.1313   21.3738    1.4680 C   0  0  0  0  0  0  0  0  0  0  0  0
   14.8006   21.6304    0.8053 C   0  0  0  0  0  0  0  0  0  0  0  0
   14.3672   23.0274    1.1863 C   0  0  0  0  0  0  0  0  0  0  0  0
   13.8017   20.6939    1.4818 C   0  0  0  0  0  0  0  0  0  0  0  0
   12.8470   21.4066    2.1958 O   0  0  0  0  0  0  0  0  0  0  0  0
   12.1857   21.7579    1.5546 H   0  0  0  0  0  0  0  0  0  0  0  0
   14.0369   27.4591   -3.3982 N   0  0  0  0  0  0  0  0  0  0  0  0
   13.1618   28.3292   -4.1080 C   0  0  0  0  0  0  0  0  0  0  0  0
   13.5780   29.3911   -4.6606 O   0  0  0  0  0  0  0  0  0  0  0  0
   15.4233   27.8651   -3.3351 C   0  0  0  0  0  0  0  0  0  0  0  0
   16.1608   27.9365   -4.6394 C   0  0  0  0  0  0  0  0  0  0  0  0
   17.4825   28.6650   -4.3453 C   0  0  0  0  0  0  0  0  0  0  0  0
   18.3162   27.7008   -3.5556 C   0  0  0  0  0  0  0  0  0  0  0  0
   17.5410   26.5934   -2.9312 C   0  0  0  0  0  0  0  0  0  0  0  0
   16.2016   26.9476   -2.3752 C   0  0  0  0  0  0  0  0  0  0  0  0
   11.7024   28.0915   -4.2600 C   0  0  0  0  0  0  0  0  0  0  0  0
   10.8848   29.3606   -4.1368 C   0  0  0  0  0  0  0  0  0  0  0  0
    9.7105   29.4052   -5.0294 C   0  0  0  0  0  0  0  0  0  0  0  0
    8.8791   30.5380   -5.0329 O   0  0  0  0  0  0  0  0  0  0  0  0
    9.4511   28.4365   -5.7862 O   0  0  0  0  0  0  0  0  0  0  0  0
    9.1239   31.2513   -5.7388 H   0  0  0  0  0  0  0  0  0  0  0  0
   13.1105   26.2183   -1.4357 C   0  0  0  0  0  0  0  0  0  0  0  0
   12.1191   25.3203   -0.9091 C   0  0  0  0  0  0  0  0  0  0  0  0
   11.2656   24.6198   -1.7458 C   0  0  0  0  0  0  0  0  0  0  0  0
   10.2857   23.7788   -1.2789 C   0  0  0  0  0  0  0  0  0  0  0  0
   10.0994   23.5868    0.0671 C   0  0  0  0  0  0  0  0  0  0  0  0
   10.9299   24.2676    0.9241 C   0  0  0  0  0  0  0  0  0  0  0  0
   11.9027   25.1030    0.4366 C   0  0  0  0  0  0  0  0  0  0  0  0
    9.0386   22.6905    0.5765 C   0  0  0  0  0  0  0  0  0  0  0  0
    8.4085   22.9547    1.7923 C   0  0  0  0  0  0  0  0  0  0  0  0
    7.4227   22.1668    2.3038 C   0  0  0  0  0  0  0  0  0  0  0  0
    7.0115   21.0466    1.6011 C   0  0  0  0  0  0  0  0  0  0  0  0
    7.6181   20.7765    0.4123 C   0  0  0  0  0  0  0  0  0  0  0  0
    8.6201   21.5703   -0.1164 C   0  0  0  0  0  0  0  0  0  0  0  0
    5.9483   20.2105    2.1670 C   0  0  0  0  0  0  0  0  0  0  0  0
    4.6861   20.2082    1.6271 O   0  0  0  0  0  0  0  0  0  0  0  0
    6.1825   19.4761    3.1663 O   0  0  0  0  0  0  0  0  0  0  0  0
    4.0565   21.0060    1.7221 H   0  0  0  0  0  0  0  0  0  0  0  0
 18 19  1  0  0  0
 19 20  1  0  0  0
 19 21  1  0  0  0
 21 22  1  0  0  0
 19 14  1  0  0  0
 14 15  1  0  0  0
 15 16  2  0  0  0
 15 13  1  0  0  0
 13  9  1  0  0  0
  9 10  1  0  0  0
 10 11  2  0  0  0
 10  2  1  0  0  0
  2  3  1  0  0  0
  3  4  1  0  0  0
  4  5  1  0  0  0
  5  6  1  0  0  0
  6  7  1  0  0  0
  7  8  2  0  0  0
  7  1  1  0  0  0
  1 39  1  0  0  0
 39 40  1  0  0  0
 40 41  2  0  0  0
 41 42  1  0  0  0
 42 43  2  0  0  0
 43 44  1  0  0  0
 44 45  2  0  0  0
 43 46  1  0  0  0
 46 47  2  0  0  0
 47 48  1  0  0  0
 48 49  2  0  0  0
 49 50  1  0  0  0
 50 51  2  0  0  0
 49 52  1  0  0  0
 52 53  1  0  0  0
 52 54  2  0  0  0
  1 24  1  0  0  0
 24 27  1  0  0  0
 27 28  1  0  0  0
 28 29  1  0  0  0
 29 30  1  0  0  0
 30 31  1  0  0  0
 31 32  1  0  0  0
 24 25  1  0  0  0
 25 26  2  0  0  0
 25 33  1  0  0  0
 33 34  1  0  0  0
 34 35  1  0  0  0
 35 36  1  0  0  0
 35 37  2  0  0  0
  6  2  1  0  0  0
 45 40  1  0  0  0
 51 46  1  0  0  0
 32 27  1  0  0  0
 22 23  1  0  0  0
 14 17  1  0  0  0
  9 12  1  0  0  0
 53 55  1  0  0  0
 36 38  1  0  0  0
M  END
> <minimizedAffinity>
10.08266

> <CNNscore>
0.5519106388

> <CNNaffinity>
7.7428331375

> <CNN_VS>
4.2733521461

> <CNNaffinity_variance>
0.4578343332

$$$$
[H]OC(=O)c1c([H])c([H])c(-c2c([H])c([H])c(C([H])([H])[C@]([H])(C(=O)N3C([H])([H])C([H])([H])C([H])([H])[C@@]3([H])C(=O)N([H])C([H])([H])C(=O)N([H])C(C([H])([H])[H])(C([H])([H])[H])C([H])([H])O[H])N(C(=O)C([H])([H])C([H])([H])C(=O)O[H])C3([H])C([H])([H])C([H])([H])C([H])([H])C([H])([H])C3([H])[H])c([H])c2[H])c([H])c1[H]


 55 58  0  0  0  0  0  0  0  0999 V2000
   14.2206   25.4555   -1.6933 C   0  0  0  0  0  0  0  0  0  0  0  0
   15.5237   28.4753   -3.9419 C   0  0  0  0  0  0  0  0  0  0  0  0
   16.2350   27.8403   -5.0887 C   0  0  0  0  0  0  0  0  0  0  0  0
   17.2662   26.9942   -4.3065 C   0  0  0  0  0  0  0  0  0  0  0  0
   16.7524   26.9928   -2.8379 C   0  0  0  0  0  0  0  0  0  0  0  0
   15.3532   27.3151   -3.0978 N   0  0  0  0  0  0  0  0  0  0  0  0
   14.2652   26.5326   -2.6867 C   0  0  0  0  0  0  0  0  0  0  0  0
   13.1630   26.8506   -3.3056 O   0  0  0  0  0  0  0  0  0  0  0  0
   13.2423   29.2926   -3.4439 N   0  0  0  0  0  0  0  0  0  0  0  0
   14.4471   29.3813   -4.1698 C   0  0  0  0  0  0  0  0  0  0  0  0
   14.5479   30.2921   -5.0244 O   0  0  0  0  0  0  0  0  0  0  0  0
   13.0911   28.5551   -2.6939 H   0  0  0  0  0  0  0  0  0  0  0  0
   12.1630   30.2070   -3.6674 C   0  0  0  0  0  0  0  0  0  0  0  0
    9.8141   30.4777   -4.4319 N   0  0  0  0  0  0  0  0  0  0  0  0
   10.9630   29.6377   -4.3040 C   0  0  0  0  0  0  0  0  0  0  0  0
   10.9317   28.4715   -4.7230 O   0  0  0  0  0  0  0  0  0  0  0  0
    9.8978   31.4705   -4.0567 H   0  0  0  0  0  0  0  0  0  0  0  0
    8.0753   30.9793   -6.1154 C   0  0  0  0  0  0  0  0  0  0  0  0
    8.5828   30.0685   -5.0252 C   0  0  0  0  0  0  0  0  0  0  0  0
    8.7130   28.6836   -5.6166 C   0  0  0  0  0  0  0  0  0  0  0  0
    7.4581   29.9695   -3.9967 C   0  0  0  0  0  0  0  0  0  0  0  0
    6.5368   28.9922   -4.3505 O   0  0  0  0  0  0  0  0  0  0  0  0
    6.9186   28.1139   -4.1167 H   0  0  0  0  0  0  0  0  0  0  0  0
   14.5027   24.1353   -2.1802 N   0  0  0  0  0  0  0  0  0  0  0  0
   14.6995   23.0705   -1.2560 C   0  0  0  0  0  0  0  0  0  0  0  0
   15.0375   21.9095   -1.6355 O   0  0  0  0  0  0  0  0  0  0  0  0
   14.6989   23.8102   -3.5754 C   0  0  0  0  0  0  0  0  0  0  0  0
   16.1106   23.5508   -4.0110 C   0  0  0  0  0  0  0  0  0  0  0  0
   16.0198   22.9448   -5.4213 C   0  0  0  0  0  0  0  0  0  0  0  0
   15.6045   24.0671   -6.3247 C   0  0  0  0  0  0  0  0  0  0  0  0
   14.9986   25.2282   -5.6161 C   0  0  0  0  0  0  0  0  0  0  0  0
   14.1000   24.9131   -4.4664 C   0  0  0  0  0  0  0  0  0  0  0  0
   14.5216   23.2066    0.2135 C   0  0  0  0  0  0  0  0  0  0  0  0
   14.5834   21.8779    0.9380 C   0  0  0  0  0  0  0  0  0  0  0  0
   13.2602   21.3000    1.2426 C   0  0  0  0  0  0  0  0  0  0  0  0
   12.7078   21.4584    2.5250 O   0  0  0  0  0  0  0  0  0  0  0  0
   12.6252   20.6684    0.3617 O   0  0  0  0  0  0  0  0  0  0  0  0
   12.0906   22.2799    2.6309 H   0  0  0  0  0  0  0  0  0  0  0  0
   13.0961   25.5795   -0.7020 C   0  0  0  0  0  0  0  0  0  0  0  0
   12.0583   24.5943   -0.5631 C   0  0  0  0  0  0  0  0  0  0  0  0
   11.6659   23.8066   -1.6329 C   0  0  0  0  0  0  0  0  0  0  0  0
   10.6573   22.8787   -1.5470 C   0  0  0  0  0  0  0  0  0  0  0  0
    9.9740   22.6821   -0.3732 C   0  0  0  0  0  0  0  0  0  0  0  0
   10.3390   23.4482    0.7072 C   0  0  0  0  0  0  0  0  0  0  0  0
   11.3497   24.3696    0.5999 C   0  0  0  0  0  0  0  0  0  0  0  0
    8.8793   21.6918   -0.2773 C   0  0  0  0  0  0  0  0  0  0  0  0
    8.9128   20.5203   -1.0333 C   0  0  0  0  0  0  0  0  0  0  0  0
    7.9357   19.5736   -0.9784 C   0  0  0  0  0  0  0  0  0  0  0  0
    6.8496   19.7623   -0.1403 C   0  0  0  0  0  0  0  0  0  0  0  0
    6.8038   20.9018    0.6038 C   0  0  0  0  0  0  0  0  0  0  0  0
    7.7910   21.8696    0.5558 C   0  0  0  0  0  0  0  0  0  0  0  0
    5.8076   18.7318   -0.0938 C   0  0  0  0  0  0  0  0  0  0  0  0
    5.9535   17.5461   -0.7701 O   0  0  0  0  0  0  0  0  0  0  0  0
    4.7545   18.9240    0.5747 O   0  0  0  0  0  0  0  0  0  0  0  0
    5.9041   17.4956   -1.7884 H   0  0  0  0  0  0  0  0  0  0  0  0
 18 19  1  0  0  0
 19 20  1  0  0  0
 19 21  1  0  0  0
 21 22  1  0  0  0
 19 14  1  0  0  0
 14 15  1  0  0  0
 15 16  2  0  0  0
 15 13  1  0  0  0
 13  9  1  0  0  0
  9 10  1  0  0  0
 10 11  2  0  0  0
 10  2  1  0  0  0
  2  3  1  0  0  0
  3  4  1  0  0  0
  4  5  1  0  0  0
  5  6  1  0  0  0
  6  7  1  0  0  0
  7  8  2  0  0  0
  7  1  1  0  0  0
  1 39  1  0  0  0
 39 40  1  0  0  0
 40 41  2  0  0  0
 41 42  1  0  0  0
 42 43  2  0  0  0
 43 44  1  0  0  0
 44 45  2  0  0  0
 43 46  1  0  0  0
 46 47  2  0  0  0
 47 48  1  0  0  0
 48 49  2  0  0  0
 49 50  1  0  0  0
 50 51  2  0  0  0
 49 52  1  0  0  0
 52 53  1  0  0  0
 52 54  2  0  0  0
  1 24  1  0  0  0
 24 27  1  0  0  0
 27 28  1  0  0  0
 28 29  1  0  0  0
 29 30  1  0  0  0
 30 31  1  0  0  0
 31 32  1  0  0  0
 24 25  1  0  0  0
 25 26  2  0  0  0
 25 33  1  0  0  0
 33 34  1  0  0  0
 34 35  1  0  0  0
 35 36  1  0  0  0
 35 37  2  0  0  0
  6  2  1  0  0  0
 45 40  1  0  0  0
 51 46  1  0  0  0
 32 27  1  0  0  0
 22 23  1  0  0  0
 14 17  1  0  0  0
  9 12  1  0  0  0
 53 55  1  0  0  0
 36 38  1  0  0  0
M  END
> <minimizedAffinity>
10.66582

> <CNNscore>
0.5441817045

> <CNNaffinity>
7.9255499840

> <CNN_VS>
4.3129391670

> <CNNaffinity_variance>
0.4003129005

$$$$
[H]OC(=O)c1c([H])c([H])c(-c2c([H])c([H])c(C([H])([H])[C@]([H])(C(=O)N3C([H])([H])C([H])([H])C([H])([H])[C@@]3([H])C(=O)N([H])C([H])([H])C(=O)N([H])C(C([H])([H])[H])(C([H])([H])[H])C([H])([H])O[H])N(C(=O)C([H])([H])C([H])([H])C(=O)O[H])C3([H])C([H])([H])C([H])([H])C([H])([H])C([H])([H])C3([H])[H])c([H])c2[H])c([H])c1[H]


 55 58  0  0  0  0  0  0  0  0999 V2000
   11.1672   24.5650    1.1640 C   0  0  0  0  0  0  0  0  0  0  0  0
   14.4652   26.7637    1.5666 C   0  0  0  0  0  0  0  0  0  0  0  0
   14.5297   27.1246    3.0122 C   0  0  0  0  0  0  0  0  0  0  0  0
   13.1526   27.8122    3.1604 C   0  0  0  0  0  0  0  0  0  0  0  0
   12.3670   27.4173    1.8768 C   0  0  0  0  0  0  0  0  0  0  0  0
   13.1259   26.2241    1.5171 N   0  0  0  0  0  0  0  0  0  0  0  0
   12.5707   24.9488    1.3425 C   0  0  0  0  0  0  0  0  0  0  0  0
   13.4743   24.0093    1.3458 O   0  0  0  0  0  0  0  0  0  0  0  0
   15.4167   25.4912   -0.3298 N   0  0  0  0  0  0  0  0  0  0  0  0
   15.5523   26.0871    0.9401 C   0  0  0  0  0  0  0  0  0  0  0  0
   16.6682   26.0102    1.5049 O   0  0  0  0  0  0  0  0  0  0  0  0
   14.5047   25.5293   -0.8739 H   0  0  0  0  0  0  0  0  0  0  0  0
   16.5105   24.8175   -0.9627 C   0  0  0  0  0  0  0  0  0  0  0  0
   16.7561   26.8981   -2.2991 N   0  0  0  0  0  0  0  0  0  0  0  0
   17.1635   25.5492   -2.0617 C   0  0  0  0  0  0  0  0  0  0  0  0
   18.0406   25.0301   -2.7672 O   0  0  0  0  0  0  0  0  0  0  0  0
   16.0006   27.2936   -1.6617 H   0  0  0  0  0  0  0  0  0  0  0  0
   16.9151   27.3316   -4.7273 C   0  0  0  0  0  0  0  0  0  0  0  0
   17.2965   27.7312   -3.3236 C   0  0  0  0  0  0  0  0  0  0  0  0
   16.8603   29.1649   -3.1268 C   0  0  0  0  0  0  0  0  0  0  0  0
   18.8232   27.7604   -3.2903 C   0  0  0  0  0  0  0  0  0  0  0  0
   19.3203   28.8719   -3.9585 O   0  0  0  0  0  0  0  0  0  0  0  0
   19.2256   29.6528   -3.3643 H   0  0  0  0  0  0  0  0  0  0  0  0
   10.6312   23.6593    2.1397 N   0  0  0  0  0  0  0  0  0  0  0  0
    9.8809   24.1688    3.2370 C   0  0  0  0  0  0  0  0  0  0  0  0
    9.4643   23.4174    4.1686 O   0  0  0  0  0  0  0  0  0  0  0  0
   10.8781   22.2345    2.1456 C   0  0  0  0  0  0  0  0  0  0  0  0
   12.2915   21.7982    1.8968 C   0  0  0  0  0  0  0  0  0  0  0  0
   12.3468   20.3025    2.2489 C   0  0  0  0  0  0  0  0  0  0  0  0
   11.5950   19.5962    1.1606 C   0  0  0  0  0  0  0  0  0  0  0  0
   10.6919   20.4787    0.3715 C   0  0  0  0  0  0  0  0  0  0  0  0
    9.9569   21.5323    1.1320 C   0  0  0  0  0  0  0  0  0  0  0  0
    9.5089   25.5996    3.3920 C   0  0  0  0  0  0  0  0  0  0  0  0
    8.0975   25.8930    2.9273 C   0  0  0  0  0  0  0  0  0  0  0  0
    7.0837   24.9694    3.4722 C   0  0  0  0  0  0  0  0  0  0  0  0
    6.9314   23.6903    2.9107 O   0  0  0  0  0  0  0  0  0  0  0  0
    6.3573   25.3204    4.4351 O   0  0  0  0  0  0  0  0  0  0  0  0
    7.4846   22.9485    3.3697 H   0  0  0  0  0  0  0  0  0  0  0  0
   10.7740   24.3199   -0.2670 C   0  0  0  0  0  0  0  0  0  0  0  0
   11.6622   24.5419   -1.3755 C   0  0  0  0  0  0  0  0  0  0  0  0
   11.6146   25.7140   -2.1122 C   0  0  0  0  0  0  0  0  0  0  0  0
   12.4239   25.9481   -3.1966 C   0  0  0  0  0  0  0  0  0  0  0  0
   13.3384   25.0133   -3.6126 C   0  0  0  0  0  0  0  0  0  0  0  0
   13.4104   23.8391   -2.9029 C   0  0  0  0  0  0  0  0  0  0  0  0
   12.5926   23.6255   -1.8224 C   0  0  0  0  0  0  0  0  0  0  0  0
   14.2055   25.2551   -4.7865 C   0  0  0  0  0  0  0  0  0  0  0  0
   14.0497   26.4051   -5.5599 C   0  0  0  0  0  0  0  0  0  0  0  0
   14.8242   26.6797   -6.6457 C   0  0  0  0  0  0  0  0  0  0  0  0
   15.8180   25.7896   -7.0171 C   0  0  0  0  0  0  0  0  0  0  0  0
   15.9813   24.6624   -6.2709 C   0  0  0  0  0  0  0  0  0  0  0  0
   15.2003   24.3741   -5.1660 C   0  0  0  0  0  0  0  0  0  0  0  0
   16.6425   26.1023   -8.1884 C   0  0  0  0  0  0  0  0  0  0  0  0
   17.1236   25.1066   -9.0021 O   0  0  0  0  0  0  0  0  0  0  0  0
   16.9226   27.3013   -8.4656 O   0  0  0  0  0  0  0  0  0  0  0  0
   17.8630   24.4715   -8.6990 H   0  0  0  0  0  0  0  0  0  0  0  0
 18 19  1  0  0  0
 19 20  1  0  0  0
 19 21  1  0  0  0
 21 22  1  0  0  0
 19 14  1  0  0  0
 14 15  1  0  0  0
 15 16  2  0  0  0
 15 13  1  0  0  0
 13  9  1  0  0  0
  9 10  1  0  0  0
 10 11  2  0  0  0
 10  2  1  0  0  0
  2  3  1  0  0  0
  3  4  1  0  0  0
  4  5  1  0  0  0
  5  6  1  0  0  0
  6  7  1  0  0  0
  7  8  2  0  0  0
  7  1  1  0  0  0
  1 39  1  0  0  0
 39 40  1  0  0  0
 40 41  2  0  0  0
 41 42  1  0  0  0
 42 43  2  0  0  0
 43 44  1  0  0  0
 44 45  2  0  0  0
 43 46  1  0  0  0
 46 47  2  0  0  0
 47 48  1  0  0  0
 48 49  2  0  0  0
 49 50  1  0  0  0
 50 51  2  0  0  0
 49 52  1  0  0  0
 52 53  1  0  0  0
 52 54  2  0  0  0
  1 24  1  0  0  0
 24 27  1  0  0  0
 27 28  1  0  0  0
 28 29  1  0  0  0
 29 30  1  0  0  0
 30 31  1  0  0  0
 31 32  1  0  0  0
 24 25  1  0  0  0
 25 26  2  0  0  0
 25 33  1  0  0  0
 33 34  1  0  0  0
 34 35  1  0  0  0
 35 36  1  0  0  0
 35 37  2  0  0  0
  6  2  1  0  0  0
 45 40  1  0  0  0
 51 46  1  0  0  0
 32 27  1  0  0  0
 22 23  1  0  0  0
 14 17  1  0  0  0
  9 12  1  0  0  0
 53 55  1  0  0  0
 36 38  1  0  0  0
M  END
> <minimizedAffinity>
12.63884

> <CNNscore>
0.5349150300

> <CNNaffinity>
7.6027870178

> <CNN_VS>
4.0668449402

> <CNNaffinity_variance>
0.9628223181

$$$$
[H]OC(=O)c1c([H])c([H])c(-c2c([H])c([H])c(C([H])([H])[C@]([H])(C(=O)N3C([H])([H])C([H])([H])C([H])([H])[C@@]3([H])C(=O)N([H])C([H])([H])C(=O)N([H])C(C([H])([H])[H])(C([H])([H])[H])C([H])([H])O[H])N(C(=O)C([H])([H])C([H])([H])C(=O)O[H])C3([H])C([H])([H])C([H])([H])C([H])([H])C([H])([H])C3([H])[H])c([H])c2[H])c([H])c1[H]


 55 58  0  0  0  0  0  0  0  0999 V2000
   10.9954   24.5567    1.1400 C   0  0  0  0  0  0  0  0  0  0  0  0
   14.9242   25.1976    0.9751 C   0  0  0  0  0  0  0  0  0  0  0  0
   15.2603   25.9372    2.2259 C   0  0  0  0  0  0  0  0  0  0  0  0
   14.3014   27.1404    2.0708 C   0  0  0  0  0  0  0  0  0  0  0  0
   13.3106   26.7213    0.9468 C   0  0  0  0  0  0  0  0  0  0  0  0
   13.4827   25.2750    1.0347 N   0  0  0  0  0  0  0  0  0  0  0  0
   12.4435   24.3606    1.2562 C   0  0  0  0  0  0  0  0  0  0  0  0
   12.8831   23.1861    1.6118 O   0  0  0  0  0  0  0  0  0  0  0  0
   15.5369   22.8665    1.5329 N   0  0  0  0  0  0  0  0  0  0  0  0
   15.5806   23.9721    0.6601 C   0  0  0  0  0  0  0  0  0  0  0  0
   16.2132   23.8434   -0.4138 O   0  0  0  0  0  0  0  0  0  0  0  0
   15.0077   22.8981    2.4539 H   0  0  0  0  0  0  0  0  0  0  0  0
   16.1903   21.6327    1.2137 C   0  0  0  0  0  0  0  0  0  0  0  0
   14.3740   21.3265   -0.4544 N   0  0  0  0  0  0  0  0  0  0  0  0
   15.4992   20.7771    0.2340 C   0  0  0  0  0  0  0  0  0  0  0  0
   15.8674   19.6170   -0.0008 O   0  0  0  0  0  0  0  0  0  0  0  0
   14.1033   22.3280   -0.2149 H   0  0  0  0  0  0  0  0  0  0  0  0
   13.3312   19.1776   -1.0900 C   0  0  0  0  0  0  0  0  0  0  0  0
   13.6068   20.6215   -1.4289 C   0  0  0  0  0  0  0  0  0  0  0  0
   12.2725   21.2981   -1.6450 C   0  0  0  0  0  0  0  0  0  0  0  0
   14.2874   20.6144   -2.7962 C   0  0  0  0  0  0  0  0  0  0  0  0
   14.7948   21.8680   -3.1127 O   0  0  0  0  0  0  0  0  0  0  0  0
   15.6390   21.9892   -2.6183 H   0  0  0  0  0  0  0  0  0  0  0  0
   10.1826   23.8280    2.0716 N   0  0  0  0  0  0  0  0  0  0  0  0
   10.2200   22.4049    2.0767 C   0  0  0  0  0  0  0  0  0  0  0  0
    9.4557   21.7185    2.8189 O   0  0  0  0  0  0  0  0  0  0  0  0
    9.2316   24.4420    2.9713 C   0  0  0  0  0  0  0  0  0  0  0  0
    9.4504   25.8911    3.2909 C   0  0  0  0  0  0  0  0  0  0  0  0
    8.1726   26.3721    3.9980 C   0  0  0  0  0  0  0  0  0  0  0  0
    8.1901   25.7360    5.3557 C   0  0  0  0  0  0  0  0  0  0  0  0
    9.1000   24.5627    5.4679 C   0  0  0  0  0  0  0  0  0  0  0  0
    9.1592   23.6493    4.2886 C   0  0  0  0  0  0  0  0  0  0  0  0
   11.1458   21.5983    1.2389 C   0  0  0  0  0  0  0  0  0  0  0  0
   11.2276   20.1517    1.6802 C   0  0  0  0  0  0  0  0  0  0  0  0
   11.8522   19.9640    3.0040 C   0  0  0  0  0  0  0  0  0  0  0  0
   12.3033   21.0810    3.7275 O   0  0  0  0  0  0  0  0  0  0  0  0
   11.9817   18.8116    3.4872 O   0  0  0  0  0  0  0  0  0  0  0  0
   11.6150   21.4728    4.3906 H   0  0  0  0  0  0  0  0  0  0  0  0
   10.4958   24.6241   -0.2772 C   0  0  0  0  0  0  0  0  0  0  0  0
   11.3512   24.8960   -1.4002 C   0  0  0  0  0  0  0  0  0  0  0  0
   12.5517   24.2258   -1.5694 C   0  0  0  0  0  0  0  0  0  0  0  0
   13.4096   24.4812   -2.6108 C   0  0  0  0  0  0  0  0  0  0  0  0
   13.1141   25.4327   -3.5546 C   0  0  0  0  0  0  0  0  0  0  0  0
   11.9303   26.1159   -3.4152 C   0  0  0  0  0  0  0  0  0  0  0  0
   11.0874   25.8450   -2.3672 C   0  0  0  0  0  0  0  0  0  0  0  0
   14.0391   25.7200   -4.6726 C   0  0  0  0  0  0  0  0  0  0  0  0
   14.8725   24.7231   -5.1793 C   0  0  0  0  0  0  0  0  0  0  0  0
   15.7371   24.9318   -6.2103 C   0  0  0  0  0  0  0  0  0  0  0  0
   15.8088   26.1840   -6.7973 C   0  0  0  0  0  0  0  0  0  0  0  0
   15.0007   27.1670   -6.3127 C   0  0  0  0  0  0  0  0  0  0  0  0
   14.1187   26.9656   -5.2661 C   0  0  0  0  0  0  0  0  0  0  0  0
   16.7450   26.3899   -7.9067 C   0  0  0  0  0  0  0  0  0  0  0  0
   17.1887   25.3344   -8.6642 O   0  0  0  0  0  0  0  0  0  0  0  0
   17.1581   27.5504   -8.1815 O   0  0  0  0  0  0  0  0  0  0  0  0
   17.8394   24.6402   -8.2945 H   0  0  0  0  0  0  0  0  0  0  0  0
 18 19  1  0  0  0
 19 20  1  0  0  0
 19 21  1  0  0  0
 21 22  1  0  0  0
 19 14  1  0  0  0
 14 15  1  0  0  0
 15 16  2  0  0  0
 15 13  1  0  0  0
 13  9  1  0  0  0
  9 10  1  0  0  0
 10 11  2  0  0  0
 10  2  1  0  0  0
  2  3  1  0  0  0
  3  4  1  0  0  0
  4  5  1  0  0  0
  5  6  1  0  0  0
  6  7  1  0  0  0
  7  8  2  0  0  0
  7  1  1  0  0  0
  1 39  1  0  0  0
 39 40  1  0  0  0
 40 41  2  0  0  0
 41 42  1  0  0  0
 42 43  2  0  0  0
 43 44  1  0  0  0
 44 45  2  0  0  0
 43 46  1  0  0  0
 46 47  2  0  0  0
 47 48  1  0  0  0
 48 49  2  0  0  0
 49 50  1  0  0  0
 50 51  2  0  0  0
 49 52  1  0  0  0
 52 53  1  0  0  0
 52 54  2  0  0  0
  1 24  1  0  0  0
 24 27  1  0  0  0
 27 28  1  0  0  0
 28 29  1  0  0  0
 29 30  1  0  0  0
 30 31  1  0  0  0
 31 32  1  0  0  0
 24 25  1  0  0  0
 25 26  2  0  0  0
 25 33  1  0  0  0
 33 34  1  0  0  0
 34 35  1  0  0  0
 35 36  1  0  0  0
 35 37  2  0  0  0
  6  2  1  0  0  0
 45 40  1  0  0  0
 51 46  1  0  0  0
 32 27  1  0  0  0
 22 23  1  0  0  0
 14 17  1  0  0  0
  9 12  1  0  0  0
 53 55  1  0  0  0
 36 38  1  0  0  0
M  END
> <minimizedAffinity>
7.33652

> <CNNscore>
0.5166626573

> <CNNaffinity>
7.8306374550

> <CNN_VS>
4.0457978249

> <CNNaffinity_variance>
0.5261095762

$$$$
[H]OC(=O)c1c([H])c([H])c(-c2c([H])c([H])c(C([H])([H])[C@]([H])(C(=O)N3C([H])([H])C([H])([H])C([H])([H])[C@@]3([H])C(=O)N([H])C([H])([H])C(=O)N([H])C(C([H])([H])[H])(C([H])([H])[H])C([H])([H])O[H])N(C(=O)C([H])([H])C([H])([H])C(=O)O[H])C3([H])C([H])([H])C([H])([H])C([H])([H])C([H])([H])C3([H])[H])c([H])c2[H])c([H])c1[H]


 55 58  0  0  0  0  0  0  0  0999 V2000
   13.2294   21.9221    0.4351 C   0  0  0  0  0  0  0  0  0  0  0  0
    9.2488   22.0663    0.5184 C   0  0  0  0  0  0  0  0  0  0  0  0
    8.8953   23.4870    0.2334 C   0  0  0  0  0  0  0  0  0  0  0  0
    9.6902   24.1752    1.3673 C   0  0  0  0  0  0  0  0  0  0  0  0
   10.6604   23.0809    1.8982 C   0  0  0  0  0  0  0  0  0  0  0  0
   10.6712   22.2134    0.7250 N   0  0  0  0  0  0  0  0  0  0  0  0
   11.8248   21.8332    0.0252 C   0  0  0  0  0  0  0  0  0  0  0  0
   11.5522   21.3356   -1.1483 O   0  0  0  0  0  0  0  0  0  0  0  0
    8.0198   21.2807   -1.4799 N   0  0  0  0  0  0  0  0  0  0  0  0
    8.7301   21.0147   -0.2921 C   0  0  0  0  0  0  0  0  0  0  0  0
    8.9000   19.8158    0.0304 O   0  0  0  0  0  0  0  0  0  0  0  0
    7.8501   22.2719   -1.8231 H   0  0  0  0  0  0  0  0  0  0  0  0
    7.5047   20.2243   -2.2982 C   0  0  0  0  0  0  0  0  0  0  0  0
    6.5824   18.9150   -0.3983 N   0  0  0  0  0  0  0  0  0  0  0  0
    6.4021   19.4417   -1.7143 C   0  0  0  0  0  0  0  0  0  0  0  0
    5.3444   19.2372   -2.3275 O   0  0  0  0  0  0  0  0  0  0  0  0
    7.5094   19.1231    0.0822 H   0  0  0  0  0  0  0  0  0  0  0  0
    6.1752   17.1040    1.2339 C   0  0  0  0  0  0  0  0  0  0  0  0
    5.6065   18.1405    0.2969 C   0  0  0  0  0  0  0  0  0  0  0  0
    4.6991   19.0356    1.1094 C   0  0  0  0  0  0  0  0  0  0  0  0
    4.6861   17.3874   -0.6614 C   0  0  0  0  0  0  0  0  0  0  0  0
    5.3358   16.3021   -1.2351 O   0  0  0  0  0  0  0  0  0  0  0  0
    5.3541   15.5723   -0.5726 H   0  0  0  0  0  0  0  0  0  0  0  0
   13.6612   20.9721    1.4203 N   0  0  0  0  0  0  0  0  0  0  0  0
   15.0026   20.4959    1.3999 C   0  0  0  0  0  0  0  0  0  0  0  0
   15.4037   19.5925    2.1930 O   0  0  0  0  0  0  0  0  0  0  0  0
   12.7893   20.3735    2.4063 C   0  0  0  0  0  0  0  0  0  0  0  0
   11.5646   19.6811    1.8859 C   0  0  0  0  0  0  0  0  0  0  0  0
   10.9845   18.8887    3.0691 C   0  0  0  0  0  0  0  0  0  0  0  0
   10.4058   19.9093    4.0028 C   0  0  0  0  0  0  0  0  0  0  0  0
   10.9130   21.2922    3.7850 C   0  0  0  0  0  0  0  0  0  0  0  0
   12.3603   21.4260    3.4441 C   0  0  0  0  0  0  0  0  0  0  0  0
   16.0480   21.0064    0.4746 C   0  0  0  0  0  0  0  0  0  0  0  0
   17.2499   20.0892    0.3831 C   0  0  0  0  0  0  0  0  0  0  0  0
   17.1164   19.0272   -0.6328 C   0  0  0  0  0  0  0  0  0  0  0  0
   17.3460   17.6875   -0.2763 O   0  0  0  0  0  0  0  0  0  0  0  0
   16.7980   19.3145   -1.8136 O   0  0  0  0  0  0  0  0  0  0  0  0
   16.5018   17.1662    0.0110 H   0  0  0  0  0  0  0  0  0  0  0  0
   13.7362   23.3296    0.5922 C   0  0  0  0  0  0  0  0  0  0  0  0
   14.1271   24.1531   -0.5195 C   0  0  0  0  0  0  0  0  0  0  0  0
   13.1954   24.6184   -1.4330 C   0  0  0  0  0  0  0  0  0  0  0  0
   13.5349   25.3795   -2.5244 C   0  0  0  0  0  0  0  0  0  0  0  0
   14.8407   25.7236   -2.7692 C   0  0  0  0  0  0  0  0  0  0  0  0
   15.7896   25.2774   -1.8815 C   0  0  0  0  0  0  0  0  0  0  0  0
   15.4289   24.5182   -0.7974 C   0  0  0  0  0  0  0  0  0  0  0  0
   15.2141   26.5342   -3.9490 C   0  0  0  0  0  0  0  0  0  0  0  0
   15.9709   27.6963   -3.8018 C   0  0  0  0  0  0  0  0  0  0  0  0
   16.3470   28.4750   -4.8536 C   0  0  0  0  0  0  0  0  0  0  0  0
   15.9716   28.1152   -6.1371 C   0  0  0  0  0  0  0  0  0  0  0  0
   15.2324   26.9827   -6.2956 C   0  0  0  0  0  0  0  0  0  0  0  0
   14.8453   26.1845   -5.2341 C   0  0  0  0  0  0  0  0  0  0  0  0
   16.3864   28.9653   -7.2573 C   0  0  0  0  0  0  0  0  0  0  0  0
   16.4195   30.3323   -7.1347 O   0  0  0  0  0  0  0  0  0  0  0  0
   16.7212   28.4462   -8.3579 O   0  0  0  0  0  0  0  0  0  0  0  0
   15.5667   30.8902   -7.0772 H   0  0  0  0  0  0  0  0  0  0  0  0
 18 19  1  0  0  0
 19 20  1  0  0  0
 19 21  1  0  0  0
 21 22  1  0  0  0
 19 14  1  0  0  0
 14 15  1  0  0  0
 15 16  2  0  0  0
 15 13  1  0  0  0
 13  9  1  0  0  0
  9 10  1  0  0  0
 10 11  2  0  0  0
 10  2  1  0  0  0
  2  3  1  0  0  0
  3  4  1  0  0  0
  4  5  1  0  0  0
  5  6  1  0  0  0
  6  7  1  0  0  0
  7  8  2  0  0  0
  7  1  1  0  0  0
  1 39  1  0  0  0
 39 40  1  0  0  0
 40 41  2  0  0  0
 41 42  1  0  0  0
 42 43  2  0  0  0
 43 44  1  0  0  0
 44 45  2  0  0  0
 43 46  1  0  0  0
 46 47  2  0  0  0
 47 48  1  0  0  0
 48 49  2  0  0  0
 49 50  1  0  0  0
 50 51  2  0  0  0
 49 52  1  0  0  0
 52 53  1  0  0  0
 52 54  2  0  0  0
  1 24  1  0  0  0
 24 27  1  0  0  0
 27 28  1  0  0  0
 28 29  1  0  0  0
 29 30  1  0  0  0
 30 31  1  0  0  0
 31 32  1  0  0  0
 24 25  1  0  0  0
 25 26  2  0  0  0
 25 33  1  0  0  0
 33 34  1  0  0  0
 34 35  1  0  0  0
 35 36  1  0  0  0
 35 37  2  0  0  0
  6  2  1  0  0  0
 45 40  1  0  0  0
 51 46  1  0  0  0
 32 27  1  0  0  0
 22 23  1  0  0  0
 14 17  1  0  0  0
  9 12  1  0  0  0
 53 55  1  0  0  0
 36 38  1  0  0  0
M  END
> <minimizedAffinity>
11.96077

> <CNNscore>
0.5135657787

> <CNNaffinity>
7.6627349854

> <CNN_VS>
3.9353184700

> <CNNaffinity_variance>
0.1740188152

$$$$
[H]OC(=O)c1c([H])c([H])c(-c2c([H])c([H])c(C([H])([H])[C@]([H])(C(=O)N3C([H])([H])C([H])([H])C([H])([H])[C@@]3([H])C(=O)N([H])C([H])([H])C(=O)N([H])C(C([H])([H])[H])(C([H])([H])[H])C([H])([H])O[H])N(C(=O)C([H])([H])C([H])([H])C(=O)O[H])C3([H])C([H])([H])C([H])([H])C([H])([H])C([H])([H])C3([H])[H])c([H])c2[H])c([H])c1[H]


 55 58  0  0  0  0  0  0  0  0999 V2000
   12.9952   25.9954   -2.1804 C   0  0  0  0  0  0  0  0  0  0  0  0
   14.6499   22.3713   -2.1446 C   0  0  0  0  0  0  0  0  0  0  0  0
   13.6111   21.4644   -1.5766 C   0  0  0  0  0  0  0  0  0  0  0  0
   13.3604   22.1828   -0.2304 C   0  0  0  0  0  0  0  0  0  0  0  0
   14.0234   23.5810   -0.3924 C   0  0  0  0  0  0  0  0  0  0  0  0
   14.0374   23.6463   -1.8500 N   0  0  0  0  0  0  0  0  0  0  0  0
   13.4505   24.6692   -2.6079 C   0  0  0  0  0  0  0  0  0  0  0  0
   13.3154   24.3425   -3.8625 O   0  0  0  0  0  0  0  0  0  0  0  0
   15.9588   23.0874   -4.1181 N   0  0  0  0  0  0  0  0  0  0  0  0
   15.2181   22.1089   -3.4254 C   0  0  0  0  0  0  0  0  0  0  0  0
   15.0777   20.9890   -3.9697 O   0  0  0  0  0  0  0  0  0  0  0  0
   16.1308   24.0542   -3.7118 H   0  0  0  0  0  0  0  0  0  0  0  0
   16.5359   22.8220   -5.4017 C   0  0  0  0  0  0  0  0  0  0  0  0
   15.4975   24.9728   -6.0879 N   0  0  0  0  0  0  0  0  0  0  0  0
   16.3407   23.8680   -6.4201 C   0  0  0  0  0  0  0  0  0  0  0  0
   16.8826   23.8107   -7.5334 O   0  0  0  0  0  0  0  0  0  0  0  0
   15.0599   24.9714   -5.1173 H   0  0  0  0  0  0  0  0  0  0  0  0
   14.1027   26.9695   -6.5086 C   0  0  0  0  0  0  0  0  0  0  0  0
   15.2150   26.0597   -6.9678 C   0  0  0  0  0  0  0  0  0  0  0  0
   16.4455   26.9146   -7.1674 C   0  0  0  0  0  0  0  0  0  0  0  0
   14.8213   25.5783   -8.3627 C   0  0  0  0  0  0  0  0  0  0  0  0
   15.8790   25.6999   -9.2547 O   0  0  0  0  0  0  0  0  0  0  0  0
   16.4987   24.9495   -9.0974 H   0  0  0  0  0  0  0  0  0  0  0  0
   13.7215   27.1138   -2.7108 N   0  0  0  0  0  0  0  0  0  0  0  0
   13.0547   28.0558   -3.5442 C   0  0  0  0  0  0  0  0  0  0  0  0
   13.6744   29.0079   -4.1061 O   0  0  0  0  0  0  0  0  0  0  0  0
   15.1424   27.3153   -2.5343 C   0  0  0  0  0  0  0  0  0  0  0  0
   15.9566   27.4784   -3.7835 C   0  0  0  0  0  0  0  0  0  0  0  0
   17.3414   27.9706   -3.3317 C   0  0  0  0  0  0  0  0  0  0  0  0
   17.9986   26.7969   -2.6693 C   0  0  0  0  0  0  0  0  0  0  0  0
   17.0539   25.7242   -2.2522 C   0  0  0  0  0  0  0  0  0  0  0  0
   15.7410   26.1697   -1.6986 C   0  0  0  0  0  0  0  0  0  0  0  0
   11.5953   28.0255   -3.8246 C   0  0  0  0  0  0  0  0  0  0  0  0
   11.0804   29.3290   -4.3988 C   0  0  0  0  0  0  0  0  0  0  0  0
   11.4779   30.5219   -3.6262 C   0  0  0  0  0  0  0  0  0  0  0  0
   11.8223   31.7064   -4.2992 O   0  0  0  0  0  0  0  0  0  0  0  0
   11.5091   30.4839   -2.3709 O   0  0  0  0  0  0  0  0  0  0  0  0
   11.0413   32.3686   -4.4353 H   0  0  0  0  0  0  0  0  0  0  0  0
   12.6072   26.0741   -0.7293 C   0  0  0  0  0  0  0  0  0  0  0  0
   11.6622   25.1793   -0.1185 C   0  0  0  0  0  0  0  0  0  0  0  0
   10.8210   24.3888   -0.8843 C   0  0  0  0  0  0  0  0  0  0  0  0
    9.8840   23.5470   -0.3374 C   0  0  0  0  0  0  0  0  0  0  0  0
    9.7314   23.4453    1.0227 C   0  0  0  0  0  0  0  0  0  0  0  0
   10.5508   24.2168    1.8107 C   0  0  0  0  0  0  0  0  0  0  0  0
   11.4805   25.0513    1.2437 C   0  0  0  0  0  0  0  0  0  0  0  0
    8.7166   22.5484    1.6176 C   0  0  0  0  0  0  0  0  0  0  0  0
    8.8852   22.0401    2.9054 C   0  0  0  0  0  0  0  0  0  0  0  0
    7.9800   21.2167    3.5025 C   0  0  0  0  0  0  0  0  0  0  0  0
    6.8322   20.8542    2.8177 C   0  0  0  0  0  0  0  0  0  0  0  0
    6.6545   21.3432    1.5593 C   0  0  0  0  0  0  0  0  0  0  0  0
    7.5675   22.1804    0.9437 C   0  0  0  0  0  0  0  0  0  0  0  0
    5.8685   19.9674    3.4769 C   0  0  0  0  0  0  0  0  0  0  0  0
    4.6948   20.4567    3.9945 O   0  0  0  0  0  0  0  0  0  0  0  0
    6.1082   18.7324    3.5774 O   0  0  0  0  0  0  0  0  0  0  0  0
    4.6754   21.0381    4.8332 H   0  0  0  0  0  0  0  0  0  0  0  0
 18 19  1  0  0  0
 19 20  1  0  0  0
 19 21  1  0  0  0
 21 22  1  0  0  0
 19 14  1  0  0  0
 14 15  1  0  0  0
 15 16  2  0  0  0
 15 13  1  0  0  0
 13  9  1  0  0  0
  9 10  1  0  0  0
 10 11  2  0  0  0
 10  2  1  0  0  0
  2  3  1  0  0  0
  3  4  1  0  0  0
  4  5  1  0  0  0
  5  6  1  0  0  0
  6  7  1  0  0  0
  7  8  2  0  0  0
  7  1  1  0  0  0
  1 39  1  0  0  0
 39 40  1  0  0  0
 40 41  2  0  0  0
 41 42  1  0  0  0
 42 43  2  0  0  0
 43 44  1  0  0  0
 44 45  2  0  0  0
 43 46  1  0  0  0
 46 47  2  0  0  0
 47 48  1  0  0  0
 48 49  2  0  0  0
 49 50  1  0  0  0
 50 51  2  0  0  0
 49 52  1  0  0  0
 52 53  1  0  0  0
 52 54  2  0  0  0
  1 24  1  0  0  0
 24 27  1  0  0  0
 27 28  1  0  0  0
 28 29  1  0  0  0
 29 30  1  0  0  0
 30 31  1  0  0  0
 31 32  1  0  0  0
 24 25  1  0  0  0
 25 26  2  0  0  0
 25 33  1  0  0  0
 33 34  1  0  0  0
 34 35  1  0  0  0
 35 36  1  0  0  0
 35 37  2  0  0  0
  6  2  1  0  0  0
 45 40  1  0  0  0
 51 46  1  0  0  0
 32 27  1  0  0  0
 22 23  1  0  0  0
 14 17  1  0  0  0
  9 12  1  0  0  0
 53 55  1  0  0  0
 36 38  1  0  0  0
M  END
> <minimizedAffinity>
13.50841

> <CNNscore>
0.5030883551

> <CNNaffinity>
7.6244482994

> <CNN_VS>
3.8357710838

> <CNNaffinity_variance>
0.3703212142

$$$$
[H]OC(=O)c1c([H])c([H])c(-c2c([H])c([H])c(C([H])([H])[C@]([H])(C(=O)N3C([H])([H])C([H])([H])C([H])([H])[C@@]3([H])C(=O)N([H])C([H])([H])C(=O)N([H])C(C([H])([H])[H])(C([H])([H])[H])C([H])([H])O[H])N(C(=O)C([H])([H])C([H])([H])C(=O)O[H])C3([H])C([H])([H])C([H])([H])C([H])([H])C([H])([H])C3([H])[H])c([H])c2[H])c([H])c1[H]


 55 58  0  0  0  0  0  0  0  0999 V2000
   10.9011   23.1003    1.6854 C   0  0  0  0  0  0  0  0  0  0  0  0
    7.3903   24.3930    3.0554 C   0  0  0  0  0  0  0  0  0  0  0  0
    7.0825   23.5348    4.2357 C   0  0  0  0  0  0  0  0  0  0  0  0
    7.1534   22.1454    3.5604 C   0  0  0  0  0  0  0  0  0  0  0  0
    7.8451   22.4003    2.1903 C   0  0  0  0  0  0  0  0  0  0  0  0
    8.5103   23.6580    2.5143 N   0  0  0  0  0  0  0  0  0  0  0  0
    9.8896   23.8821    2.4028 C   0  0  0  0  0  0  0  0  0  0  0  0
   10.2725   24.9498    3.0451 O   0  0  0  0  0  0  0  0  0  0  0  0
    6.6128   26.6509    2.4087 N   0  0  0  0  0  0  0  0  0  0  0  0
    7.4375   25.8118    3.1846 C   0  0  0  0  0  0  0  0  0  0  0  0
    8.2158   26.3537    4.0035 O   0  0  0  0  0  0  0  0  0  0  0  0
    5.9185   26.2614    1.7048 H   0  0  0  0  0  0  0  0  0  0  0  0
    6.6547   28.0760    2.5432 C   0  0  0  0  0  0  0  0  0  0  0  0
    6.7366   29.4121    0.4496 N   0  0  0  0  0  0  0  0  0  0  0  0
    5.9521   28.8387    1.4972 C   0  0  0  0  0  0  0  0  0  0  0  0
    4.7215   28.9879    1.5069 O   0  0  0  0  0  0  0  0  0  0  0  0
    7.7882   29.2507    0.4902 H   0  0  0  0  0  0  0  0  0  0  0  0
    7.0305   30.1564   -1.8890 C   0  0  0  0  0  0  0  0  0  0  0  0
    6.1994   30.1743   -0.6302 C   0  0  0  0  0  0  0  0  0  0  0  0
    4.8179   29.6801   -0.9931 C   0  0  0  0  0  0  0  0  0  0  0  0
    6.0227   31.6453   -0.2589 C   0  0  0  0  0  0  0  0  0  0  0  0
    4.6918   31.9415    0.0057 O   0  0  0  0  0  0  0  0  0  0  0  0
    4.4816   31.6179    0.9128 H   0  0  0  0  0  0  0  0  0  0  0  0
   10.9715   21.7052    2.0147 N   0  0  0  0  0  0  0  0  0  0  0  0
   11.4233   20.7727    1.0385 C   0  0  0  0  0  0  0  0  0  0  0  0
   11.4183   19.5238    1.2540 O   0  0  0  0  0  0  0  0  0  0  0  0
   10.5196   21.1441    3.2684 C   0  0  0  0  0  0  0  0  0  0  0  0
   11.2767   21.5526    4.4972 C   0  0  0  0  0  0  0  0  0  0  0  0
   10.4367   21.0802    5.6953 C   0  0  0  0  0  0  0  0  0  0  0  0
   10.5617   19.5862    5.7211 C   0  0  0  0  0  0  0  0  0  0  0  0
   11.0289   18.9910    4.4387 C   0  0  0  0  0  0  0  0  0  0  0  0
   10.5009   19.6073    3.1857 C   0  0  0  0  0  0  0  0  0  0  0  0
   11.9452   21.1612   -0.2980 C   0  0  0  0  0  0  0  0  0  0  0  0
   13.3931   20.7654   -0.5008 C   0  0  0  0  0  0  0  0  0  0  0  0
   14.1925   20.7636    0.7396 C   0  0  0  0  0  0  0  0  0  0  0  0
   13.5672   20.5118    1.9726 O   0  0  0  0  0  0  0  0  0  0  0  0
   15.4284   20.9852    0.6987 O   0  0  0  0  0  0  0  0  0  0  0  0
   13.5763   19.5218    2.2672 H   0  0  0  0  0  0  0  0  0  0  0  0
   12.2124   23.8135    1.5005 C   0  0  0  0  0  0  0  0  0  0  0  0
   12.7555   24.1383    0.2097 C   0  0  0  0  0  0  0  0  0  0  0  0
   14.1198   24.0999   -0.0275 C   0  0  0  0  0  0  0  0  0  0  0  0
   14.6775   24.4345   -1.2369 C   0  0  0  0  0  0  0  0  0  0  0  0
   13.8949   24.8319   -2.2919 C   0  0  0  0  0  0  0  0  0  0  0  0
   12.5370   24.8809   -2.0891 C   0  0  0  0  0  0  0  0  0  0  0  0
   12.0003   24.5422   -0.8728 C   0  0  0  0  0  0  0  0  0  0  0  0
   14.4905   25.2040   -3.5938 C   0  0  0  0  0  0  0  0  0  0  0  0
   14.4200   26.5172   -4.0579 C   0  0  0  0  0  0  0  0  0  0  0  0
   14.9564   26.9146   -5.2447 C   0  0  0  0  0  0  0  0  0  0  0  0
   15.6061   25.9886   -6.0436 C   0  0  0  0  0  0  0  0  0  0  0  0
   15.6825   24.7025   -5.6028 C   0  0  0  0  0  0  0  0  0  0  0  0
   15.1413   24.2884   -4.3989 C   0  0  0  0  0  0  0  0  0  0  0  0
   16.1781   26.4348   -7.3177 C   0  0  0  0  0  0  0  0  0  0  0  0
   16.4026   25.5490   -8.3422 O   0  0  0  0  0  0  0  0  0  0  0  0
   16.4737   27.6497   -7.4897 O   0  0  0  0  0  0  0  0  0  0  0  0
   17.1443   24.8492   -8.2983 H   0  0  0  0  0  0  0  0  0  0  0  0
 18 19  1  0  0  0
 19 20  1  0  0  0
 19 21  1  0  0  0
 21 22  1  0  0  0
 19 14  1  0  0  0
 14 15  1  0  0  0
 15 16  2  0  0  0
 15 13  1  0  0  0
 13  9  1  0  0  0
  9 10  1  0  0  0
 10 11  2  0  0  0
 10  2  1  0  0  0
  2  3  1  0  0  0
  3  4  1  0  0  0
  4  5  1  0  0  0
  5  6  1  0  0  0
  6  7  1  0  0  0
  7  8  2  0  0  0
  7  1  1  0  0  0
  1 39  1  0  0  0
 39 40  1  0  0  0
 40 41  2  0  0  0
 41 42  1  0  0  0
 42 43  2  0  0  0
 43 44  1  0  0  0
 44 45  2  0  0  0
 43 46  1  0  0  0
 46 47  2  0  0  0
 47 48  1  0  0  0
 48 49  2  0  0  0
 49 50  1  0  0  0
 50 51  2  0  0  0
 49 52  1  0  0  0
 52 53  1  0  0  0
 52 54  2  0  0  0
  1 24  1  0  0  0
 24 27  1  0  0  0
 27 28  1  0  0  0
 28 29  1  0  0  0
 29 30  1  0  0  0
 30 31  1  0  0  0
 31 32  1  0  0  0
 24 25  1  0  0  0
 25 26  2  0  0  0
 25 33  1  0  0  0
 33 34  1  0  0  0
 34 35  1  0  0  0
 35 36  1  0  0  0
 35 37  2  0  0  0
  6  2  1  0  0  0
 45 40  1  0  0  0
 51 46  1  0  0  0
 32 27  1  0  0  0
 22 23  1  0  0  0
 14 17  1  0  0  0
  9 12  1  0  0  0
 53 55  1  0  0  0
 36 38  1  0  0  0
M  END
> <minimizedAffinity>
-5.27220

> <CNNscore>
0.5003018379

> <CNNaffinity>
7.6699056625

> <CNN_VS>
3.8372678757

> <CNNaffinity_variance>
0.2081866562

$$$$
[H]OC(=O)c1c([H])c([H])c(-c2c([H])c([H])c(C([H])([H])[C@]([H])(C(=O)N3C([H])([H])C([H])([H])C([H])([H])[C@@]3([H])C(=O)N([H])C([H])([H])C(=O)N([H])C(C([H])([H])[H])(C([H])([H])[H])C([H])([H])O[H])N(C(=O)C([H])([H])C([H])([H])C(=O)O[H])C3([H])C([H])([H])C([H])([H])C([H])([H])C([H])([H])C3([H])[H])c([H])c2[H])c([H])c1[H]


 55 58  0  0  0  0  0  0  0  0999 V2000
   13.5506   25.7934   -3.1862 C   0  0  0  0  0  0  0  0  0  0  0  0
   15.2053   29.3237   -4.0060 C   0  0  0  0  0  0  0  0  0  0  0  0
   15.9971   29.1131   -5.2522 C   0  0  0  0  0  0  0  0  0  0  0  0
   16.9064   27.9555   -4.7787 C   0  0  0  0  0  0  0  0  0  0  0  0
   16.2503   27.4419   -3.4648 C   0  0  0  0  0  0  0  0  0  0  0  0
   14.8998   27.9487   -3.6848 N   0  0  0  0  0  0  0  0  0  0  0  0
   13.7421   27.1582   -3.6860 C   0  0  0  0  0  0  0  0  0  0  0  0
   12.7220   27.7725   -4.2163 O   0  0  0  0  0  0  0  0  0  0  0  0
   13.1384   30.2635   -3.0234 N   0  0  0  0  0  0  0  0  0  0  0  0
   14.1987   30.3314   -3.9493 C   0  0  0  0  0  0  0  0  0  0  0  0
   14.2351   31.3157   -4.7239 O   0  0  0  0  0  0  0  0  0  0  0  0
   13.0511   29.4660   -2.3265 H   0  0  0  0  0  0  0  0  0  0  0  0
   12.1308   31.2793   -2.9613 C   0  0  0  0  0  0  0  0  0  0  0  0
    9.9620   30.4446   -3.8414 N   0  0  0  0  0  0  0  0  0  0  0  0
   11.1256   31.2506   -4.0373 C   0  0  0  0  0  0  0  0  0  0  0  0
   11.2653   31.8985   -5.0849 O   0  0  0  0  0  0  0  0  0  0  0  0
    9.8932   29.9113   -2.9224 H   0  0  0  0  0  0  0  0  0  0  0  0
    9.0176   29.1221   -5.7037 C   0  0  0  0  0  0  0  0  0  0  0  0
    8.9045   30.3176   -4.7906 C   0  0  0  0  0  0  0  0  0  0  0  0
    7.5692   30.2258   -4.0883 C   0  0  0  0  0  0  0  0  0  0  0  0
    8.8041   31.5396   -5.7012 C   0  0  0  0  0  0  0  0  0  0  0  0
    8.2227   31.2133   -6.9197 O   0  0  0  0  0  0  0  0  0  0  0  0
    7.2482   31.1497   -6.7855 H   0  0  0  0  0  0  0  0  0  0  0  0
   14.2816   24.7631   -3.8672 N   0  0  0  0  0  0  0  0  0  0  0  0
   14.8194   23.6731   -3.1259 C   0  0  0  0  0  0  0  0  0  0  0  0
   15.5457   22.7883   -3.6697 O   0  0  0  0  0  0  0  0  0  0  0  0
   14.6028   24.7930   -5.2767 C   0  0  0  0  0  0  0  0  0  0  0  0
   16.0571   24.7100   -5.6347 C   0  0  0  0  0  0  0  0  0  0  0  0
   16.1119   24.4583   -7.1506 C   0  0  0  0  0  0  0  0  0  0  0  0
   15.6938   25.7454   -7.7961 C   0  0  0  0  0  0  0  0  0  0  0  0
   14.9624   26.6729   -6.8896 C   0  0  0  0  0  0  0  0  0  0  0  0
   14.0022   26.0500   -5.9311 C   0  0  0  0  0  0  0  0  0  0  0  0
   14.5797   23.4612   -1.6743 C   0  0  0  0  0  0  0  0  0  0  0  0
   15.0055   22.0860   -1.2035 C   0  0  0  0  0  0  0  0  0  0  0  0
   14.1127   21.4985   -0.1859 C   0  0  0  0  0  0  0  0  0  0  0  0
   14.1347   21.9912    1.1299 O   0  0  0  0  0  0  0  0  0  0  0  0
   13.3332   20.5614   -0.4901 O   0  0  0  0  0  0  0  0  0  0  0  0
   13.4460   22.7363    1.3236 H   0  0  0  0  0  0  0  0  0  0  0  0
   12.1312   25.4709   -2.8071 C   0  0  0  0  0  0  0  0  0  0  0  0
   11.7824   24.7233   -1.6298 C   0  0  0  0  0  0  0  0  0  0  0  0
   11.2193   23.4608   -1.7196 C   0  0  0  0  0  0  0  0  0  0  0  0
   10.8434   22.7305   -0.6192 C   0  0  0  0  0  0  0  0  0  0  0  0
   11.0101   23.2254    0.6499 C   0  0  0  0  0  0  0  0  0  0  0  0
   11.5659   24.4758    0.7734 C   0  0  0  0  0  0  0  0  0  0  0  0
   11.9347   25.1886   -0.3393 C   0  0  0  0  0  0  0  0  0  0  0  0
   10.5972   22.4481    1.8389 C   0  0  0  0  0  0  0  0  0  0  0  0
    9.2921   22.5306    2.3235 C   0  0  0  0  0  0  0  0  0  0  0  0
    8.8582   21.8325    3.4091 C   0  0  0  0  0  0  0  0  0  0  0  0
    9.7365   20.9964    4.0779 C   0  0  0  0  0  0  0  0  0  0  0  0
   11.0141   20.9061    3.6155 C   0  0  0  0  0  0  0  0  0  0  0  0
   11.4651   21.6106    2.5137 C   0  0  0  0  0  0  0  0  0  0  0  0
    9.2513   20.2521    5.2441 C   0  0  0  0  0  0  0  0  0  0  0  0
    8.0232   20.5214    5.7955 O   0  0  0  0  0  0  0  0  0  0  0  0
    9.9631   19.3464    5.7600 O   0  0  0  0  0  0  0  0  0  0  0  0
    7.8417   21.3803    6.3163 H   0  0  0  0  0  0  0  0  0  0  0  0
 18 19  1  0  0  0
 19 20  1  0  0  0
 19 21  1  0  0  0
 21 22  1  0  0  0
 19 14  1  0  0  0
 14 15  1  0  0  0
 15 16  2  0  0  0
 15 13  1  0  0  0
 13  9  1  0  0  0
  9 10  1  0  0  0
 10 11  2  0  0  0
 10  2  1  0  0  0
  2  3  1  0  0  0
  3  4  1  0  0  0
  4  5  1  0  0  0
  5  6  1  0  0  0
  6  7  1  0  0  0
  7  8  2  0  0  0
  7  1  1  0  0  0
  1 39  1  0  0  0
 39 40  1  0  0  0
 40 41  2  0  0  0
 41 42  1  0  0  0
 42 43  2  0  0  0
 43 44  1  0  0  0
 44 45  2  0  0  0
 43 46  1  0  0  0
 46 47  2  0  0  0
 47 48  1  0  0  0
 48 49  2  0  0  0
 49 50  1  0  0  0
 50 51  2  0  0  0
 49 52  1  0  0  0
 52 53  1  0  0  0
 52 54  2  0  0  0
  1 24  1  0  0  0
 24 27  1  0  0  0
 27 28  1  0  0  0
 28 29  1  0  0  0
 29 30  1  0  0  0
 30 31  1  0  0  0
 31 32  1  0  0  0
 24 25  1  0  0  0
 25 26  2  0  0  0
 25 33  1  0  0  0
 33 34  1  0  0  0
 34 35  1  0  0  0
 35 36  1  0  0  0
 35 37  2  0  0  0
  6  2  1  0  0  0
 45 40  1  0  0  0
 51 46  1  0  0  0
 32 27  1  0  0  0
 22 23  1  0  0  0
 14 17  1  0  0  0
  9 12  1  0  0  0
 53 55  1  0  0  0
 36 38  1  0  0  0
M  END
> <minimizedAffinity>
11.22687

> <CNNscore>
0.4982413054

> <CNNaffinity>
7.6260442734

> <CNN_VS>
3.7996101379

> <CNNaffinity_variance>
0.4546775818

$$$$
