[H]c1c([H])c([H])c(N2C([H])([H])C([H])([H])N(C(=O)C([H])([H])Sc3nnc([H])n3-c3c([H])c([H])c([H])c([H])c3C([H])([H])[H])C([H])([H])C2([H])[H])c([H])c1[H]


 28 31  0  0  0  0  0  0  0  0999 V2000
   11.6643   21.8538   -1.3093 C   0  0  0  0  0  0  0  0  0  0  0  0
   11.3433   21.4503    0.0738 C   0  0  0  0  0  0  0  0  0  0  0  0
   12.0118   20.5442    0.6186 O   0  0  0  0  0  0  0  0  0  0  0  0
   10.2964   22.0684    0.7938 N   0  0  0  0  0  0  0  0  0  0  0  0
    9.5184   23.0924    0.1654 C   0  0  0  0  0  0  0  0  0  0  0  0
    8.4550   23.6718    1.0782 C   0  0  0  0  0  0  0  0  0  0  0  0
    8.9501   23.8470    2.4227 N   0  0  0  0  0  0  0  0  0  0  0  0
   10.0105   22.9997    2.9652 C   0  0  0  0  0  0  0  0  0  0  0  0
    9.9909   21.6938    2.1583 C   0  0  0  0  0  0  0  0  0  0  0  0
    8.4004   24.8498    3.2423 C   0  0  0  0  0  0  0  0  0  0  0  0
    7.1317   24.7229    3.7490 C   0  0  0  0  0  0  0  0  0  0  0  0
    6.6181   25.7366    4.5466 C   0  0  0  0  0  0  0  0  0  0  0  0
    7.3479   26.8687    4.8451 C   0  0  0  0  0  0  0  0  0  0  0  0
    8.6310   26.9996    4.3346 C   0  0  0  0  0  0  0  0  0  0  0  0
    9.1404   25.9961    3.5443 C   0  0  0  0  0  0  0  0  0  0  0  0
   13.4294   21.6335   -1.6826 S   0  0  0  0  0  0  0  0  0  0  0  0
   14.7896   23.9732   -0.8874 N   0  0  0  0  0  0  0  0  0  0  0  0
   15.5081   24.4236    0.1452 C   0  0  0  0  0  0  0  0  0  0  0  0
   15.5687   23.4334    1.0461 N   0  0  0  0  0  0  0  0  0  0  0  0
   14.9100   22.4105    0.5810 N   0  0  0  0  0  0  0  0  0  0  0  0
   14.4139   22.7200   -0.6230 C   0  0  0  0  0  0  0  0  0  0  0  0
   12.3586   25.3655   -0.9100 C   0  0  0  0  0  0  0  0  0  0  0  0
   13.2845   25.3960   -2.0797 C   0  0  0  0  0  0  0  0  0  0  0  0
   12.9677   26.1138   -3.2126 C   0  0  0  0  0  0  0  0  0  0  0  0
   13.8497   26.1252   -4.2878 C   0  0  0  0  0  0  0  0  0  0  0  0
   15.0445   25.4411   -4.2712 C   0  0  0  0  0  0  0  0  0  0  0  0
   15.3657   24.7220   -3.1411 C   0  0  0  0  0  0  0  0  0  0  0  0
   14.4796   24.7115   -2.0632 C   0  0  0  0  0  0  0  0  0  0  0  0
 22 23  1  0  0  0
 23 24  2  0  0  0
 24 25  1  0  0  0
 25 26  2  0  0  0
 26 27  1  0  0  0
 27 28  2  0  0  0
 28 17  1  0  0  0
 17 18  1  0  0  0
 18 19  2  0  0  0
 19 20  1  0  0  0
 20 21  2  0  0  0
 21 16  1  0  0  0
 16  1  1  0  0  0
  1  2  1  0  0  0
  2  3  2  0  0  0
  2  4  1  0  0  0
  4  5  1  0  0  0
  5  6  1  0  0  0
  6  7  1  0  0  0
  7 10  1  0  0  0
 10 11  2  0  0  0
 11 12  1  0  0  0
 12 13  2  0  0  0
 13 14  1  0  0  0
 14 15  2  0  0  0
  7  8  1  0  0  0
  8  9  1  0  0  0
 28 23  1  0  0  0
 21 17  1  0  0  0
  9  4  1  0  0  0
 15 10  1  0  0  0
M  END
> <minimizedAffinity>
-9.36802

> <CNNscore>
0.6661041975

> <CNNaffinity>
7.0649962425

> <CNN_VS>
4.7060236931

> <CNNaffinity_variance>
0.2128345072

$$$$
[H]c1c([H])c([H])c(N2C([H])([H])C([H])([H])N(C(=O)C([H])([H])Sc3nnc([H])n3-c3c([H])c([H])c([H])c([H])c3C([H])([H])[H])C([H])([H])C2([H])[H])c([H])c1[H]


 28 31  0  0  0  0  0  0  0  0999 V2000
   12.2519   25.4440   -2.9825 C   0  0  0  0  0  0  0  0  0  0  0  0
   12.6181   25.2542   -1.5652 C   0  0  0  0  0  0  0  0  0  0  0  0
   13.5853   25.8906   -1.0916 O   0  0  0  0  0  0  0  0  0  0  0  0
   11.8968   24.3683   -0.7337 N   0  0  0  0  0  0  0  0  0  0  0  0
   10.8015   23.6254   -1.2788 C   0  0  0  0  0  0  0  0  0  0  0  0
   10.1164   22.7428   -0.2534 C   0  0  0  0  0  0  0  0  0  0  0  0
    9.9885   23.4116    1.0193 N   0  0  0  0  0  0  0  0  0  0  0  0
   10.9365   24.4407    1.4427 C   0  0  0  0  0  0  0  0  0  0  0  0
   12.2358   24.1944    0.6628 C   0  0  0  0  0  0  0  0  0  0  0  0
    8.9339   23.0670    1.8845 C   0  0  0  0  0  0  0  0  0  0  0  0
    8.2453   24.0356    2.5699 C   0  0  0  0  0  0  0  0  0  0  0  0
    7.2165   23.6581    3.4223 C   0  0  0  0  0  0  0  0  0  0  0  0
    6.8660   22.3356    3.5995 C   0  0  0  0  0  0  0  0  0  0  0  0
    7.5601   21.3541    2.9075 C   0  0  0  0  0  0  0  0  0  0  0  0
    8.5795   21.7271    2.0631 C   0  0  0  0  0  0  0  0  0  0  0  0
   12.9097   27.0036   -3.6449 S   0  0  0  0  0  0  0  0  0  0  0  0
   15.3195   26.1071   -4.8051 N   0  0  0  0  0  0  0  0  0  0  0  0
   15.8901   26.0187   -6.0101 C   0  0  0  0  0  0  0  0  0  0  0  0
   15.0163   26.5124   -6.8980 N   0  0  0  0  0  0  0  0  0  0  0  0
   13.9465   26.8910   -6.2587 N   0  0  0  0  0  0  0  0  0  0  0  0
   14.1089   26.6496   -4.9523 C   0  0  0  0  0  0  0  0  0  0  0  0
   15.1233   23.3868   -4.1645 C   0  0  0  0  0  0  0  0  0  0  0  0
   15.8121   24.3524   -3.2592 C   0  0  0  0  0  0  0  0  0  0  0  0
   16.3741   23.9311   -2.0736 C   0  0  0  0  0  0  0  0  0  0  0  0
   17.0107   24.8528   -1.2493 C   0  0  0  0  0  0  0  0  0  0  0  0
   17.1066   26.1885   -1.5694 C   0  0  0  0  0  0  0  0  0  0  0  0
   16.5462   26.6146   -2.7534 C   0  0  0  0  0  0  0  0  0  0  0  0
   15.9078   25.6886   -3.5793 C   0  0  0  0  0  0  0  0  0  0  0  0
 22 23  1  0  0  0
 23 24  2  0  0  0
 24 25  1  0  0  0
 25 26  2  0  0  0
 26 27  1  0  0  0
 27 28  2  0  0  0
 28 17  1  0  0  0
 17 18  1  0  0  0
 18 19  2  0  0  0
 19 20  1  0  0  0
 20 21  2  0  0  0
 21 16  1  0  0  0
 16  1  1  0  0  0
  1  2  1  0  0  0
  2  3  2  0  0  0
  2  4  1  0  0  0
  4  5  1  0  0  0
  5  6  1  0  0  0
  6  7  1  0  0  0
  7 10  1  0  0  0
 10 11  2  0  0  0
 11 12  1  0  0  0
 12 13  2  0  0  0
 13 14  1  0  0  0
 14 15  2  0  0  0
  7  8  1  0  0  0
  8  9  1  0  0  0
 28 23  1  0  0  0
 21 17  1  0  0  0
  9  4  1  0  0  0
 15 10  1  0  0  0
M  END
> <minimizedAffinity>
-4.27223

> <CNNscore>
0.6372376680

> <CNNaffinity>
6.9987807274

> <CNN_VS>
4.4598865509

> <CNNaffinity_variance>
0.2984960079

$$$$
[H]c1c([H])c([H])c(N2C([H])([H])C([H])([H])N(C(=O)C([H])([H])Sc3nnc([H])n3-c3c([H])c([H])c([H])c([H])c3C([H])([H])[H])C([H])([H])C2([H])[H])c([H])c1[H]


 28 31  0  0  0  0  0  0  0  0999 V2000
   12.8398   25.3633    0.0640 C   0  0  0  0  0  0  0  0  0  0  0  0
   13.0150   24.0212    0.6529 C   0  0  0  0  0  0  0  0  0  0  0  0
   14.1666   23.6193    0.9305 O   0  0  0  0  0  0  0  0  0  0  0  0
   11.9071   23.1826    0.9095 N   0  0  0  0  0  0  0  0  0  0  0  0
   10.5904   23.6335    0.5752 C   0  0  0  0  0  0  0  0  0  0  0  0
    9.5118   22.6308    0.9375 C   0  0  0  0  0  0  0  0  0  0  0  0
    9.7732   22.0107    2.2145 N   0  0  0  0  0  0  0  0  0  0  0  0
   11.1338   21.8522    2.7250 C   0  0  0  0  0  0  0  0  0  0  0  0
   12.0693   21.8745    1.5080 C   0  0  0  0  0  0  0  0  0  0  0  0
    8.7003   21.5369    2.9915 C   0  0  0  0  0  0  0  0  0  0  0  0
    7.4170   21.5695    2.5074 C   0  0  0  0  0  0  0  0  0  0  0  0
    6.3816   21.1021    3.3057 C   0  0  0  0  0  0  0  0  0  0  0  0
    6.6066   20.6049    4.5728 C   0  0  0  0  0  0  0  0  0  0  0  0
    7.9031   20.5703    5.0647 C   0  0  0  0  0  0  0  0  0  0  0  0
    8.9292   21.0332    4.2747 C   0  0  0  0  0  0  0  0  0  0  0  0
   12.6776   25.2891   -1.7448 S   0  0  0  0  0  0  0  0  0  0  0  0
   14.7961   24.1237   -3.1976 N   0  0  0  0  0  0  0  0  0  0  0  0
   15.3015   22.9134   -3.4531 C   0  0  0  0  0  0  0  0  0  0  0  0
   14.5435   22.0227   -2.7989 N   0  0  0  0  0  0  0  0  0  0  0  0
   13.6050   22.6654   -2.1643 N   0  0  0  0  0  0  0  0  0  0  0  0
   13.7392   23.9769   -2.3958 C   0  0  0  0  0  0  0  0  0  0  0  0
   16.7225   25.4278   -1.6367 C   0  0  0  0  0  0  0  0  0  0  0  0
   16.2518   26.0002   -2.9317 C   0  0  0  0  0  0  0  0  0  0  0  0
   16.7537   27.1953   -3.3995 C   0  0  0  0  0  0  0  0  0  0  0  0
   16.2974   27.7052   -4.6103 C   0  0  0  0  0  0  0  0  0  0  0  0
   15.3520   27.0595   -5.3752 C   0  0  0  0  0  0  0  0  0  0  0  0
   14.8471   25.8646   -4.9118 C   0  0  0  0  0  0  0  0  0  0  0  0
   15.3058   25.3544   -3.6967 C   0  0  0  0  0  0  0  0  0  0  0  0
 22 23  1  0  0  0
 23 24  2  0  0  0
 24 25  1  0  0  0
 25 26  2  0  0  0
 26 27  1  0  0  0
 27 28  2  0  0  0
 28 17  1  0  0  0
 17 18  1  0  0  0
 18 19  2  0  0  0
 19 20  1  0  0  0
 20 21  2  0  0  0
 21 16  1  0  0  0
 16  1  1  0  0  0
  1  2  1  0  0  0
  2  3  2  0  0  0
  2  4  1  0  0  0
  4  5  1  0  0  0
  5  6  1  0  0  0
  6  7  1  0  0  0
  7 10  1  0  0  0
 10 11  2  0  0  0
 11 12  1  0  0  0
 12 13  2  0  0  0
 13 14  1  0  0  0
 14 15  2  0  0  0
  7  8  1  0  0  0
  8  9  1  0  0  0
 28 23  1  0  0  0
 21 17  1  0  0  0
  9  4  1  0  0  0
 15 10  1  0  0  0
M  END
> <minimizedAffinity>
-9.46207

> <CNNscore>
0.5405600667

> <CNNaffinity>
6.8539404869

> <CNN_VS>
3.7049665451

> <CNNaffinity_variance>
0.3086321950

$$$$
[H]c1c([H])c([H])c(N2C([H])([H])C([H])([H])N(C(=O)C([H])([H])Sc3nnc([H])n3-c3c([H])c([H])c([H])c([H])c3C([H])([H])[H])C([H])([H])C2([H])[H])c([H])c1[H]


 28 31  0  0  0  0  0  0  0  0999 V2000
   16.6085   26.4259   -4.9641 C   0  0  0  0  0  0  0  0  0  0  0  0
   15.2808   26.9520   -4.5908 C   0  0  0  0  0  0  0  0  0  0  0  0
   14.7774   27.8784   -5.2638 O   0  0  0  0  0  0  0  0  0  0  0  0
   14.5680   26.4286   -3.4888 N   0  0  0  0  0  0  0  0  0  0  0  0
   15.1507   25.3813   -2.7064 C   0  0  0  0  0  0  0  0  0  0  0  0
   14.2498   24.9128   -1.5800 C   0  0  0  0  0  0  0  0  0  0  0  0
   12.8719   24.8335   -2.0026 N   0  0  0  0  0  0  0  0  0  0  0  0
   12.3459   25.6890   -3.0649 C   0  0  0  0  0  0  0  0  0  0  0  0
   13.2557   26.9239   -3.1309 C   0  0  0  0  0  0  0  0  0  0  0  0
   12.0033   23.9196   -1.3784 C   0  0  0  0  0  0  0  0  0  0  0  0
   11.1764   24.3224   -0.3604 C   0  0  0  0  0  0  0  0  0  0  0  0
   10.3391   23.3911    0.2387 C   0  0  0  0  0  0  0  0  0  0  0  0
   10.3143   22.0708   -0.1610 C   0  0  0  0  0  0  0  0  0  0  0  0
   11.1489   21.6607   -1.1902 C   0  0  0  0  0  0  0  0  0  0  0  0
   11.9787   22.5826   -1.7841 C   0  0  0  0  0  0  0  0  0  0  0  0
   17.5080   25.7830   -3.5214 S   0  0  0  0  0  0  0  0  0  0  0  0
   17.2693   26.4044   -0.7803 N   0  0  0  0  0  0  0  0  0  0  0  0
   16.8019   27.3854   -0.0029 C   0  0  0  0  0  0  0  0  0  0  0  0
   16.3155   28.3346   -0.8142 N   0  0  0  0  0  0  0  0  0  0  0  0
   16.4790   27.9481   -2.0472 N   0  0  0  0  0  0  0  0  0  0  0  0
   17.0714   26.7479   -2.0548 C   0  0  0  0  0  0  0  0  0  0  0  0
   15.5869   24.1981   -0.3921 C   0  0  0  0  0  0  0  0  0  0  0  0
   17.0527   24.1161   -0.1257 C   0  0  0  0  0  0  0  0  0  0  0  0
   17.6245   22.9454    0.3230 C   0  0  0  0  0  0  0  0  0  0  0  0
   18.9936   22.8971    0.5625 C   0  0  0  0  0  0  0  0  0  0  0  0
   19.8170   23.9834    0.3681 C   0  0  0  0  0  0  0  0  0  0  0  0
   19.2501   25.1562   -0.0802 C   0  0  0  0  0  0  0  0  0  0  0  0
   17.8763   25.2030   -0.3199 C   0  0  0  0  0  0  0  0  0  0  0  0
 22 23  1  0  0  0
 23 24  2  0  0  0
 24 25  1  0  0  0
 25 26  2  0  0  0
 26 27  1  0  0  0
 27 28  2  0  0  0
 28 17  1  0  0  0
 17 18  1  0  0  0
 18 19  2  0  0  0
 19 20  1  0  0  0
 20 21  2  0  0  0
 21 16  1  0  0  0
 16  1  1  0  0  0
  1  2  1  0  0  0
  2  3  2  0  0  0
  2  4  1  0  0  0
  4  5  1  0  0  0
  5  6  1  0  0  0
  6  7  1  0  0  0
  7 10  1  0  0  0
 10 11  2  0  0  0
 11 12  1  0  0  0
 12 13  2  0  0  0
 13 14  1  0  0  0
 14 15  2  0  0  0
  7  8  1  0  0  0
  8  9  1  0  0  0
 28 23  1  0  0  0
 21 17  1  0  0  0
  9  4  1  0  0  0
 15 10  1  0  0  0
M  END
> <minimizedAffinity>
29.98449

> <CNNscore>
0.5380225182

> <CNNaffinity>
7.1544547081

> <CNN_VS>
3.8492577076

> <CNNaffinity_variance>
1.1527384520

$$$$
[H]c1c([H])c([H])c(N2C([H])([H])C([H])([H])N(C(=O)C([H])([H])Sc3nnc([H])n3-c3c([H])c([H])c([H])c([H])c3C([H])([H])[H])C([H])([H])C2([H])[H])c([H])c1[H]


 28 31  0  0  0  0  0  0  0  0999 V2000
   12.7691   28.0939   -4.8614 C   0  0  0  0  0  0  0  0  0  0  0  0
   14.0699   27.8534   -4.2063 C   0  0  0  0  0  0  0  0  0  0  0  0
   14.8490   28.8141   -4.0199 O   0  0  0  0  0  0  0  0  0  0  0  0
   14.4510   26.5595   -3.7856 N   0  0  0  0  0  0  0  0  0  0  0  0
   13.5686   25.4561   -4.0150 C   0  0  0  0  0  0  0  0  0  0  0  0
   14.1107   24.1441   -3.4815 C   0  0  0  0  0  0  0  0  0  0  0  0
   14.7503   24.3182   -2.1993 N   0  0  0  0  0  0  0  0  0  0  0  0
   15.3709   25.5858   -1.8184 C   0  0  0  0  0  0  0  0  0  0  0  0
   15.7150   26.3201   -3.1220 C   0  0  0  0  0  0  0  0  0  0  0  0
   14.7899   23.2459   -1.2892 C   0  0  0  0  0  0  0  0  0  0  0  0
   14.8403   23.4759    0.0624 C   0  0  0  0  0  0  0  0  0  0  0  0
   14.8878   22.3935    0.9306 C   0  0  0  0  0  0  0  0  0  0  0  0
   14.8852   21.0921    0.4727 C   0  0  0  0  0  0  0  0  0  0  0  0
   14.8338   20.8565   -0.8932 C   0  0  0  0  0  0  0  0  0  0  0  0
   14.7869   21.9280   -1.7540 C   0  0  0  0  0  0  0  0  0  0  0  0
   11.5676   28.8395   -3.7192 S   0  0  0  0  0  0  0  0  0  0  0  0
    9.7482   30.7746   -4.6687 N   0  0  0  0  0  0  0  0  0  0  0  0
    9.7563   32.0245   -5.1410 C   0  0  0  0  0  0  0  0  0  0  0  0
   11.0308   32.4386   -5.1403 N   0  0  0  0  0  0  0  0  0  0  0  0
   11.7785   31.4749   -4.6835 N   0  0  0  0  0  0  0  0  0  0  0  0
   11.0041   30.4256   -4.3819 C   0  0  0  0  0  0  0  0  0  0  0  0
    9.0220   29.1355   -6.8216 C   0  0  0  0  0  0  0  0  0  0  0  0
    8.2306   29.1561   -5.5569 C   0  0  0  0  0  0  0  0  0  0  0  0
    7.1116   28.3651   -5.4111 C   0  0  0  0  0  0  0  0  0  0  0  0
    6.3932   28.4038   -4.2209 C   0  0  0  0  0  0  0  0  0  0  0  0
    6.7552   29.2094   -3.1646 C   0  0  0  0  0  0  0  0  0  0  0  0
    7.8729   30.0021   -3.3055 C   0  0  0  0  0  0  0  0  0  0  0  0
    8.5926   29.9622   -4.5003 C   0  0  0  0  0  0  0  0  0  0  0  0
 22 23  1  0  0  0
 23 24  2  0  0  0
 24 25  1  0  0  0
 25 26  2  0  0  0
 26 27  1  0  0  0
 27 28  2  0  0  0
 28 17  1  0  0  0
 17 18  1  0  0  0
 18 19  2  0  0  0
 19 20  1  0  0  0
 20 21  2  0  0  0
 21 16  1  0  0  0
 16  1  1  0  0  0
  1  2  1  0  0  0
  2  3  2  0  0  0
  2  4  1  0  0  0
  4  5  1  0  0  0
  5  6  1  0  0  0
  6  7  1  0  0  0
  7 10  1  0  0  0
 10 11  2  0  0  0
 11 12  1  0  0  0
 12 13  2  0  0  0
 13 14  1  0  0  0
 14 15  2  0  0  0
  7  8  1  0  0  0
  8  9  1  0  0  0
 28 23  1  0  0  0
 21 17  1  0  0  0
  9  4  1  0  0  0
 15 10  1  0  0  0
M  END
> <minimizedAffinity>
18.58520

> <CNNscore>
0.4557400048

> <CNNaffinity>
6.2206354141

> <CNN_VS>
2.8349924088

> <CNNaffinity_variance>
0.8209779859

$$$$
[H]c1c([H])c([H])c(N2C([H])([H])C([H])([H])N(C(=O)C([H])([H])Sc3nnc([H])n3-c3c([H])c([H])c([H])c([H])c3C([H])([H])[H])C([H])([H])C2([H])[H])c([H])c1[H]


 28 31  0  0  0  0  0  0  0  0999 V2000
   12.0080   24.4687    2.1347 C   0  0  0  0  0  0  0  0  0  0  0  0
   12.3448   23.5472    1.0319 C   0  0  0  0  0  0  0  0  0  0  0  0
   13.5394   23.2277    0.8435 O   0  0  0  0  0  0  0  0  0  0  0  0
   11.3438   23.0190    0.1860 N   0  0  0  0  0  0  0  0  0  0  0  0
    9.9786   23.3983    0.3885 C   0  0  0  0  0  0  0  0  0  0  0  0
    9.0273   22.7255   -0.5821 C   0  0  0  0  0  0  0  0  0  0  0  0
    9.3808   21.3425   -0.7966 N   0  0  0  0  0  0  0  0  0  0  0  0
   10.7598   20.8752   -0.6667 C   0  0  0  0  0  0  0  0  0  0  0  0
   11.6640   22.0969   -0.8829 C   0  0  0  0  0  0  0  0  0  0  0  0
    8.3829   20.4147   -1.1471 C   0  0  0  0  0  0  0  0  0  0  0  0
    8.1662   20.0817   -2.4602 C   0  0  0  0  0  0  0  0  0  0  0  0
    7.1666   19.1693   -2.7699 C   0  0  0  0  0  0  0  0  0  0  0  0
    6.3844   18.5870   -1.7939 C   0  0  0  0  0  0  0  0  0  0  0  0
    6.6015   18.9215   -0.4653 C   0  0  0  0  0  0  0  0  0  0  0  0
    7.5913   19.8252   -0.1578 C   0  0  0  0  0  0  0  0  0  0  0  0
   10.6575   23.8212    3.1646 S   0  0  0  0  0  0  0  0  0  0  0  0
   10.4597   21.3226    4.4586 N   0  0  0  0  0  0  0  0  0  0  0  0
   11.2515   20.4291    5.0585 C   0  0  0  0  0  0  0  0  0  0  0  0
   12.5023   20.9063    4.9982 N   0  0  0  0  0  0  0  0  0  0  0  0
   12.4776   22.0539    4.3825 N   0  0  0  0  0  0  0  0  0  0  0  0
   11.2164   22.3373    4.0353 C   0  0  0  0  0  0  0  0  0  0  0  0
    9.5440   20.1337    2.0929 C   0  0  0  0  0  0  0  0  0  0  0  0
    8.5961   20.6213    3.1370 C   0  0  0  0  0  0  0  0  0  0  0  0
    7.2340   20.5010    2.9659 C   0  0  0  0  0  0  0  0  0  0  0  0
    6.3737   20.9635    3.9559 C   0  0  0  0  0  0  0  0  0  0  0  0
    6.8284   21.5451    5.1180 C   0  0  0  0  0  0  0  0  0  0  0  0
    8.1892   21.6678    5.2938 C   0  0  0  0  0  0  0  0  0  0  0  0
    9.0511   21.2034    4.2995 C   0  0  0  0  0  0  0  0  0  0  0  0
 22 23  1  0  0  0
 23 24  2  0  0  0
 24 25  1  0  0  0
 25 26  2  0  0  0
 26 27  1  0  0  0
 27 28  2  0  0  0
 28 17  1  0  0  0
 17 18  1  0  0  0
 18 19  2  0  0  0
 19 20  1  0  0  0
 20 21  2  0  0  0
 21 16  1  0  0  0
 16  1  1  0  0  0
  1  2  1  0  0  0
  2  3  2  0  0  0
  2  4  1  0  0  0
  4  5  1  0  0  0
  5  6  1  0  0  0
  6  7  1  0  0  0
  7 10  1  0  0  0
 10 11  2  0  0  0
 11 12  1  0  0  0
 12 13  2  0  0  0
 13 14  1  0  0  0
 14 15  2  0  0  0
  7  8  1  0  0  0
  8  9  1  0  0  0
 28 23  1  0  0  0
 21 17  1  0  0  0
  9  4  1  0  0  0
 15 10  1  0  0  0
M  END
> <minimizedAffinity>
7.02318

> <CNNscore>
0.4182107449

> <CNNaffinity>
6.0658025742

> <CNN_VS>
2.5367836952

> <CNNaffinity_variance>
1.0783178806

$$$$
[H]c1c([H])c([H])c(N2C([H])([H])C([H])([H])N(C(=O)C([H])([H])Sc3nnc([H])n3-c3c([H])c([H])c([H])c([H])c3C([H])([H])[H])C([H])([H])C2([H])[H])c([H])c1[H]


 28 31  0  0  0  0  0  0  0  0999 V2000
   15.7104   23.7350   -2.8210 C   0  0  0  0  0  0  0  0  0  0  0  0
   15.6169   24.0795   -1.3887 C   0  0  0  0  0  0  0  0  0  0  0  0
   16.4102   24.9181   -0.9069 O   0  0  0  0  0  0  0  0  0  0  0  0
   14.6482   23.4807   -0.5522 N   0  0  0  0  0  0  0  0  0  0  0  0
   13.7519   22.5071   -1.0976 C   0  0  0  0  0  0  0  0  0  0  0  0
   12.7582   21.9816   -0.0796 C   0  0  0  0  0  0  0  0  0  0  0  0
   12.2652   23.0373    0.7723 N   0  0  0  0  0  0  0  0  0  0  0  0
   13.0675   24.2239    1.0643 C   0  0  0  0  0  0  0  0  0  0  0  0
   14.5357   23.8305    0.8479 C   0  0  0  0  0  0  0  0  0  0  0  0
   10.9857   22.9284    1.3471 C   0  0  0  0  0  0  0  0  0  0  0  0
    9.8984   23.5171    0.7525 C   0  0  0  0  0  0  0  0  0  0  0  0
    8.6523   23.3968    1.3529 C   0  0  0  0  0  0  0  0  0  0  0  0
    8.4759   22.7010    2.5311 C   0  0  0  0  0  0  0  0  0  0  0  0
    9.5733   22.1044    3.1342 C   0  0  0  0  0  0  0  0  0  0  0  0
   10.8079   22.2232    2.5403 C   0  0  0  0  0  0  0  0  0  0  0  0
   14.0902   23.8174   -3.6406 S   0  0  0  0  0  0  0  0  0  0  0  0
   13.7538   26.4823   -4.5017 N   0  0  0  0  0  0  0  0  0  0  0  0
   13.1184   27.5949   -4.1226 C   0  0  0  0  0  0  0  0  0  0  0  0
   12.4551   27.3061   -2.9946 N   0  0  0  0  0  0  0  0  0  0  0  0
   12.6768   26.0586   -2.6925 N   0  0  0  0  0  0  0  0  0  0  0  0
   13.4835   25.5215   -3.6156 C   0  0  0  0  0  0  0  0  0  0  0  0
   16.5256   26.6002   -4.1117 C   0  0  0  0  0  0  0  0  0  0  0  0
   15.9376   26.4110   -5.4700 C   0  0  0  0  0  0  0  0  0  0  0  0
   16.7465   26.2893   -6.5790 C   0  0  0  0  0  0  0  0  0  0  0  0
   16.1712   26.1131   -7.8329 C   0  0  0  0  0  0  0  0  0  0  0  0
   14.8084   26.0536   -8.0194 C   0  0  0  0  0  0  0  0  0  0  0  0
   13.9955   26.1749   -6.9140 C   0  0  0  0  0  0  0  0  0  0  0  0
   14.5742   26.3518   -5.6566 C   0  0  0  0  0  0  0  0  0  0  0  0
 22 23  1  0  0  0
 23 24  2  0  0  0
 24 25  1  0  0  0
 25 26  2  0  0  0
 26 27  1  0  0  0
 27 28  2  0  0  0
 28 17  1  0  0  0
 17 18  1  0  0  0
 18 19  2  0  0  0
 19 20  1  0  0  0
 20 21  2  0  0  0
 21 16  1  0  0  0
 16  1  1  0  0  0
  1  2  1  0  0  0
  2  3  2  0  0  0
  2  4  1  0  0  0
  4  5  1  0  0  0
  5  6  1  0  0  0
  6  7  1  0  0  0
  7 10  1  0  0  0
 10 11  2  0  0  0
 11 12  1  0  0  0
 12 13  2  0  0  0
 13 14  1  0  0  0
 14 15  2  0  0  0
  7  8  1  0  0  0
  8  9  1  0  0  0
 28 23  1  0  0  0
 21 17  1  0  0  0
  9  4  1  0  0  0
 15 10  1  0  0  0
M  END
> <minimizedAffinity>
0.59498

> <CNNscore>
0.3714887202

> <CNNaffinity>
6.6847777367

> <CNN_VS>
2.4833195210

> <CNNaffinity_variance>
0.4184441566

$$$$
[H]c1c([H])c([H])c(N2C([H])([H])C([H])([H])N(C(=O)C([H])([H])Sc3nnc([H])n3-c3c([H])c([H])c([H])c([H])c3C([H])([H])[H])C([H])([H])C2([H])[H])c([H])c1[H]


 28 31  0  0  0  0  0  0  0  0999 V2000
   15.1138   20.5960    0.0388 C   0  0  0  0  0  0  0  0  0  0  0  0
   15.4182   21.9914    0.4117 C   0  0  0  0  0  0  0  0  0  0  0  0
   15.9720   22.2258    1.5086 O   0  0  0  0  0  0  0  0  0  0  0  0
   15.0968   23.0667   -0.4468 N   0  0  0  0  0  0  0  0  0  0  0  0
   14.4464   22.8018   -1.6939 C   0  0  0  0  0  0  0  0  0  0  0  0
   14.1957   24.0561   -2.5088 C   0  0  0  0  0  0  0  0  0  0  0  0
   15.3174   24.9621   -2.4439 N   0  0  0  0  0  0  0  0  0  0  0  0
   16.2081   24.9970   -1.2853 C   0  0  0  0  0  0  0  0  0  0  0  0
   15.4131   24.4355   -0.0980 C   0  0  0  0  0  0  0  0  0  0  0  0
   15.5643   25.8428   -3.5130 C   0  0  0  0  0  0  0  0  0  0  0  0
   16.4460   26.8845   -3.3730 C   0  0  0  0  0  0  0  0  0  0  0  0
   16.6580   27.7393   -4.4463 C   0  0  0  0  0  0  0  0  0  0  0  0
   16.0071   27.5707   -5.6510 C   0  0  0  0  0  0  0  0  0  0  0  0
   15.1154   26.5180   -5.7956 C   0  0  0  0  0  0  0  0  0  0  0  0
   14.9048   25.6710   -4.7329 C   0  0  0  0  0  0  0  0  0  0  0  0
   13.3285   20.3303   -0.1751 S   0  0  0  0  0  0  0  0  0  0  0  0
   11.7434   21.8931    1.5575 N   0  0  0  0  0  0  0  0  0  0  0  0
   11.2735   21.8554    2.8078 C   0  0  0  0  0  0  0  0  0  0  0  0
   11.7099   20.7149    3.3596 N   0  0  0  0  0  0  0  0  0  0  0  0
   12.4234   20.0753    2.4774 N   0  0  0  0  0  0  0  0  0  0  0  0
   12.4606   20.7877    1.3448 C   0  0  0  0  0  0  0  0  0  0  0  0
    9.9680   21.3435   -0.5388 C   0  0  0  0  0  0  0  0  0  0  0  0
   10.6404   22.6697   -0.4152 C   0  0  0  0  0  0  0  0  0  0  0  0
   10.4069   23.6684   -1.3356 C   0  0  0  0  0  0  0  0  0  0  0  0
   11.0468   24.8952   -1.1954 C   0  0  0  0  0  0  0  0  0  0  0  0
   11.9169   25.1615   -0.1621 C   0  0  0  0  0  0  0  0  0  0  0  0
   12.1539   24.1663    0.7604 C   0  0  0  0  0  0  0  0  0  0  0  0
   11.5111   22.9360    0.6183 C   0  0  0  0  0  0  0  0  0  0  0  0
 22 23  1  0  0  0
 23 24  2  0  0  0
 24 25  1  0  0  0
 25 26  2  0  0  0
 26 27  1  0  0  0
 27 28  2  0  0  0
 28 17  1  0  0  0
 17 18  1  0  0  0
 18 19  2  0  0  0
 19 20  1  0  0  0
 20 21  2  0  0  0
 21 16  1  0  0  0
 16  1  1  0  0  0
  1  2  1  0  0  0
  2  3  2  0  0  0
  2  4  1  0  0  0
  4  5  1  0  0  0
  5  6  1  0  0  0
  6  7  1  0  0  0
  7 10  1  0  0  0
 10 11  2  0  0  0
 11 12  1  0  0  0
 12 13  2  0  0  0
 13 14  1  0  0  0
 14 15  2  0  0  0
  7  8  1  0  0  0
  8  9  1  0  0  0
 28 23  1  0  0  0
 21 17  1  0  0  0
  9  4  1  0  0  0
 15 10  1  0  0  0
M  END
> <minimizedAffinity>
-8.68149

> <CNNscore>
0.3608573973

> <CNNaffinity>
7.3787336349

> <CNN_VS>
2.6626706123

> <CNNaffinity_variance>
0.0382097065

$$$$
[H]c1c([H])c([H])c(N2C([H])([H])C([H])([H])N(C(=O)C([H])([H])Sc3nnc([H])n3-c3c([H])c([H])c([H])c([H])c3C([H])([H])[H])C([H])([H])C2([H])[H])c([H])c1[H]


 28 31  0  0  0  0  0  0  0  0999 V2000
   12.9089   26.0998   -1.5151 C   0  0  0  0  0  0  0  0  0  0  0  0
   11.8992   25.0323   -1.6559 C   0  0  0  0  0  0  0  0  0  0  0  0
   11.5371   24.6784   -2.7997 O   0  0  0  0  0  0  0  0  0  0  0  0
   11.3351   24.4026   -0.5238 N   0  0  0  0  0  0  0  0  0  0  0  0
   11.7346   24.8193    0.7859 C   0  0  0  0  0  0  0  0  0  0  0  0
   11.0596   24.0287    1.8901 C   0  0  0  0  0  0  0  0  0  0  0  0
   10.9742   22.6261    1.5603 N   0  0  0  0  0  0  0  0  0  0  0  0
   10.9074   22.1677    0.1738 C   0  0  0  0  0  0  0  0  0  0  0  0
   10.3615   23.3393   -0.6546 C   0  0  0  0  0  0  0  0  0  0  0  0
   10.9460   21.6686    2.5908 C   0  0  0  0  0  0  0  0  0  0  0  0
   10.2999   21.9301    3.7724 C   0  0  0  0  0  0  0  0  0  0  0  0
   10.3005   20.9654    4.7708 C   0  0  0  0  0  0  0  0  0  0  0  0
   10.9326   19.7499    4.6084 C   0  0  0  0  0  0  0  0  0  0  0  0
   11.5863   19.4825    3.4146 C   0  0  0  0  0  0  0  0  0  0  0  0
   11.5863   20.4375    2.4252 C   0  0  0  0  0  0  0  0  0  0  0  0
   13.2573   26.9111   -3.1039 S   0  0  0  0  0  0  0  0  0  0  0  0
   15.1636   24.9072   -3.6583 N   0  0  0  0  0  0  0  0  0  0  0  0
   15.7805   24.3619   -4.7105 C   0  0  0  0  0  0  0  0  0  0  0  0
   15.3198   24.9838   -5.8045 N   0  0  0  0  0  0  0  0  0  0  0  0
   14.4501   25.8803   -5.4350 N   0  0  0  0  0  0  0  0  0  0  0  0
   14.3337   25.8537   -4.1019 C   0  0  0  0  0  0  0  0  0  0  0  0
   16.9391   26.4695   -2.1564 C   0  0  0  0  0  0  0  0  0  0  0  0
   16.2346   25.2983   -1.5579 C   0  0  0  0  0  0  0  0  0  0  0  0
   16.4394   24.9485   -0.2408 C   0  0  0  0  0  0  0  0  0  0  0  0
   15.7688   23.8523    0.2912 C   0  0  0  0  0  0  0  0  0  0  0  0
   14.8953   23.0887   -0.4502 C   0  0  0  0  0  0  0  0  0  0  0  0
   14.6873   23.4342   -1.7674 C   0  0  0  0  0  0  0  0  0  0  0  0
   15.3610   24.5342   -2.2997 C   0  0  0  0  0  0  0  0  0  0  0  0
 22 23  1  0  0  0
 23 24  2  0  0  0
 24 25  1  0  0  0
 25 26  2  0  0  0
 26 27  1  0  0  0
 27 28  2  0  0  0
 28 17  1  0  0  0
 17 18  1  0  0  0
 18 19  2  0  0  0
 19 20  1  0  0  0
 20 21  2  0  0  0
 21 16  1  0  0  0
 16  1  1  0  0  0
  1  2  1  0  0  0
  2  3  2  0  0  0
  2  4  1  0  0  0
  4  5  1  0  0  0
  5  6  1  0  0  0
  6  7  1  0  0  0
  7 10  1  0  0  0
 10 11  2  0  0  0
 11 12  1  0  0  0
 12 13  2  0  0  0
 13 14  1  0  0  0
 14 15  2  0  0  0
  7  8  1  0  0  0
  8  9  1  0  0  0
 28 23  1  0  0  0
 21 17  1  0  0  0
  9  4  1  0  0  0
 15 10  1  0  0  0
M  END
> <minimizedAffinity>
-4.93018

> <CNNscore>
0.3496654928

> <CNNaffinity>
6.8220314980

> <CNN_VS>
2.3854289055

> <CNNaffinity_variance>
0.2477886975

$$$$
[H]OC(C([H])([H])[H])(C([H])([H])[H])C([H])([H])C([H])([H])N([H])S(=O)(=O)c1c([H])c([H])c(C([H])([H])[H])c(-c2c([H])nc(N([H])[H])c(-c3onc(C([H])([H])[H])c3[H])c2[H])c1[H]


 34 36  0  0  0  0  0  0  0  0999 V2000
   14.3807   24.3620   -2.6969 C   0  0  0  0  0  0  0  0  0  0  0  0
   13.5747   24.2509   -1.5576 C   0  0  0  0  0  0  0  0  0  0  0  0
   13.3524   23.0376   -0.9413 C   0  0  0  0  0  0  0  0  0  0  0  0
   13.9242   21.8940   -1.4370 C   0  0  0  0  0  0  0  0  0  0  0  0
   14.7222   21.9761   -2.5571 C   0  0  0  0  0  0  0  0  0  0  0  0
   14.9466   23.2171   -3.1828 C   0  0  0  0  0  0  0  0  0  0  0  0
   15.8277   23.2809   -4.3795 C   0  0  0  0  0  0  0  0  0  0  0  0
   13.7567   27.7766   -4.0489 C   0  0  0  0  0  0  0  0  0  0  0  0
   13.5411   26.5485   -3.4071 C   0  0  0  0  0  0  0  0  0  0  0  0
   14.5877   25.6531   -3.3428 C   0  0  0  0  0  0  0  0  0  0  0  0
   15.7944   26.0092   -3.9129 C   0  0  0  0  0  0  0  0  0  0  0  0
   15.9842   27.1849   -4.5215 N   0  0  0  0  0  0  0  0  0  0  0  0
   14.9591   28.0814   -4.5933 C   0  0  0  0  0  0  0  0  0  0  0  0
   15.2040   29.3100   -5.2448 N   0  0  0  0  0  0  0  0  0  0  0  0
   15.0602   29.4575   -6.2705 H   0  0  0  0  0  0  0  0  0  0  0  0
   15.5441   30.1253   -4.7067 H   0  0  0  0  0  0  0  0  0  0  0  0
    9.2508   29.9718   -4.8424 C   0  0  0  0  0  0  0  0  0  0  0  0
   10.6491   29.6755   -4.4070 C   0  0  0  0  0  0  0  0  0  0  0  0
   11.3899   28.5079   -4.6728 C   0  0  0  0  0  0  0  0  0  0  0  0
   12.6021   28.6845   -4.0825 C   0  0  0  0  0  0  0  0  0  0  0  0
   12.5968   29.8758   -3.4993 O   0  0  0  0  0  0  0  0  0  0  0  0
   11.4711   30.4443   -3.6877 N   0  0  0  0  0  0  0  0  0  0  0  0
   12.3259   22.9646    0.4921 S   0  0  0  0  0  0  0  0  0  0  0  0
   13.0968   23.6215    1.6141 O   0  0  0  0  0  0  0  0  0  0  0  0
   11.0458   23.6704    0.2157 O   0  0  0  0  0  0  0  0  0  0  0  0
   12.1184   21.3222    0.8971 N   0  0  0  0  0  0  0  0  0  0  0  0
   13.0569   20.9686    1.2467 H   0  0  0  0  0  0  0  0  0  0  0  0
   11.1088   21.1199    1.9163 C   0  0  0  0  0  0  0  0  0  0  0  0
   11.5441   20.1582    2.9736 C   0  0  0  0  0  0  0  0  0  0  0  0
   10.8181   20.3236    4.2667 C   0  0  0  0  0  0  0  0  0  0  0  0
    9.3867   20.7340    4.1403 C   0  0  0  0  0  0  0  0  0  0  0  0
   10.8857   19.0270    5.0363 C   0  0  0  0  0  0  0  0  0  0  0  0
   11.4725   21.2861    5.0380 O   0  0  0  0  0  0  0  0  0  0  0  0
   11.4649   21.0616    5.9900 H   0  0  0  0  0  0  0  0  0  0  0  0
 17 18  1  0  0  0
 18 19  1  0  0  0
 19 20  2  0  0  0
 20  8  1  0  0  0
  8  9  2  0  0  0
  9 10  1  0  0  0
 10  1  1  0  0  0
  1  2  2  0  0  0
  2  3  1  0  0  0
  3 23  1  0  0  0
 23 24  2  0  0  0
 23 25  2  0  0  0
 23 26  1  0  0  0
 26 28  1  0  0  0
 28 29  1  0  0  0
 29 30  1  0  0  0
 30 31  1  0  0  0
 30 32  1  0  0  0
 30 33  1  0  0  0
  3  4  2  0  0  0
  4  5  1  0  0  0
  5  6  2  0  0  0
  6  7  1  0  0  0
 10 11  2  0  0  0
 11 12  1  0  0  0
 12 13  2  0  0  0
 13 14  1  0  0  0
 20 21  1  0  0  0
 21 22  1  0  0  0
 22 18  2  0  0  0
 13  8  1  0  0  0
  6  1  1  0  0  0
 26 27  1  0  0  0
 33 34  1  0  0  0
 14 15  1  0  0  0
 14 16  1  0  0  0
M  END
> <minimizedAffinity>
4.83700

> <CNNscore>
0.5255690813

> <CNNaffinity>
7.2149453163

> <CNN_VS>
3.7919521332

> <CNNaffinity_variance>
1.0434567928

$$$$
[H]OC(C([H])([H])[H])(C([H])([H])[H])C([H])([H])C([H])([H])N([H])S(=O)(=O)c1c([H])c([H])c(C([H])([H])[H])c(-c2c([H])nc(N([H])[H])c(-c3onc(C([H])([H])[H])c3[H])c2[H])c1[H]


 34 36  0  0  0  0  0  0  0  0999 V2000
   13.8393   24.7637   -1.6545 C   0  0  0  0  0  0  0  0  0  0  0  0
   15.1274   25.2722   -1.8596 C   0  0  0  0  0  0  0  0  0  0  0  0
   15.3604   26.3419   -2.6979 C   0  0  0  0  0  0  0  0  0  0  0  0
   14.3204   26.9419   -3.3604 C   0  0  0  0  0  0  0  0  0  0  0  0
   13.0427   26.4609   -3.1755 C   0  0  0  0  0  0  0  0  0  0  0  0
   12.8096   25.3686   -2.3184 C   0  0  0  0  0  0  0  0  0  0  0  0
   11.4182   24.8810   -2.1216 C   0  0  0  0  0  0  0  0  0  0  0  0
   12.1909   21.9128    0.0871 C   0  0  0  0  0  0  0  0  0  0  0  0
   12.3873   22.9991   -0.7779 C   0  0  0  0  0  0  0  0  0  0  0  0
   13.6185   23.6199   -0.7769 C   0  0  0  0  0  0  0  0  0  0  0  0
   14.5956   23.1424    0.0748 C   0  0  0  0  0  0  0  0  0  0  0  0
   14.3926   22.1049    0.8939 N   0  0  0  0  0  0  0  0  0  0  0  0
   13.1806   21.4800    0.9046 C   0  0  0  0  0  0  0  0  0  0  0  0
   13.0106   20.3892    1.7850 N   0  0  0  0  0  0  0  0  0  0  0  0
   12.6754   20.4906    2.7707 H   0  0  0  0  0  0  0  0  0  0  0  0
   13.2201   19.4272    1.4677 H   0  0  0  0  0  0  0  0  0  0  0  0
    7.8306   19.7392   -1.3321 C   0  0  0  0  0  0  0  0  0  0  0  0
    8.9437   20.3476   -0.5425 C   0  0  0  0  0  0  0  0  0  0  0  0
   10.1636   20.8435   -1.0410 C   0  0  0  0  0  0  0  0  0  0  0  0
   10.8582   21.2965    0.0367 C   0  0  0  0  0  0  0  0  0  0  0  0
   10.1118   21.0896    1.1135 O   0  0  0  0  0  0  0  0  0  0  0  0
    9.0099   20.5431    0.7772 N   0  0  0  0  0  0  0  0  0  0  0  0
   17.0080   26.9357   -2.9139 S   0  0  0  0  0  0  0  0  0  0  0  0
   17.0349   28.3498   -2.3810 O   0  0  0  0  0  0  0  0  0  0  0  0
   17.9495   26.0506   -2.1767 O   0  0  0  0  0  0  0  0  0  0  0  0
   17.3174   27.0061   -4.5884 N   0  0  0  0  0  0  0  0  0  0  0  0
   17.3823   26.0037   -4.9337 H   0  0  0  0  0  0  0  0  0  0  0  0
   16.2835   27.7096   -5.3199 C   0  0  0  0  0  0  0  0  0  0  0  0
   16.2410   27.3290   -6.7641 C   0  0  0  0  0  0  0  0  0  0  0  0
   15.4653   26.0825   -7.0305 C   0  0  0  0  0  0  0  0  0  0  0  0
   15.6704   24.9854   -6.0366 C   0  0  0  0  0  0  0  0  0  0  0  0
   13.9955   26.4216   -7.0835 C   0  0  0  0  0  0  0  0  0  0  0  0
   15.8120   25.5891   -8.2899 O   0  0  0  0  0  0  0  0  0  0  0  0
   15.0441   25.2049   -8.7582 H   0  0  0  0  0  0  0  0  0  0  0  0
 17 18  1  0  0  0
 18 19  1  0  0  0
 19 20  2  0  0  0
 20  8  1  0  0  0
  8  9  2  0  0  0
  9 10  1  0  0  0
 10  1  1  0  0  0
  1  2  2  0  0  0
  2  3  1  0  0  0
  3 23  1  0  0  0
 23 24  2  0  0  0
 23 25  2  0  0  0
 23 26  1  0  0  0
 26 28  1  0  0  0
 28 29  1  0  0  0
 29 30  1  0  0  0
 30 31  1  0  0  0
 30 32  1  0  0  0
 30 33  1  0  0  0
  3  4  2  0  0  0
  4  5  1  0  0  0
  5  6  2  0  0  0
  6  7  1  0  0  0
 10 11  2  0  0  0
 11 12  1  0  0  0
 12 13  2  0  0  0
 13 14  1  0  0  0
 20 21  1  0  0  0
 21 22  1  0  0  0
 22 18  2  0  0  0
 13  8  1  0  0  0
  6  1  1  0  0  0
 26 27  1  0  0  0
 33 34  1  0  0  0
 14 15  1  0  0  0
 14 16  1  0  0  0
M  END
> <minimizedAffinity>
-4.80963

> <CNNscore>
0.4966802299

> <CNNaffinity>
7.4397382736

> <CNN_VS>
3.6951708794

> <CNNaffinity_variance>
0.4505550265

$$$$
[H]OC(C([H])([H])[H])(C([H])([H])[H])C([H])([H])C([H])([H])N([H])S(=O)(=O)c1c([H])c([H])c(C([H])([H])[H])c(-c2c([H])nc(N([H])[H])c(-c3onc(C([H])([H])[H])c3[H])c2[H])c1[H]


 34 36  0  0  0  0  0  0  0  0999 V2000
   14.0870   23.8684   -2.6910 C   0  0  0  0  0  0  0  0  0  0  0  0
   13.3535   23.8720   -1.4985 C   0  0  0  0  0  0  0  0  0  0  0  0
   13.0359   22.7039   -0.8382 C   0  0  0  0  0  0  0  0  0  0  0  0
   13.4369   21.4929   -1.3414 C   0  0  0  0  0  0  0  0  0  0  0  0
   14.1604   21.4618   -2.5134 C   0  0  0  0  0  0  0  0  0  0  0  0
   14.4827   22.6570   -3.1840 C   0  0  0  0  0  0  0  0  0  0  0  0
   15.2812   22.5966   -4.4374 C   0  0  0  0  0  0  0  0  0  0  0  0
   15.9537   26.8194   -3.9888 C   0  0  0  0  0  0  0  0  0  0  0  0
   15.6825   25.6098   -3.3330 C   0  0  0  0  0  0  0  0  0  0  0  0
   14.3964   25.1150   -3.3817 C   0  0  0  0  0  0  0  0  0  0  0  0
   13.4404   25.8341   -4.0724 C   0  0  0  0  0  0  0  0  0  0  0  0
   13.7150   26.9865   -4.6929 N   0  0  0  0  0  0  0  0  0  0  0  0
   14.9822   27.4890   -4.6543 C   0  0  0  0  0  0  0  0  0  0  0  0
   15.2271   28.7082   -5.3231 N   0  0  0  0  0  0  0  0  0  0  0  0
   15.1205   29.6456   -4.8709 H   0  0  0  0  0  0  0  0  0  0  0  0
   15.5290   28.7072   -6.3125 H   0  0  0  0  0  0  0  0  0  0  0  0
   20.7315   27.7982   -2.5866 C   0  0  0  0  0  0  0  0  0  0  0  0
   19.4319   27.7403   -3.3218 C   0  0  0  0  0  0  0  0  0  0  0  0
   18.2626   27.0641   -2.9236 C   0  0  0  0  0  0  0  0  0  0  0  0
   17.3422   27.2908   -3.8986 C   0  0  0  0  0  0  0  0  0  0  0  0
   17.9134   28.0510   -4.8234 O   0  0  0  0  0  0  0  0  0  0  0  0
   19.1166   28.3084   -4.4888 N   0  0  0  0  0  0  0  0  0  0  0  0
   12.1084   22.7763    0.6611 S   0  0  0  0  0  0  0  0  0  0  0  0
   13.0033   23.4177    1.6966 O   0  0  0  0  0  0  0  0  0  0  0  0
   10.8704   23.5696    0.4349 O   0  0  0  0  0  0  0  0  0  0  0  0
   11.8035   21.1751    1.1590 N   0  0  0  0  0  0  0  0  0  0  0  0
   12.7399   20.7496    1.4238 H   0  0  0  0  0  0  0  0  0  0  0  0
   10.8967   21.1022    2.2865 C   0  0  0  0  0  0  0  0  0  0  0  0
   11.2712   20.0298    3.2570 C   0  0  0  0  0  0  0  0  0  0  0  0
   10.4811   20.0669    4.5223 C   0  0  0  0  0  0  0  0  0  0  0  0
    9.0333   20.3970    4.3543 C   0  0  0  0  0  0  0  0  0  0  0  0
   10.5978   18.7298    5.2126 C   0  0  0  0  0  0  0  0  0  0  0  0
   11.0392   21.0156    5.3815 O   0  0  0  0  0  0  0  0  0  0  0  0
   11.0048   20.7299    6.3164 H   0  0  0  0  0  0  0  0  0  0  0  0
 17 18  1  0  0  0
 18 19  1  0  0  0
 19 20  2  0  0  0
 20  8  1  0  0  0
  8  9  2  0  0  0
  9 10  1  0  0  0
 10  1  1  0  0  0
  1  2  2  0  0  0
  2  3  1  0  0  0
  3 23  1  0  0  0
 23 24  2  0  0  0
 23 25  2  0  0  0
 23 26  1  0  0  0
 26 28  1  0  0  0
 28 29  1  0  0  0
 29 30  1  0  0  0
 30 31  1  0  0  0
 30 32  1  0  0  0
 30 33  1  0  0  0
  3  4  2  0  0  0
  4  5  1  0  0  0
  5  6  2  0  0  0
  6  7  1  0  0  0
 10 11  2  0  0  0
 11 12  1  0  0  0
 12 13  2  0  0  0
 13 14  1  0  0  0
 20 21  1  0  0  0
 21 22  1  0  0  0
 22 18  2  0  0  0
 13  8  1  0  0  0
  6  1  1  0  0  0
 26 27  1  0  0  0
 33 34  1  0  0  0
 14 15  1  0  0  0
 14 16  1  0  0  0
M  END
> <minimizedAffinity>
2.72087

> <CNNscore>
0.4502814114

> <CNNaffinity>
7.0093908310

> <CNN_VS>
3.1561985016

> <CNNaffinity_variance>
0.3270101845

$$$$
[H]OC(C([H])([H])[H])(C([H])([H])[H])C([H])([H])C([H])([H])N([H])S(=O)(=O)c1c([H])c([H])c(C([H])([H])[H])c(-c2c([H])nc(N([H])[H])c(-c3onc(C([H])([H])[H])c3[H])c2[H])c1[H]


 34 36  0  0  0  0  0  0  0  0999 V2000
   13.9065   23.2683   -1.7577 C   0  0  0  0  0  0  0  0  0  0  0  0
   13.6187   24.5416   -2.2633 C   0  0  0  0  0  0  0  0  0  0  0  0
   14.1614   24.9916   -3.4484 C   0  0  0  0  0  0  0  0  0  0  0  0
   15.0084   24.1905   -4.1705 C   0  0  0  0  0  0  0  0  0  0  0  0
   15.3075   22.9326   -3.6950 C   0  0  0  0  0  0  0  0  0  0  0  0
   14.7508   22.4773   -2.4846 C   0  0  0  0  0  0  0  0  0  0  0  0
   15.0750   21.1078   -2.0033 C   0  0  0  0  0  0  0  0  0  0  0  0
   11.6018   22.9040    1.1463 C   0  0  0  0  0  0  0  0  0  0  0  0
   12.1241   23.3352   -0.0817 C   0  0  0  0  0  0  0  0  0  0  0  0
   13.3350   22.8198   -0.4930 C   0  0  0  0  0  0  0  0  0  0  0  0
   13.9729   21.9063    0.3235 C   0  0  0  0  0  0  0  0  0  0  0  0
   13.4614   21.5049    1.4922 N   0  0  0  0  0  0  0  0  0  0  0  0
   12.2646   22.0050    1.9129 C   0  0  0  0  0  0  0  0  0  0  0  0
   11.7621   21.5534    3.1529 N   0  0  0  0  0  0  0  0  0  0  0  0
   11.9807   22.0147    4.0661 H   0  0  0  0  0  0  0  0  0  0  0  0
   11.1431   20.7257    3.1929 H   0  0  0  0  0  0  0  0  0  0  0  0
    7.8673   25.9032    2.8225 C   0  0  0  0  0  0  0  0  0  0  0  0
    8.6523   24.7700    2.2462 C   0  0  0  0  0  0  0  0  0  0  0  0
   10.0498   24.7013    2.0881 C   0  0  0  0  0  0  0  0  0  0  0  0
   10.3094   23.4908    1.5255 C   0  0  0  0  0  0  0  0  0  0  0  0
    9.1504   22.8689    1.3543 O   0  0  0  0  0  0  0  0  0  0  0  0
    8.1978   23.6076    1.7702 N   0  0  0  0  0  0  0  0  0  0  0  0
   13.7589   26.6075   -4.0318 S   0  0  0  0  0  0  0  0  0  0  0  0
   14.0567   26.6226   -5.5136 O   0  0  0  0  0  0  0  0  0  0  0  0
   12.3240   26.8863   -3.7549 O   0  0  0  0  0  0  0  0  0  0  0  0
   14.8190   27.7089   -3.2782 N   0  0  0  0  0  0  0  0  0  0  0  0
   15.0569   27.3063   -2.3245 H   0  0  0  0  0  0  0  0  0  0  0  0
   16.0351   27.9235   -4.0358 C   0  0  0  0  0  0  0  0  0  0  0  0
   17.2636   27.8237   -3.1914 C   0  0  0  0  0  0  0  0  0  0  0  0
   18.5191   28.1671   -3.9209 C   0  0  0  0  0  0  0  0  0  0  0  0
   19.7733   27.6364   -3.3057 C   0  0  0  0  0  0  0  0  0  0  0  0
   18.4185   27.6557   -5.3375 C   0  0  0  0  0  0  0  0  0  0  0  0
   18.6360   29.5562   -4.0000 O   0  0  0  0  0  0  0  0  0  0  0  0
   19.0163   29.8451   -4.8536 H   0  0  0  0  0  0  0  0  0  0  0  0
 17 18  1  0  0  0
 18 19  1  0  0  0
 19 20  2  0  0  0
 20  8  1  0  0  0
  8  9  2  0  0  0
  9 10  1  0  0  0
 10  1  1  0  0  0
  1  2  2  0  0  0
  2  3  1  0  0  0
  3 23  1  0  0  0
 23 24  2  0  0  0
 23 25  2  0  0  0
 23 26  1  0  0  0
 26 28  1  0  0  0
 28 29  1  0  0  0
 29 30  1  0  0  0
 30 31  1  0  0  0
 30 32  1  0  0  0
 30 33  1  0  0  0
  3  4  2  0  0  0
  4  5  1  0  0  0
  5  6  2  0  0  0
  6  7  1  0  0  0
 10 11  2  0  0  0
 11 12  1  0  0  0
 12 13  2  0  0  0
 13 14  1  0  0  0
 20 21  1  0  0  0
 21 22  1  0  0  0
 22 18  2  0  0  0
 13  8  1  0  0  0
  6  1  1  0  0  0
 26 27  1  0  0  0
 33 34  1  0  0  0
 14 15  1  0  0  0
 14 16  1  0  0  0
M  END
> <minimizedAffinity>
-0.70869

> <CNNscore>
0.4425790310

> <CNNaffinity>
7.2730855942

> <CNN_VS>
3.2189152241

> <CNNaffinity_variance>
0.5913444757

$$$$
[H]OC(C([H])([H])[H])(C([H])([H])[H])C([H])([H])C([H])([H])N([H])S(=O)(=O)c1c([H])c([H])c(C([H])([H])[H])c(-c2c([H])nc(N([H])[H])c(-c3onc(C([H])([H])[H])c3[H])c2[H])c1[H]


 34 36  0  0  0  0  0  0  0  0999 V2000
   14.7632   22.5877   -1.5109 C   0  0  0  0  0  0  0  0  0  0  0  0
   13.8738   22.4680   -0.4364 C   0  0  0  0  0  0  0  0  0  0  0  0
   13.1212   21.3293   -0.2406 C   0  0  0  0  0  0  0  0  0  0  0  0
   13.2277   20.2714   -1.1066 C   0  0  0  0  0  0  0  0  0  0  0  0
   14.0962   20.3636   -2.1721 C   0  0  0  0  0  0  0  0  0  0  0  0
   14.8629   21.5281   -2.3678 C   0  0  0  0  0  0  0  0  0  0  0  0
   15.8070   21.5943   -3.5152 C   0  0  0  0  0  0  0  0  0  0  0  0
   16.0845   25.7279   -3.0178 C   0  0  0  0  0  0  0  0  0  0  0  0
   15.3173   24.5677   -2.8386 C   0  0  0  0  0  0  0  0  0  0  0  0
   15.5362   23.8085   -1.7086 C   0  0  0  0  0  0  0  0  0  0  0  0
   16.4990   24.2271   -0.8109 C   0  0  0  0  0  0  0  0  0  0  0  0
   17.2225   25.3365   -0.9961 N   0  0  0  0  0  0  0  0  0  0  0  0
   17.0178   26.0984   -2.1084 C   0  0  0  0  0  0  0  0  0  0  0  0
   17.8039   27.2610   -2.2634 N   0  0  0  0  0  0  0  0  0  0  0  0
   18.7320   27.2695   -2.7461 H   0  0  0  0  0  0  0  0  0  0  0  0
   17.4717   28.1670   -1.8907 H   0  0  0  0  0  0  0  0  0  0  0  0
   15.9422   29.1768   -6.7375 C   0  0  0  0  0  0  0  0  0  0  0  0
   15.7120   27.9720   -5.8841 C   0  0  0  0  0  0  0  0  0  0  0  0
   16.3105   27.6867   -4.6419 C   0  0  0  0  0  0  0  0  0  0  0  0
   15.8018   26.4910   -4.2409 C   0  0  0  0  0  0  0  0  0  0  0  0
   14.9542   26.0800   -5.1747 O   0  0  0  0  0  0  0  0  0  0  0  0
   14.9043   26.9346   -6.1197 N   0  0  0  0  0  0  0  0  0  0  0  0
   12.0179   21.2409    1.1336 S   0  0  0  0  0  0  0  0  0  0  0  0
   11.1947   19.9864    0.9516 O   0  0  0  0  0  0  0  0  0  0  0  0
   12.8062   21.2050    2.3948 O   0  0  0  0  0  0  0  0  0  0  0  0
   10.9608   22.5741    1.0353 N   0  0  0  0  0  0  0  0  0  0  0  0
   10.1100   22.3389    1.6260 H   0  0  0  0  0  0  0  0  0  0  0  0
   11.5628   23.8027    1.5120 C   0  0  0  0  0  0  0  0  0  0  0  0
   10.5478   24.8389    1.8704 C   0  0  0  0  0  0  0  0  0  0  0  0
    9.1762   24.2868    2.0714 C   0  0  0  0  0  0  0  0  0  0  0  0
    9.1228   22.9596    2.7561 C   0  0  0  0  0  0  0  0  0  0  0  0
    8.3609   25.2772    2.8667 C   0  0  0  0  0  0  0  0  0  0  0  0
    8.5513   24.1532    0.8299 O   0  0  0  0  0  0  0  0  0  0  0  0
    7.5976   24.3660    0.8738 H   0  0  0  0  0  0  0  0  0  0  0  0
 17 18  1  0  0  0
 18 19  1  0  0  0
 19 20  2  0  0  0
 20  8  1  0  0  0
  8  9  2  0  0  0
  9 10  1  0  0  0
 10  1  1  0  0  0
  1  2  2  0  0  0
  2  3  1  0  0  0
  3 23  1  0  0  0
 23 24  2  0  0  0
 23 25  2  0  0  0
 23 26  1  0  0  0
 26 28  1  0  0  0
 28 29  1  0  0  0
 29 30  1  0  0  0
 30 31  1  0  0  0
 30 32  1  0  0  0
 30 33  1  0  0  0
  3  4  2  0  0  0
  4  5  1  0  0  0
  5  6  2  0  0  0
  6  7  1  0  0  0
 10 11  2  0  0  0
 11 12  1  0  0  0
 12 13  2  0  0  0
 13 14  1  0  0  0
 20 21  1  0  0  0
 21 22  1  0  0  0
 22 18  2  0  0  0
 13  8  1  0  0  0
  6  1  1  0  0  0
 26 27  1  0  0  0
 33 34  1  0  0  0
 14 15  1  0  0  0
 14 16  1  0  0  0
M  END
> <minimizedAffinity>
-0.44187

> <CNNscore>
0.4357905388

> <CNNaffinity>
7.5521087646

> <CNN_VS>
3.2911374569

> <CNNaffinity_variance>
1.7331613302

$$$$
[H]OC(C([H])([H])[H])(C([H])([H])[H])C([H])([H])C([H])([H])N([H])S(=O)(=O)c1c([H])c([H])c(C([H])([H])[H])c(-c2c([H])nc(N([H])[H])c(-c3onc(C([H])([H])[H])c3[H])c2[H])c1[H]


 34 36  0  0  0  0  0  0  0  0999 V2000
   13.3496   23.5285   -1.9551 C   0  0  0  0  0  0  0  0  0  0  0  0
   13.1411   24.7491   -2.6081 C   0  0  0  0  0  0  0  0  0  0  0  0
   13.9811   25.1895   -3.6092 C   0  0  0  0  0  0  0  0  0  0  0  0
   15.0565   24.4308   -3.9944 C   0  0  0  0  0  0  0  0  0  0  0  0
   15.2837   23.2251   -3.3678 C   0  0  0  0  0  0  0  0  0  0  0  0
   14.4232   22.7794   -2.3465 C   0  0  0  0  0  0  0  0  0  0  0  0
   14.6801   21.4650   -1.6994 C   0  0  0  0  0  0  0  0  0  0  0  0
   10.5455   21.8665   -0.1517 C   0  0  0  0  0  0  0  0  0  0  0  0
   11.4007   22.2603   -1.1911 C   0  0  0  0  0  0  0  0  0  0  0  0
   12.4584   23.0908   -0.8868 C   0  0  0  0  0  0  0  0  0  0  0  0
   12.6229   23.4936    0.4243 C   0  0  0  0  0  0  0  0  0  0  0  0
   11.7984   23.1090    1.4045 N   0  0  0  0  0  0  0  0  0  0  0  0
   10.7478   22.2875    1.1199 C   0  0  0  0  0  0  0  0  0  0  0  0
    9.9030   21.9066    2.1853 N   0  0  0  0  0  0  0  0  0  0  0  0
    9.0601   22.4535    2.4768 H   0  0  0  0  0  0  0  0  0  0  0  0
   10.1019   21.0469    2.7250 H   0  0  0  0  0  0  0  0  0  0  0  0
    6.7775   19.4852   -2.5771 C   0  0  0  0  0  0  0  0  0  0  0  0
    7.7903   19.9184   -1.5676 C   0  0  0  0  0  0  0  0  0  0  0  0
    8.7379   20.9506   -1.7071 C   0  0  0  0  0  0  0  0  0  0  0  0
    9.4395   20.9820   -0.5427 C   0  0  0  0  0  0  0  0  0  0  0  0
    8.9518   20.0349    0.2476 O   0  0  0  0  0  0  0  0  0  0  0  0
    8.0023   19.4240   -0.3449 N   0  0  0  0  0  0  0  0  0  0  0  0
   13.6636   26.7380   -4.3932 S   0  0  0  0  0  0  0  0  0  0  0  0
   14.2021   26.6319   -5.8015 O   0  0  0  0  0  0  0  0  0  0  0  0
   12.1999   27.0036   -4.3812 O   0  0  0  0  0  0  0  0  0  0  0  0
   14.5729   27.9269   -3.5782 N   0  0  0  0  0  0  0  0  0  0  0  0
   14.7225   27.5766   -2.5867 H   0  0  0  0  0  0  0  0  0  0  0  0
   15.8538   28.1806   -4.2059 C   0  0  0  0  0  0  0  0  0  0  0  0
   17.0014   27.9870   -3.2690 C   0  0  0  0  0  0  0  0  0  0  0  0
   18.3356   28.1291   -3.9218 C   0  0  0  0  0  0  0  0  0  0  0  0
   19.4667   27.4727   -3.1985 C   0  0  0  0  0  0  0  0  0  0  0  0
   18.2601   27.5647   -5.3197 C   0  0  0  0  0  0  0  0  0  0  0  0
   18.6395   29.4859   -4.0495 O   0  0  0  0  0  0  0  0  0  0  0  0
   19.1087   29.6804   -4.8854 H   0  0  0  0  0  0  0  0  0  0  0  0
 17 18  1  0  0  0
 18 19  1  0  0  0
 19 20  2  0  0  0
 20  8  1  0  0  0
  8  9  2  0  0  0
  9 10  1  0  0  0
 10  1  1  0  0  0
  1  2  2  0  0  0
  2  3  1  0  0  0
  3 23  1  0  0  0
 23 24  2  0  0  0
 23 25  2  0  0  0
 23 26  1  0  0  0
 26 28  1  0  0  0
 28 29  1  0  0  0
 29 30  1  0  0  0
 30 31  1  0  0  0
 30 32  1  0  0  0
 30 33  1  0  0  0
  3  4  2  0  0  0
  4  5  1  0  0  0
  5  6  2  0  0  0
  6  7  1  0  0  0
 10 11  2  0  0  0
 11 12  1  0  0  0
 12 13  2  0  0  0
 13 14  1  0  0  0
 20 21  1  0  0  0
 21 22  1  0  0  0
 22 18  2  0  0  0
 13  8  1  0  0  0
  6  1  1  0  0  0
 26 27  1  0  0  0
 33 34  1  0  0  0
 14 15  1  0  0  0
 14 16  1  0  0  0
M  END
> <minimizedAffinity>
-1.27072

> <CNNscore>
0.4352582395

> <CNNaffinity>
7.2869148254

> <CNN_VS>
3.1716897488

> <CNNaffinity_variance>
0.7949591875

$$$$
[H]OC(C([H])([H])[H])(C([H])([H])[H])C([H])([H])C([H])([H])N([H])S(=O)(=O)c1c([H])c([H])c(C([H])([H])[H])c(-c2c([H])nc(N([H])[H])c(-c3onc(C([H])([H])[H])c3[H])c2[H])c1[H]


 34 36  0  0  0  0  0  0  0  0999 V2000
   13.0642   22.7154   -0.4411 C   0  0  0  0  0  0  0  0  0  0  0  0
   11.8925   23.2000    0.1524 C   0  0  0  0  0  0  0  0  0  0  0  0
   10.8835   22.3546    0.5628 C   0  0  0  0  0  0  0  0  0  0  0  0
   11.0056   20.9988    0.3969 C   0  0  0  0  0  0  0  0  0  0  0  0
   12.1491   20.4960   -0.1841 C   0  0  0  0  0  0  0  0  0  0  0  0
   13.1769   21.3631   -0.6014 C   0  0  0  0  0  0  0  0  0  0  0  0
   14.4093   20.7930   -1.2084 C   0  0  0  0  0  0  0  0  0  0  0  0
   15.0832   25.0088   -2.5720 C   0  0  0  0  0  0  0  0  0  0  0  0
   14.0567   24.1463   -2.1608 C   0  0  0  0  0  0  0  0  0  0  0  0
   14.1109   23.6294   -0.8837 C   0  0  0  0  0  0  0  0  0  0  0  0
   15.1719   23.9857   -0.0741 C   0  0  0  0  0  0  0  0  0  0  0  0
   16.1433   24.8098   -0.4811 N   0  0  0  0  0  0  0  0  0  0  0  0
   16.1040   25.3296   -1.7412 C   0  0  0  0  0  0  0  0  0  0  0  0
   17.1502   26.1951   -2.1288 N   0  0  0  0  0  0  0  0  0  0  0  0
   18.0375   25.8643   -2.5734 H   0  0  0  0  0  0  0  0  0  0  0  0
   17.0642   27.2149   -1.9783 H   0  0  0  0  0  0  0  0  0  0  0  0
   15.5544   25.9030   -7.5449 C   0  0  0  0  0  0  0  0  0  0  0  0
   15.1426   25.9447   -6.1092 C   0  0  0  0  0  0  0  0  0  0  0  0
   15.6216   25.1287   -5.0663 C   0  0  0  0  0  0  0  0  0  0  0  0
   14.9657   25.5243   -3.9427 C   0  0  0  0  0  0  0  0  0  0  0  0
   14.1462   26.5111   -4.2806 O   0  0  0  0  0  0  0  0  0  0  0  0
   14.2501   26.7511   -5.5286 N   0  0  0  0  0  0  0  0  0  0  0  0
    9.4310   23.0285    1.3042 S   0  0  0  0  0  0  0  0  0  0  0  0
    9.2144   22.2786    2.5985 O   0  0  0  0  0  0  0  0  0  0  0  0
    9.6289   24.4845    1.5370 O   0  0  0  0  0  0  0  0  0  0  0  0
    8.1164   22.6810    0.2767 N   0  0  0  0  0  0  0  0  0  0  0  0
    8.5161   22.5221   -0.6944 H   0  0  0  0  0  0  0  0  0  0  0  0
    7.3714   21.5115    0.6965 C   0  0  0  0  0  0  0  0  0  0  0  0
    6.5608   20.9187   -0.4098 C   0  0  0  0  0  0  0  0  0  0  0  0
    7.3524   20.0543   -1.3332 C   0  0  0  0  0  0  0  0  0  0  0  0
    7.7414   18.7234   -0.7757 C   0  0  0  0  0  0  0  0  0  0  0  0
    6.5619   19.8380   -2.6006 C   0  0  0  0  0  0  0  0  0  0  0  0
    8.5223   20.7247   -1.6958 O   0  0  0  0  0  0  0  0  0  0  0  0
    8.7679   20.5575   -2.6277 H   0  0  0  0  0  0  0  0  0  0  0  0
 17 18  1  0  0  0
 18 19  1  0  0  0
 19 20  2  0  0  0
 20  8  1  0  0  0
  8  9  2  0  0  0
  9 10  1  0  0  0
 10  1  1  0  0  0
  1  2  2  0  0  0
  2  3  1  0  0  0
  3 23  1  0  0  0
 23 24  2  0  0  0
 23 25  2  0  0  0
 23 26  1  0  0  0
 26 28  1  0  0  0
 28 29  1  0  0  0
 29 30  1  0  0  0
 30 31  1  0  0  0
 30 32  1  0  0  0
 30 33  1  0  0  0
  3  4  2  0  0  0
  4  5  1  0  0  0
  5  6  2  0  0  0
  6  7  1  0  0  0
 10 11  2  0  0  0
 11 12  1  0  0  0
 12 13  2  0  0  0
 13 14  1  0  0  0
 20 21  1  0  0  0
 21 22  1  0  0  0
 22 18  2  0  0  0
 13  8  1  0  0  0
  6  1  1  0  0  0
 26 27  1  0  0  0
 33 34  1  0  0  0
 14 15  1  0  0  0
 14 16  1  0  0  0
M  END
> <minimizedAffinity>
-8.96504

> <CNNscore>
0.4259407222

> <CNNaffinity>
7.4851884842

> <CNN_VS>
3.1882464886

> <CNNaffinity_variance>
0.0313269012

$$$$
[H]OC(C([H])([H])[H])(C([H])([H])[H])C([H])([H])C([H])([H])N([H])S(=O)(=O)c1c([H])c([H])c(C([H])([H])[H])c(-c2c([H])nc(N([H])[H])c(-c3onc(C([H])([H])[H])c3[H])c2[H])c1[H]


 34 36  0  0  0  0  0  0  0  0999 V2000
   13.9508   24.4004   -2.5136 C   0  0  0  0  0  0  0  0  0  0  0  0
   14.6426   24.3350   -3.7290 C   0  0  0  0  0  0  0  0  0  0  0  0
   14.5736   25.3507   -4.6590 C   0  0  0  0  0  0  0  0  0  0  0  0
   13.8144   26.4656   -4.4117 C   0  0  0  0  0  0  0  0  0  0  0  0
   13.1240   26.5549   -3.2229 C   0  0  0  0  0  0  0  0  0  0  0  0
   13.1977   25.5155   -2.2761 C   0  0  0  0  0  0  0  0  0  0  0  0
   12.4579   25.6456   -0.9924 C   0  0  0  0  0  0  0  0  0  0  0  0
   13.1987   22.1933    0.3916 C   0  0  0  0  0  0  0  0  0  0  0  0
   13.0984   23.2435   -0.5324 C   0  0  0  0  0  0  0  0  0  0  0  0
   14.0243   23.3062   -1.5522 C   0  0  0  0  0  0  0  0  0  0  0  0
   15.0033   22.3335   -1.6130 C   0  0  0  0  0  0  0  0  0  0  0  0
   15.0853   21.3379   -0.7238 N   0  0  0  0  0  0  0  0  0  0  0  0
   14.1770   21.2618    0.2905 C   0  0  0  0  0  0  0  0  0  0  0  0
   14.3014   20.1942    1.2063 N   0  0  0  0  0  0  0  0  0  0  0  0
   14.8798   20.2454    2.0765 H   0  0  0  0  0  0  0  0  0  0  0  0
   13.8067   19.3020    1.0353 H   0  0  0  0  0  0  0  0  0  0  0  0
    9.1555   23.0605    3.3331 C   0  0  0  0  0  0  0  0  0  0  0  0
   10.4319   22.5336    2.7624 C   0  0  0  0  0  0  0  0  0  0  0  0
   11.0511   22.9311    1.5617 C   0  0  0  0  0  0  0  0  0  0  0  0
   12.1822   22.1843    1.4523 C   0  0  0  0  0  0  0  0  0  0  0  0
   12.2446   21.3894    2.5123 O   0  0  0  0  0  0  0  0  0  0  0  0
   11.2356   21.5926    3.2650 N   0  0  0  0  0  0  0  0  0  0  0  0
   15.4696   25.2075   -6.1723 S   0  0  0  0  0  0  0  0  0  0  0  0
   16.2496   23.9151   -6.0963 O   0  0  0  0  0  0  0  0  0  0  0  0
   14.5127   25.2078   -7.3114 O   0  0  0  0  0  0  0  0  0  0  0  0
   16.5922   26.4884   -6.2325 N   0  0  0  0  0  0  0  0  0  0  0  0
   16.9548   26.5358   -7.2297 H   0  0  0  0  0  0  0  0  0  0  0  0
   16.0090   27.7621   -5.8630 C   0  0  0  0  0  0  0  0  0  0  0  0
   16.1649   28.7967   -6.9296 C   0  0  0  0  0  0  0  0  0  0  0  0
   15.9386   30.1905   -6.4472 C   0  0  0  0  0  0  0  0  0  0  0  0
   15.2301   30.2985   -5.1358 C   0  0  0  0  0  0  0  0  0  0  0  0
   17.2695   30.8943   -6.3399 C   0  0  0  0  0  0  0  0  0  0  0  0
   15.1886   30.8865   -7.3973 O   0  0  0  0  0  0  0  0  0  0  0  0
   15.4701   31.8200   -7.4757 H   0  0  0  0  0  0  0  0  0  0  0  0
 17 18  1  0  0  0
 18 19  1  0  0  0
 19 20  2  0  0  0
 20  8  1  0  0  0
  8  9  2  0  0  0
  9 10  1  0  0  0
 10  1  1  0  0  0
  1  2  2  0  0  0
  2  3  1  0  0  0
  3 23  1  0  0  0
 23 24  2  0  0  0
 23 25  2  0  0  0
 23 26  1  0  0  0
 26 28  1  0  0  0
 28 29  1  0  0  0
 29 30  1  0  0  0
 30 31  1  0  0  0
 30 32  1  0  0  0
 30 33  1  0  0  0
  3  4  2  0  0  0
  4  5  1  0  0  0
  5  6  2  0  0  0
  6  7  1  0  0  0
 10 11  2  0  0  0
 11 12  1  0  0  0
 12 13  2  0  0  0
 13 14  1  0  0  0
 20 21  1  0  0  0
 21 22  1  0  0  0
 22 18  2  0  0  0
 13  8  1  0  0  0
  6  1  1  0  0  0
 26 27  1  0  0  0
 33 34  1  0  0  0
 14 15  1  0  0  0
 14 16  1  0  0  0
M  END
> <minimizedAffinity>
10.51257

> <CNNscore>
0.4224099517

> <CNNaffinity>
7.0058579445

> <CNN_VS>
2.9593441486

> <CNNaffinity_variance>
0.5344219208

$$$$
[H]OC(C([H])([H])[H])(C([H])([H])[H])C([H])([H])C([H])([H])N([H])S(=O)(=O)c1c([H])c([H])c(C([H])([H])[H])c(-c2c([H])nc(N([H])[H])c(-c3onc(C([H])([H])[H])c3[H])c2[H])c1[H]


 34 36  0  0  0  0  0  0  0  0999 V2000
   12.5819   22.7909   -0.4512 C   0  0  0  0  0  0  0  0  0  0  0  0
   11.5006   23.3626    0.2299 C   0  0  0  0  0  0  0  0  0  0  0  0
   10.3915   22.6227    0.5820 C   0  0  0  0  0  0  0  0  0  0  0  0
   10.3204   21.2896    0.2686 C   0  0  0  0  0  0  0  0  0  0  0  0
   11.3715   20.7026   -0.4012 C   0  0  0  0  0  0  0  0  0  0  0  0
   12.5020   21.4619   -0.7583 C   0  0  0  0  0  0  0  0  0  0  0  0
   13.6313   20.7994   -1.4641 C   0  0  0  0  0  0  0  0  0  0  0  0
   14.9076   24.9210   -2.4339 C   0  0  0  0  0  0  0  0  0  0  0  0
   13.7790   24.1653   -2.0847 C   0  0  0  0  0  0  0  0  0  0  0  0
   13.7372   23.5968   -0.8292 C   0  0  0  0  0  0  0  0  0  0  0  0
   14.8072   23.7990    0.0207 C   0  0  0  0  0  0  0  0  0  0  0  0
   15.8766   24.5227   -0.3274 N   0  0  0  0  0  0  0  0  0  0  0  0
   15.9330   25.0917   -1.5654 C   0  0  0  0  0  0  0  0  0  0  0  0
   17.0807   25.8474   -1.8904 N   0  0  0  0  0  0  0  0  0  0  0  0
   17.9380   25.4355   -2.3261 H   0  0  0  0  0  0  0  0  0  0  0  0
   17.1054   26.8637   -1.6998 H   0  0  0  0  0  0  0  0  0  0  0  0
   15.5306   25.8863   -7.3768 C   0  0  0  0  0  0  0  0  0  0  0  0
   15.1387   25.9552   -5.9365 C   0  0  0  0  0  0  0  0  0  0  0  0
   15.4523   25.0243   -4.9276 C   0  0  0  0  0  0  0  0  0  0  0  0
   14.8891   25.4990   -3.7845 C   0  0  0  0  0  0  0  0  0  0  0  0
   14.2767   26.6380   -4.0795 O   0  0  0  0  0  0  0  0  0  0  0  0
   14.4220   26.8984   -5.3193 N   0  0  0  0  0  0  0  0  0  0  0  0
    9.0614   23.4027    1.4398 S   0  0  0  0  0  0  0  0  0  0  0  0
    9.6529   24.5766    2.1860 O   0  0  0  0  0  0  0  0  0  0  0  0
    8.0310   23.8360    0.4582 O   0  0  0  0  0  0  0  0  0  0  0  0
    8.4716   22.2973    2.5951 N   0  0  0  0  0  0  0  0  0  0  0  0
    8.2868   21.3846    2.0843 H   0  0  0  0  0  0  0  0  0  0  0  0
    9.4042   22.0703    3.6803 C   0  0  0  0  0  0  0  0  0  0  0  0
    9.4731   20.6346    4.0883 C   0  0  0  0  0  0  0  0  0  0  0  0
   10.8490   20.1806    4.4449 C   0  0  0  0  0  0  0  0  0  0  0  0
   11.7825   20.0232    3.2886 C   0  0  0  0  0  0  0  0  0  0  0  0
   11.4496   21.1591    5.4247 C   0  0  0  0  0  0  0  0  0  0  0  0
   10.7684   18.9503    5.1002 O   0  0  0  0  0  0  0  0  0  0  0  0
   11.4284   18.8722    5.8179 H   0  0  0  0  0  0  0  0  0  0  0  0
 17 18  1  0  0  0
 18 19  1  0  0  0
 19 20  2  0  0  0
 20  8  1  0  0  0
  8  9  2  0  0  0
  9 10  1  0  0  0
 10  1  1  0  0  0
  1  2  2  0  0  0
  2  3  1  0  0  0
  3 23  1  0  0  0
 23 24  2  0  0  0
 23 25  2  0  0  0
 23 26  1  0  0  0
 26 28  1  0  0  0
 28 29  1  0  0  0
 29 30  1  0  0  0
 30 31  1  0  0  0
 30 32  1  0  0  0
 30 33  1  0  0  0
  3  4  2  0  0  0
  4  5  1  0  0  0
  5  6  2  0  0  0
  6  7  1  0  0  0
 10 11  2  0  0  0
 11 12  1  0  0  0
 12 13  2  0  0  0
 13 14  1  0  0  0
 20 21  1  0  0  0
 21 22  1  0  0  0
 22 18  2  0  0  0
 13  8  1  0  0  0
  6  1  1  0  0  0
 26 27  1  0  0  0
 33 34  1  0  0  0
 14 15  1  0  0  0
 14 16  1  0  0  0
M  END
> <minimizedAffinity>
-9.03735

> <CNNscore>
0.4154799879

> <CNNaffinity>
7.2408704758

> <CNN_VS>
3.0084366798

> <CNNaffinity_variance>
0.0905498937

$$$$
[H]/C(=C(/[H])c1c([H])c(OC([H])([H])[H])c([H])c(OC([H])([H])[H])c1[H])c1c([H])c([H])c(OC([H])([H])C([H])([H])[H])c([H])c1[H]


 21 22  0  0  0  0  0  0  0  0999 V2000
   14.6270   23.8822   -2.2750 C   0  0  0  0  0  0  0  0  0  0  0  0
   14.4483   25.1761   -2.4013 C   0  0  0  0  0  0  0  0  0  0  0  0
   12.9434   21.4560    0.8053 C   0  0  0  0  0  0  0  0  0  0  0  0
   13.5711   20.8988   -0.2841 C   0  0  0  0  0  0  0  0  0  0  0  0
   14.1116   21.7061   -1.2742 C   0  0  0  0  0  0  0  0  0  0  0  0
   14.0408   23.0775   -1.2042 C   0  0  0  0  0  0  0  0  0  0  0  0
   13.4142   23.6347   -0.1169 C   0  0  0  0  0  0  0  0  0  0  0  0
   12.8686   22.8272    0.8822 C   0  0  0  0  0  0  0  0  0  0  0  0
   12.3868   20.6889    1.8223 O   0  0  0  0  0  0  0  0  0  0  0  0
   10.1521   21.2235    1.1279 C   0  0  0  0  0  0  0  0  0  0  0  0
   11.0972   20.1544    1.6389 C   0  0  0  0  0  0  0  0  0  0  0  0
   15.0482   25.9450   -3.4810 C   0  0  0  0  0  0  0  0  0  0  0  0
   16.0700   26.8412   -3.1532 C   0  0  0  0  0  0  0  0  0  0  0  0
   16.7087   27.6193   -4.0900 C   0  0  0  0  0  0  0  0  0  0  0  0
   16.3321   27.5183   -5.4123 C   0  0  0  0  0  0  0  0  0  0  0  0
   15.3289   26.6389   -5.7377 C   0  0  0  0  0  0  0  0  0  0  0  0
   14.6853   25.8546   -4.7922 C   0  0  0  0  0  0  0  0  0  0  0  0
   17.7056   28.4711   -3.6511 O   0  0  0  0  0  0  0  0  0  0  0  0
   19.0623   28.3508   -3.9815 C   0  0  0  0  0  0  0  0  0  0  0  0
   14.9655   26.5533   -7.0766 O   0  0  0  0  0  0  0  0  0  0  0  0
   15.5736   25.7021   -8.0048 C   0  0  0  0  0  0  0  0  0  0  0  0
 10 11  1  0  0  0
 11  9  1  0  0  0
  9  3  1  0  0  0
  3  4  2  0  0  0
  4  5  1  0  0  0
  5  6  2  0  0  0
  6  1  1  0  0  0
  1  2  2  0  0  0
  2 12  1  0  0  0
 12 13  2  0  0  0
 13 14  1  0  0  0
 14 18  1  0  0  0
 18 19  1  0  0  0
 14 15  2  0  0  0
 15 16  1  0  0  0
 16 20  1  0  0  0
 20 21  1  0  0  0
 16 17  2  0  0  0
  6  7  1  0  0  0
  7  8  2  0  0  0
  8  3  1  0  0  0
 17 12  1  0  0  0
M  END
> <minimizedAffinity>
-6.41937

> <CNNscore>
0.5072585940

> <CNNaffinity>
6.3513894081

> <CNN_VS>
3.2217967510

> <CNNaffinity_variance>
0.2997701764

$$$$
[H]/C(=C(/[H])c1c([H])c(OC([H])([H])[H])c([H])c(OC([H])([H])[H])c1[H])c1c([H])c([H])c(OC([H])([H])C([H])([H])[H])c([H])c1[H]


 21 22  0  0  0  0  0  0  0  0999 V2000
   14.1151   24.3463   -1.4030 C   0  0  0  0  0  0  0  0  0  0  0  0
   14.9859   24.1478   -2.3644 C   0  0  0  0  0  0  0  0  0  0  0  0
   12.6166   21.3306    1.2179 C   0  0  0  0  0  0  0  0  0  0  0  0
   12.0167   22.5649    1.1274 C   0  0  0  0  0  0  0  0  0  0  0  0
   12.5204   23.5309    0.2687 C   0  0  0  0  0  0  0  0  0  0  0  0
   13.6251   23.2934   -0.5147 C   0  0  0  0  0  0  0  0  0  0  0  0
   14.2246   22.0613   -0.4249 C   0  0  0  0  0  0  0  0  0  0  0  0
   13.7221   21.0856    0.4373 C   0  0  0  0  0  0  0  0  0  0  0  0
   12.1488   20.3309    2.0632 O   0  0  0  0  0  0  0  0  0  0  0  0
   11.5195   19.4417    4.2021 C   0  0  0  0  0  0  0  0  0  0  0  0
   11.7205   20.6838    3.3572 C   0  0  0  0  0  0  0  0  0  0  0  0
   15.4512   25.2210   -3.2297 C   0  0  0  0  0  0  0  0  0  0  0  0
   14.9844   25.2443   -4.5474 C   0  0  0  0  0  0  0  0  0  0  0  0
   15.3562   26.2098   -5.4534 C   0  0  0  0  0  0  0  0  0  0  0  0
   16.2264   27.2017   -5.0543 C   0  0  0  0  0  0  0  0  0  0  0  0
   16.6867   27.1816   -3.7608 C   0  0  0  0  0  0  0  0  0  0  0  0
   16.3113   26.2076   -2.8478 C   0  0  0  0  0  0  0  0  0  0  0  0
   14.8317   26.1334   -6.7305 O   0  0  0  0  0  0  0  0  0  0  0  0
   15.5356   25.6895   -7.8582 C   0  0  0  0  0  0  0  0  0  0  0  0
   17.5630   28.1912   -3.3801 O   0  0  0  0  0  0  0  0  0  0  0  0
   18.8370   28.3758   -3.9266 C   0  0  0  0  0  0  0  0  0  0  0  0
 10 11  1  0  0  0
 11  9  1  0  0  0
  9  3  1  0  0  0
  3  4  2  0  0  0
  4  5  1  0  0  0
  5  6  2  0  0  0
  6  1  1  0  0  0
  1  2  2  0  0  0
  2 12  1  0  0  0
 12 13  2  0  0  0
 13 14  1  0  0  0
 14 18  1  0  0  0
 18 19  1  0  0  0
 14 15  2  0  0  0
 15 16  1  0  0  0
 16 20  1  0  0  0
 20 21  1  0  0  0
 16 17  2  0  0  0
  6  7  1  0  0  0
  7  8  2  0  0  0
  8  3  1  0  0  0
 17 12  1  0  0  0
M  END
> <minimizedAffinity>
-7.03457

> <CNNscore>
0.5036687851

> <CNNaffinity>
6.3223304749

> <CNN_VS>
3.1843605042

> <CNNaffinity_variance>
0.2582421005

$$$$
[H]/C(=C(/[H])c1c([H])c(OC([H])([H])[H])c([H])c(OC([H])([H])[H])c1[H])c1c([H])c([H])c(OC([H])([H])C([H])([H])[H])c([H])c1[H]


 21 22  0  0  0  0  0  0  0  0999 V2000
    6.9238   25.3548    2.2588 C   0  0  0  0  0  0  0  0  0  0  0  0
    8.0778   24.7300    2.2525 C   0  0  0  0  0  0  0  0  0  0  0  0
    6.5237   29.5883    1.9028 C   0  0  0  0  0  0  0  0  0  0  0  0
    6.9296   29.0026    3.0791 C   0  0  0  0  0  0  0  0  0  0  0  0
    7.0530   27.6242    3.1731 C   0  0  0  0  0  0  0  0  0  0  0  0
    6.7775   26.8015    2.1064 C   0  0  0  0  0  0  0  0  0  0  0  0
    6.3722   27.3855    0.9315 C   0  0  0  0  0  0  0  0  0  0  0  0
    6.2462   28.7718    0.8313 C   0  0  0  0  0  0  0  0  0  0  0  0
    6.3852   30.9642    1.7601 O   0  0  0  0  0  0  0  0  0  0  0  0
    7.0142   31.0525    4.0749 C   0  0  0  0  0  0  0  0  0  0  0  0
    6.9041   31.8046    2.7636 C   0  0  0  0  0  0  0  0  0  0  0  0
    8.1850   23.2873    2.4070 C   0  0  0  0  0  0  0  0  0  0  0  0
    8.5181   22.5339    1.2773 C   0  0  0  0  0  0  0  0  0  0  0  0
    8.6471   21.1651    1.3051 C   0  0  0  0  0  0  0  0  0  0  0  0
    8.4410   20.4979    2.4937 C   0  0  0  0  0  0  0  0  0  0  0  0
    8.1137   21.2349    3.6052 C   0  0  0  0  0  0  0  0  0  0  0  0
    7.9838   22.6154    3.5762 C   0  0  0  0  0  0  0  0  0  0  0  0
    8.9803   20.5236    0.1263 O   0  0  0  0  0  0  0  0  0  0  0  0
   10.2666   20.0754   -0.2035 C   0  0  0  0  0  0  0  0  0  0  0  0
    7.9105   20.5417    4.7927 O   0  0  0  0  0  0  0  0  0  0  0  0
    7.2875   19.2926    4.8788 C   0  0  0  0  0  0  0  0  0  0  0  0
 10 11  1  0  0  0
 11  9  1  0  0  0
  9  3  1  0  0  0
  3  4  2  0  0  0
  4  5  1  0  0  0
  5  6  2  0  0  0
  6  1  1  0  0  0
  1  2  2  0  0  0
  2 12  1  0  0  0
 12 13  2  0  0  0
 13 14  1  0  0  0
 14 18  1  0  0  0
 18 19  1  0  0  0
 14 15  2  0  0  0
 15 16  1  0  0  0
 16 20  1  0  0  0
 20 21  1  0  0  0
 16 17  2  0  0  0
  6  7  1  0  0  0
  7  8  2  0  0  0
  8  3  1  0  0  0
 17 12  1  0  0  0
M  END
> <minimizedAffinity>
6.28189

> <CNNscore>
0.4844560325

> <CNNaffinity>
4.6314878464

> <CNN_VS>
2.2437522411

> <CNNaffinity_variance>
1.0680998564

$$$$
[H]/C(=C(/[H])c1c([H])c(OC([H])([H])[H])c([H])c(OC([H])([H])[H])c1[H])c1c([H])c([H])c(OC([H])([H])C([H])([H])[H])c([H])c1[H]


 21 22  0  0  0  0  0  0  0  0999 V2000
   11.8543   27.8726   -4.3337 C   0  0  0  0  0  0  0  0  0  0  0  0
   11.3825   28.9128   -3.6878 C   0  0  0  0  0  0  0  0  0  0  0  0
   14.9610   25.3670   -2.8240 C   0  0  0  0  0  0  0  0  0  0  0  0
   13.6947   25.3412   -2.2881 C   0  0  0  0  0  0  0  0  0  0  0  0
   12.6994   26.1643   -2.7941 C   0  0  0  0  0  0  0  0  0  0  0  0
   12.9388   27.0265   -3.8381 C   0  0  0  0  0  0  0  0  0  0  0  0
   14.2029   27.0528   -4.3737 C   0  0  0  0  0  0  0  0  0  0  0  0
   15.2082   26.2269   -3.8685 C   0  0  0  0  0  0  0  0  0  0  0  0
   15.9908   24.5615   -2.3512 O   0  0  0  0  0  0  0  0  0  0  0  0
   16.2103   24.7212    0.0338 C   0  0  0  0  0  0  0  0  0  0  0  0
   15.8024   23.8601   -1.1450 C   0  0  0  0  0  0  0  0  0  0  0  0
   10.3010   29.7326   -4.2126 C   0  0  0  0  0  0  0  0  0  0  0  0
    9.0000   29.4432   -3.7902 C   0  0  0  0  0  0  0  0  0  0  0  0
    7.9017   30.1506   -4.2197 C   0  0  0  0  0  0  0  0  0  0  0  0
    8.0812   31.1919   -5.1051 C   0  0  0  0  0  0  0  0  0  0  0  0
    9.3578   31.4788   -5.5218 C   0  0  0  0  0  0  0  0  0  0  0  0
   10.4649   30.7649   -5.0881 C   0  0  0  0  0  0  0  0  0  0  0  0
    6.6620   29.7755   -3.7354 O   0  0  0  0  0  0  0  0  0  0  0  0
    6.3322   29.6738   -2.3771 C   0  0  0  0  0  0  0  0  0  0  0  0
    9.5155   32.5327   -6.4143 O   0  0  0  0  0  0  0  0  0  0  0  0
    9.9973   32.3937   -7.7198 C   0  0  0  0  0  0  0  0  0  0  0  0
 10 11  1  0  0  0
 11  9  1  0  0  0
  9  3  1  0  0  0
  3  4  2  0  0  0
  4  5  1  0  0  0
  5  6  2  0  0  0
  6  1  1  0  0  0
  1  2  2  0  0  0
  2 12  1  0  0  0
 12 13  2  0  0  0
 13 14  1  0  0  0
 14 18  1  0  0  0
 18 19  1  0  0  0
 14 15  2  0  0  0
 15 16  1  0  0  0
 16 20  1  0  0  0
 20 21  1  0  0  0
 16 17  2  0  0  0
  6  7  1  0  0  0
  7  8  2  0  0  0
  8  3  1  0  0  0
 17 12  1  0  0  0
M  END
> <minimizedAffinity>
15.96793

> <CNNscore>
0.4590775669

> <CNNaffinity>
5.0338416100

> <CNN_VS>
2.3109238148

> <CNNaffinity_variance>
0.2913413644

$$$$
[H]/C(=C(/[H])c1c([H])c(OC([H])([H])[H])c([H])c(OC([H])([H])[H])c1[H])c1c([H])c([H])c(OC([H])([H])C([H])([H])[H])c([H])c1[H]


 21 22  0  0  0  0  0  0  0  0999 V2000
   13.7846   22.3477   -0.3405 C   0  0  0  0  0  0  0  0  0  0  0  0
   14.4021   23.4925   -0.1670 C   0  0  0  0  0  0  0  0  0  0  0  0
   10.9541   20.6497    2.3639 C   0  0  0  0  0  0  0  0  0  0  0  0
   11.6186   19.8755    1.4417 C   0  0  0  0  0  0  0  0  0  0  0  0
   12.5349   20.4480    0.5718 C   0  0  0  0  0  0  0  0  0  0  0  0
   12.8099   21.7949    0.5987 C   0  0  0  0  0  0  0  0  0  0  0  0
   12.1468   22.5686    1.5191 C   0  0  0  0  0  0  0  0  0  0  0  0
   11.2238   21.9979    2.3968 C   0  0  0  0  0  0  0  0  0  0  0  0
   10.0276   20.1220    3.2561 O   0  0  0  0  0  0  0  0  0  0  0  0
    9.7554   18.9352    5.3247 C   0  0  0  0  0  0  0  0  0  0  0  0
   10.3394   18.9235    3.9261 C   0  0  0  0  0  0  0  0  0  0  0  0
   15.3672   24.0115   -1.1242 C   0  0  0  0  0  0  0  0  0  0  0  0
   15.1953   25.3232   -1.5767 C   0  0  0  0  0  0  0  0  0  0  0  0
   16.0447   25.9178   -2.4801 C   0  0  0  0  0  0  0  0  0  0  0  0
   17.1148   25.1974   -2.9663 C   0  0  0  0  0  0  0  0  0  0  0  0
   17.2864   23.9089   -2.5238 C   0  0  0  0  0  0  0  0  0  0  0  0
   16.4294   23.3099   -1.6127 C   0  0  0  0  0  0  0  0  0  0  0  0
   15.7772   27.2210   -2.8570 O   0  0  0  0  0  0  0  0  0  0  0  0
   14.5701   27.8910   -2.6153 C   0  0  0  0  0  0  0  0  0  0  0  0
   18.3718   23.2012   -3.0270 O   0  0  0  0  0  0  0  0  0  0  0  0
   18.5757   22.9321   -4.3842 C   0  0  0  0  0  0  0  0  0  0  0  0
 10 11  1  0  0  0
 11  9  1  0  0  0
  9  3  1  0  0  0
  3  4  2  0  0  0
  4  5  1  0  0  0
  5  6  2  0  0  0
  6  1  1  0  0  0
  1  2  2  0  0  0
  2 12  1  0  0  0
 12 13  2  0  0  0
 13 14  1  0  0  0
 14 18  1  0  0  0
 18 19  1  0  0  0
 14 15  2  0  0  0
 15 16  1  0  0  0
 16 20  1  0  0  0
 20 21  1  0  0  0
 16 17  2  0  0  0
  6  7  1  0  0  0
  7  8  2  0  0  0
  8  3  1  0  0  0
 17 12  1  0  0  0
M  END
> <minimizedAffinity>
21.08709

> <CNNscore>
0.4080410302

> <CNNaffinity>
5.6890335083

> <CNN_VS>
2.3213591576

> <CNNaffinity_variance>
2.1816325188

$$$$
[H]/C(=C(/[H])c1c([H])c(OC([H])([H])[H])c([H])c(OC([H])([H])[H])c1[H])c1c([H])c([H])c(OC([H])([H])C([H])([H])[H])c([H])c1[H]


 21 22  0  0  0  0  0  0  0  0999 V2000
   14.3700   23.8667   -2.8555 C   0  0  0  0  0  0  0  0  0  0  0  0
   13.9218   25.0439   -3.2236 C   0  0  0  0  0  0  0  0  0  0  0  0
   12.3862   21.2071   -0.1723 C   0  0  0  0  0  0  0  0  0  0  0  0
   13.5821   20.8706   -0.7623 C   0  0  0  0  0  0  0  0  0  0  0  0
   14.2101   21.7503   -1.6318 C   0  0  0  0  0  0  0  0  0  0  0  0
   13.6669   22.9771   -1.9326 C   0  0  0  0  0  0  0  0  0  0  0  0
   12.4729   23.3138   -1.3440 C   0  0  0  0  0  0  0  0  0  0  0  0
   11.8367   22.4326   -0.4685 C   0  0  0  0  0  0  0  0  0  0  0  0
   11.7194   20.3595    0.7050 O   0  0  0  0  0  0  0  0  0  0  0  0
   13.7873   20.2134    1.9152 C   0  0  0  0  0  0  0  0  0  0  0  0
   12.2752   20.1295    1.9780 C   0  0  0  0  0  0  0  0  0  0  0  0
   14.6497   25.9030   -4.1450 C   0  0  0  0  0  0  0  0  0  0  0  0
   15.0851   25.3446   -5.3506 C   0  0  0  0  0  0  0  0  0  0  0  0
   15.7810   26.0608   -6.2960 C   0  0  0  0  0  0  0  0  0  0  0  0
   16.0665   27.3875   -6.0535 C   0  0  0  0  0  0  0  0  0  0  0  0
   15.6402   27.9390   -4.8704 C   0  0  0  0  0  0  0  0  0  0  0  0
   14.9384   27.2160   -3.9175 C   0  0  0  0  0  0  0  0  0  0  0  0
   16.1618   25.4049   -7.4522 O   0  0  0  0  0  0  0  0  0  0  0  0
   15.5511   25.5703   -8.7028 C   0  0  0  0  0  0  0  0  0  0  0  0
   15.9389   29.2780   -4.6470 O   0  0  0  0  0  0  0  0  0  0  0  0
   14.9834   30.2648   -4.3838 C   0  0  0  0  0  0  0  0  0  0  0  0
 10 11  1  0  0  0
 11  9  1  0  0  0
  9  3  1  0  0  0
  3  4  2  0  0  0
  4  5  1  0  0  0
  5  6  2  0  0  0
  6  1  1  0  0  0
  1  2  2  0  0  0
  2 12  1  0  0  0
 12 13  2  0  0  0
 13 14  1  0  0  0
 14 18  1  0  0  0
 18 19  1  0  0  0
 14 15  2  0  0  0
 15 16  1  0  0  0
 16 20  1  0  0  0
 20 21  1  0  0  0
 16 17  2  0  0  0
  6  7  1  0  0  0
  7  8  2  0  0  0
  8  3  1  0  0  0
 17 12  1  0  0  0
M  END
> <minimizedAffinity>
0.36286

> <CNNscore>
0.3934375048

> <CNNaffinity>
5.5970644951

> <CNN_VS>
2.2020950317

> <CNNaffinity_variance>
0.1810116768

$$$$
[H]/C(=C(/[H])c1c([H])c(OC([H])([H])[H])c([H])c(OC([H])([H])[H])c1[H])c1c([H])c([H])c(OC([H])([H])C([H])([H])[H])c([H])c1[H]


 21 22  0  0  0  0  0  0  0  0999 V2000
   12.7539   25.7192   -2.1915 C   0  0  0  0  0  0  0  0  0  0  0  0
   13.9397   25.3130   -2.5798 C   0  0  0  0  0  0  0  0  0  0  0  0
   10.3652   23.6941    0.7071 C   0  0  0  0  0  0  0  0  0  0  0  0
   10.2160   23.4547   -0.6389 C   0  0  0  0  0  0  0  0  0  0  0  0
   11.0031   24.1243   -1.5643 C   0  0  0  0  0  0  0  0  0  0  0  0
   11.9507   25.0414   -1.1751 C   0  0  0  0  0  0  0  0  0  0  0  0
   12.1003   25.2809    0.1687 C   0  0  0  0  0  0  0  0  0  0  0  0
   11.3111   24.6102    1.1042 C   0  0  0  0  0  0  0  0  0  0  0  0
    9.6004   23.0483    1.6718 O   0  0  0  0  0  0  0  0  0  0  0  0
   10.7810   21.5210    3.0984 C   0  0  0  0  0  0  0  0  0  0  0  0
   10.1362   22.8860    2.9637 C   0  0  0  0  0  0  0  0  0  0  0  0
   14.7110   26.0139   -3.5952 C   0  0  0  0  0  0  0  0  0  0  0  0
   15.7607   26.8320   -3.1668 C   0  0  0  0  0  0  0  0  0  0  0  0
   16.5560   27.5413   -4.0360 C   0  0  0  0  0  0  0  0  0  0  0  0
   16.3155   27.4480   -5.3903 C   0  0  0  0  0  0  0  0  0  0  0  0
   15.2853   26.6452   -5.8142 C   0  0  0  0  0  0  0  0  0  0  0  0
   14.4837   25.9302   -4.9369 C   0  0  0  0  0  0  0  0  0  0  0  0
   17.5656   28.3190   -3.4996 O   0  0  0  0  0  0  0  0  0  0  0  0
   18.9077   28.2740   -3.9007 C   0  0  0  0  0  0  0  0  0  0  0  0
   15.0608   26.5659   -7.1837 O   0  0  0  0  0  0  0  0  0  0  0  0
   15.4559   25.4904   -7.9856 C   0  0  0  0  0  0  0  0  0  0  0  0
 10 11  1  0  0  0
 11  9  1  0  0  0
  9  3  1  0  0  0
  3  4  2  0  0  0
  4  5  1  0  0  0
  5  6  2  0  0  0
  6  1  1  0  0  0
  1  2  2  0  0  0
  2 12  1  0  0  0
 12 13  2  0  0  0
 13 14  1  0  0  0
 14 18  1  0  0  0
 18 19  1  0  0  0
 14 15  2  0  0  0
 15 16  1  0  0  0
 16 20  1  0  0  0
 20 21  1  0  0  0
 16 17  2  0  0  0
  6  7  1  0  0  0
  7  8  2  0  0  0
  8  3  1  0  0  0
 17 12  1  0  0  0
M  END
> <minimizedAffinity>
-7.10504

> <CNNscore>
0.3368636668

> <CNNaffinity>
5.9082083702

> <CNN_VS>
1.9902607203

> <CNNaffinity_variance>
0.1742864102

$$$$
[H]/C(=C(/[H])c1c([H])c(OC([H])([H])[H])c([H])c(OC([H])([H])[H])c1[H])c1c([H])c([H])c(OC([H])([H])C([H])([H])[H])c([H])c1[H]


 21 22  0  0  0  0  0  0  0  0999 V2000
   13.0326   24.2164   -1.2866 C   0  0  0  0  0  0  0  0  0  0  0  0
   11.9671   24.5146   -0.5812 C   0  0  0  0  0  0  0  0  0  0  0  0
   14.2232   26.4502   -4.7219 C   0  0  0  0  0  0  0  0  0  0  0  0
   13.1468   26.8321   -3.9557 C   0  0  0  0  0  0  0  0  0  0  0  0
   12.7769   26.0913   -2.8429 C   0  0  0  0  0  0  0  0  0  0  0  0
   13.4644   24.9609   -2.4685 C   0  0  0  0  0  0  0  0  0  0  0  0
   14.5392   24.5789   -3.2330 C   0  0  0  0  0  0  0  0  0  0  0  0
   14.9159   25.3205   -4.3537 C   0  0  0  0  0  0  0  0  0  0  0  0
   14.6320   27.1597   -5.8454 O   0  0  0  0  0  0  0  0  0  0  0  0
   15.5714   25.8285   -7.6081 C   0  0  0  0  0  0  0  0  0  0  0  0
   15.8389   26.7969   -6.4732 C   0  0  0  0  0  0  0  0  0  0  0  0
   11.5677   23.7501    0.5906 C   0  0  0  0  0  0  0  0  0  0  0  0
   10.5648   24.2834    1.4057 C   0  0  0  0  0  0  0  0  0  0  0  0
   10.1079   23.6496    2.5374 C   0  0  0  0  0  0  0  0  0  0  0  0
   10.6564   22.4355    2.8916 C   0  0  0  0  0  0  0  0  0  0  0  0
   11.6417   21.9090    2.0931 C   0  0  0  0  0  0  0  0  0  0  0  0
   12.1019   22.5488    0.9520 C   0  0  0  0  0  0  0  0  0  0  0  0
    9.1116   24.2707    3.2679 O   0  0  0  0  0  0  0  0  0  0  0  0
    9.0530   25.6461    3.5311 C   0  0  0  0  0  0  0  0  0  0  0  0
   12.1804   20.6840    2.4691 O   0  0  0  0  0  0  0  0  0  0  0  0
   11.7140   19.9136    3.5390 C   0  0  0  0  0  0  0  0  0  0  0  0
 10 11  1  0  0  0
 11  9  1  0  0  0
  9  3  1  0  0  0
  3  4  2  0  0  0
  4  5  1  0  0  0
  5  6  2  0  0  0
  6  1  1  0  0  0
  1  2  2  0  0  0
  2 12  1  0  0  0
 12 13  2  0  0  0
 13 14  1  0  0  0
 14 18  1  0  0  0
 18 19  1  0  0  0
 14 15  2  0  0  0
 15 16  1  0  0  0
 16 20  1  0  0  0
 20 21  1  0  0  0
 16 17  2  0  0  0
  6  7  1  0  0  0
  7  8  2  0  0  0
  8  3  1  0  0  0
 17 12  1  0  0  0
M  END
> <minimizedAffinity>
-8.53344

> <CNNscore>
0.3107273579

> <CNNaffinity>
5.7138156891

> <CNN_VS>
1.7754389048

> <CNNaffinity_variance>
0.1966009885

$$$$
[H]/C(=C(/[H])c1c([H])c(OC([H])([H])[H])c([H])c(OC([H])([H])[H])c1[H])c1c([H])c([H])c(OC([H])([H])C([H])([H])[H])c([H])c1[H]


 21 22  0  0  0  0  0  0  0  0999 V2000
   12.0353   22.8139    0.6750 C   0  0  0  0  0  0  0  0  0  0  0  0
   12.1214   22.4675   -0.5878 C   0  0  0  0  0  0  0  0  0  0  0  0
    8.7072   21.7693    3.1330 C   0  0  0  0  0  0  0  0  0  0  0  0
    8.6538   21.6482    1.7641 C   0  0  0  0  0  0  0  0  0  0  0  0
    9.7474   21.9935    0.9838 C   0  0  0  0  0  0  0  0  0  0  0  0
   10.9120   22.4642    1.5431 C   0  0  0  0  0  0  0  0  0  0  0  0
   10.9662   22.5854    2.9098 C   0  0  0  0  0  0  0  0  0  0  0  0
    9.8688   22.2395    3.6998 C   0  0  0  0  0  0  0  0  0  0  0  0
    7.6379   21.4362    3.9566 O   0  0  0  0  0  0  0  0  0  0  0  0
    7.1034   23.7672    3.7516 C   0  0  0  0  0  0  0  0  0  0  0  0
    6.6266   22.3916    4.1729 C   0  0  0  0  0  0  0  0  0  0  0  0
   13.2558   22.8338   -1.4220 C   0  0  0  0  0  0  0  0  0  0  0  0
   13.9230   24.0266   -1.1272 C   0  0  0  0  0  0  0  0  0  0  0  0
   15.0066   24.4725   -1.8470 C   0  0  0  0  0  0  0  0  0  0  0  0
   15.4621   23.7176   -2.9067 C   0  0  0  0  0  0  0  0  0  0  0  0
   14.8090   22.5455   -3.1988 C   0  0  0  0  0  0  0  0  0  0  0  0
   13.7162   22.0966   -2.4724 C   0  0  0  0  0  0  0  0  0  0  0  0
   15.5881   25.6676   -1.4653 O   0  0  0  0  0  0  0  0  0  0  0  0
   16.6872   26.2605   -2.1014 C   0  0  0  0  0  0  0  0  0  0  0  0
   15.2853   21.8004   -4.2712 O   0  0  0  0  0  0  0  0  0  0  0  0
   14.5608   20.7899   -4.9116 C   0  0  0  0  0  0  0  0  0  0  0  0
 10 11  1  0  0  0
 11  9  1  0  0  0
  9  3  1  0  0  0
  3  4  2  0  0  0
  4  5  1  0  0  0
  5  6  2  0  0  0
  6  1  1  0  0  0
  1  2  2  0  0  0
  2 12  1  0  0  0
 12 13  2  0  0  0
 13 14  1  0  0  0
 14 18  1  0  0  0
 18 19  1  0  0  0
 14 15  2  0  0  0
 15 16  1  0  0  0
 16 20  1  0  0  0
 20 21  1  0  0  0
 16 17  2  0  0  0
  6  7  1  0  0  0
  7  8  2  0  0  0
  8  3  1  0  0  0
 17 12  1  0  0  0
M  END
> <minimizedAffinity>
-1.91295

> <CNNscore>
0.2997280359

> <CNNaffinity>
5.4427609444

> <CNN_VS>
1.6313480139

> <CNNaffinity_variance>
1.4165827036

$$$$
[H]/C(C(=O)N(C([H])([H])[H])C([H])([H])c1sc2c([H])c([H])c([H])c([H])c2c1C([H])([H])[H])=C(/[H])c1c([H])nc2c(c1[H])C([H])([H])N([H])C([H])([H])C([H])([H])N2[H]


 30 33  0  0  0  0  0  0  0  0999 V2000
   14.4887   26.2435   -4.4874 N   0  0  0  0  0  0  0  0  0  0  0  0
   14.9759   24.8984   -4.6303 C   0  0  0  0  0  0  0  0  0  0  0  0
   13.1244   26.3869   -3.9544 C   0  0  0  0  0  0  0  0  0  0  0  0
   12.4704   27.4216   -4.0840 O   0  0  0  0  0  0  0  0  0  0  0  0
   12.5877   25.2613   -3.1987 C   0  0  0  0  0  0  0  0  0  0  0  0
   12.4249   25.4821   -1.8843 C   0  0  0  0  0  0  0  0  0  0  0  0
   11.9047   24.4408   -0.9786 C   0  0  0  0  0  0  0  0  0  0  0  0
   10.8738   24.7498   -0.1198 C   0  0  0  0  0  0  0  0  0  0  0  0
   10.4420   23.8878    0.8610 N   0  0  0  0  0  0  0  0  0  0  0  0
   11.0624   22.7015    0.9715 C   0  0  0  0  0  0  0  0  0  0  0  0
   12.0900   22.3766    0.1071 C   0  0  0  0  0  0  0  0  0  0  0  0
   12.5244   23.2344   -0.8714 C   0  0  0  0  0  0  0  0  0  0  0  0
   12.8215   21.0672    0.1397 C   0  0  0  0  0  0  0  0  0  0  0  0
   13.4490   21.0535    1.4315 N   0  0  0  0  0  0  0  0  0  0  0  0
   12.6965   20.5489    2.5058 C   0  0  0  0  0  0  0  0  0  0  0  0
   11.2652   20.7776    2.6562 C   0  0  0  0  0  0  0  0  0  0  0  0
   10.6218   21.9047    2.0929 N   0  0  0  0  0  0  0  0  0  0  0  0
   13.8669   22.0032    1.5774 H   0  0  0  0  0  0  0  0  0  0  0  0
    9.7434   22.2443    2.5366 H   0  0  0  0  0  0  0  0  0  0  0  0
   15.1255   27.3968   -4.8612 C   0  0  0  0  0  0  0  0  0  0  0  0
   16.6268   29.2275   -2.7550 C   0  0  0  0  0  0  0  0  0  0  0  0
   17.3089   28.2818   -3.7716 C   0  0  0  0  0  0  0  0  0  0  0  0
   16.5362   27.7587   -4.7559 C   0  0  0  0  0  0  0  0  0  0  0  0
   17.7879   26.9317   -5.7331 S   0  0  0  0  0  0  0  0  0  0  0  0
   19.1521   27.3088   -4.7907 C   0  0  0  0  0  0  0  0  0  0  0  0
   20.5129   26.9639   -4.8601 C   0  0  0  0  0  0  0  0  0  0  0  0
   21.4075   27.3709   -3.9037 C   0  0  0  0  0  0  0  0  0  0  0  0
   20.8748   28.1386   -2.8828 C   0  0  0  0  0  0  0  0  0  0  0  0
   19.5793   28.4709   -2.8080 C   0  0  0  0  0  0  0  0  0  0  0  0
   18.6372   28.0562   -3.7781 C   0  0  0  0  0  0  0  0  0  0  0  0
 21 22  1  0  0  0
 22 23  2  0  0  0
 23 20  1  0  0  0
 20  1  1  0  0  0
  1  2  1  0  0  0
  1  3  1  0  0  0
  3  4  2  0  0  0
  3  5  1  0  0  0
  5  6  2  0  0  0
  6  7  1  0  0  0
  7  8  2  0  0  0
  8  9  1  0  0  0
  9 10  2  0  0  0
 10 11  1  0  0  0
 11 12  2  0  0  0
 11 13  1  0  0  0
 13 14  1  0  0  0
 14 15  1  0  0  0
 15 16  1  0  0  0
 16 17  1  0  0  0
 23 24  1  0  0  0
 24 25  1  0  0  0
 25 26  2  0  0  0
 26 27  1  0  0  0
 27 28  2  0  0  0
 28 29  1  0  0  0
 29 30  2  0  0  0
 30 22  1  0  0  0
 12  7  1  0  0  0
 30 25  1  0  0  0
 17 10  1  0  0  0
 14 18  1  0  0  0
 17 19  1  0  0  0
M  END
> <minimizedAffinity>
20.92369

> <CNNscore>
0.5212772489

> <CNNaffinity>
6.8882918358

> <CNN_VS>
3.5907099247

> <CNNaffinity_variance>
0.8848413229

$$$$
[H]/C(C(=O)N(C([H])([H])[H])C([H])([H])c1sc2c([H])c([H])c([H])c([H])c2c1C([H])([H])[H])=C(/[H])c1c([H])nc2c(c1[H])C([H])([H])N([H])C([H])([H])C([H])([H])N2[H]


 30 33  0  0  0  0  0  0  0  0999 V2000
   10.6566   24.0195    0.0388 N   0  0  0  0  0  0  0  0  0  0  0  0
   11.2683   25.1206    0.7318 C   0  0  0  0  0  0  0  0  0  0  0  0
   11.0079   23.8710   -1.3826 C   0  0  0  0  0  0  0  0  0  0  0  0
   10.3315   23.2017   -2.1635 O   0  0  0  0  0  0  0  0  0  0  0  0
   12.2429   24.5051   -1.8287 C   0  0  0  0  0  0  0  0  0  0  0  0
   12.0825   25.5318   -2.6790 C   0  0  0  0  0  0  0  0  0  0  0  0
   13.2325   26.2706   -3.2329 C   0  0  0  0  0  0  0  0  0  0  0  0
   13.2664   26.5503   -4.5807 C   0  0  0  0  0  0  0  0  0  0  0  0
   14.3701   27.0905   -5.1984 N   0  0  0  0  0  0  0  0  0  0  0  0
   15.4493   27.3489   -4.4415 C   0  0  0  0  0  0  0  0  0  0  0  0
   15.4216   27.0832   -3.0860 C   0  0  0  0  0  0  0  0  0  0  0  0
   14.3232   26.5431   -2.4666 C   0  0  0  0  0  0  0  0  0  0  0  0
   16.5685   27.3629   -2.1602 C   0  0  0  0  0  0  0  0  0  0  0  0
   17.6217   26.5177   -2.6491 N   0  0  0  0  0  0  0  0  0  0  0  0
   18.4422   27.0366   -3.6651 C   0  0  0  0  0  0  0  0  0  0  0  0
   17.9415   27.8748   -4.7469 C   0  0  0  0  0  0  0  0  0  0  0  0
   16.5979   27.8110   -5.1856 N   0  0  0  0  0  0  0  0  0  0  0  0
   17.1948   25.5812   -2.8452 H   0  0  0  0  0  0  0  0  0  0  0  0
   16.3849   28.0917   -6.1652 H   0  0  0  0  0  0  0  0  0  0  0  0
    9.7299   23.1425    0.5363 C   0  0  0  0  0  0  0  0  0  0  0  0
   11.9656   20.9024    0.3806 C   0  0  0  0  0  0  0  0  0  0  0  0
   10.9626   21.0920    1.5430 C   0  0  0  0  0  0  0  0  0  0  0  0
    9.9230   21.9393    1.3406 C   0  0  0  0  0  0  0  0  0  0  0  0
    8.9942   21.6633    2.8462 S   0  0  0  0  0  0  0  0  0  0  0  0
   10.0208   20.5279    3.5867 C   0  0  0  0  0  0  0  0  0  0  0  0
   10.0174   19.8731    4.8305 C   0  0  0  0  0  0  0  0  0  0  0  0
   11.0327   19.0293    5.2016 C   0  0  0  0  0  0  0  0  0  0  0  0
   12.0433   18.8726    4.2691 C   0  0  0  0  0  0  0  0  0  0  0  0
   12.0554   19.4935    3.0822 C   0  0  0  0  0  0  0  0  0  0  0  0
   11.0235   20.3739    2.6813 C   0  0  0  0  0  0  0  0  0  0  0  0
 21 22  1  0  0  0
 22 23  2  0  0  0
 23 20  1  0  0  0
 20  1  1  0  0  0
  1  2  1  0  0  0
  1  3  1  0  0  0
  3  4  2  0  0  0
  3  5  1  0  0  0
  5  6  2  0  0  0
  6  7  1  0  0  0
  7  8  2  0  0  0
  8  9  1  0  0  0
  9 10  2  0  0  0
 10 11  1  0  0  0
 11 12  2  0  0  0
 11 13  1  0  0  0
 13 14  1  0  0  0
 14 15  1  0  0  0
 15 16  1  0  0  0
 16 17  1  0  0  0
 23 24  1  0  0  0
 24 25  1  0  0  0
 25 26  2  0  0  0
 26 27  1  0  0  0
 27 28  2  0  0  0
 28 29  1  0  0  0
 29 30  2  0  0  0
 30 22  1  0  0  0
 12  7  1  0  0  0
 30 25  1  0  0  0
 17 10  1  0  0  0
 14 18  1  0  0  0
 17 19  1  0  0  0
M  END
> <minimizedAffinity>
0.45626

> <CNNscore>
0.3201267123

> <CNNaffinity>
6.5959649086

> <CNN_VS>
2.1115446091

> <CNNaffinity_variance>
0.6757248640

$$$$
[H]/C(C(=O)N(C([H])([H])[H])C([H])([H])c1sc2c([H])c([H])c([H])c([H])c2c1C([H])([H])[H])=C(/[H])c1c([H])nc2c(c1[H])C([H])([H])N([H])C([H])([H])C([H])([H])N2[H]


 30 33  0  0  0  0  0  0  0  0999 V2000
   14.2975   27.5558   -4.4567 N   0  0  0  0  0  0  0  0  0  0  0  0
   14.1133   28.9483   -4.7637 C   0  0  0  0  0  0  0  0  0  0  0  0
   13.3451   26.9702   -3.4998 C   0  0  0  0  0  0  0  0  0  0  0  0
   13.5701   25.9159   -2.9057 O   0  0  0  0  0  0  0  0  0  0  0  0
   12.0742   27.6629   -3.3233 C   0  0  0  0  0  0  0  0  0  0  0  0
   11.5869   28.2515   -4.4274 C   0  0  0  0  0  0  0  0  0  0  0  0
   10.3182   29.0034   -4.4132 C   0  0  0  0  0  0  0  0  0  0  0  0
   10.2519   30.1984   -3.7322 C   0  0  0  0  0  0  0  0  0  0  0  0
    9.0714   30.8766   -3.5380 N   0  0  0  0  0  0  0  0  0  0  0  0
    7.9478   30.3372   -4.0389 C   0  0  0  0  0  0  0  0  0  0  0  0
    8.0050   29.1446   -4.7342 C   0  0  0  0  0  0  0  0  0  0  0  0
    9.1803   28.4645   -4.9288 C   0  0  0  0  0  0  0  0  0  0  0  0
    6.8076   28.4828   -5.3497 C   0  0  0  0  0  0  0  0  0  0  0  0
    5.9646   28.1798   -4.2272 N   0  0  0  0  0  0  0  0  0  0  0  0
    5.0728   29.1806   -3.8050 C   0  0  0  0  0  0  0  0  0  0  0  0
    5.4070   30.5989   -3.8010 C   0  0  0  0  0  0  0  0  0  0  0  0
    6.7421   31.0553   -3.6967 N   0  0  0  0  0  0  0  0  0  0  0  0
    6.5821   27.7791   -3.4816 H   0  0  0  0  0  0  0  0  0  0  0  0
    6.9100   32.0029   -3.2994 H   0  0  0  0  0  0  0  0  0  0  0  0
   15.3032   26.7384   -4.8992 C   0  0  0  0  0  0  0  0  0  0  0  0
   16.6171   25.0321   -7.2237 C   0  0  0  0  0  0  0  0  0  0  0  0
   16.0347   24.4617   -5.9089 C   0  0  0  0  0  0  0  0  0  0  0  0
   15.2968   25.2977   -5.1368 C   0  0  0  0  0  0  0  0  0  0  0  0
   14.7190   24.1484   -3.8914 S   0  0  0  0  0  0  0  0  0  0  0  0
   15.4840   22.7387   -4.4562 C   0  0  0  0  0  0  0  0  0  0  0  0
   15.5746   21.4191   -3.9808 C   0  0  0  0  0  0  0  0  0  0  0  0
   16.3319   20.4737   -4.6236 C   0  0  0  0  0  0  0  0  0  0  0  0
   16.9869   20.9125   -5.7610 C   0  0  0  0  0  0  0  0  0  0  0  0
   16.9073   22.1682   -6.2205 C   0  0  0  0  0  0  0  0  0  0  0  0
   16.1391   23.1619   -5.5701 C   0  0  0  0  0  0  0  0  0  0  0  0
 21 22  1  0  0  0
 22 23  2  0  0  0
 23 20  1  0  0  0
 20  1  1  0  0  0
  1  2  1  0  0  0
  1  3  1  0  0  0
  3  4  2  0  0  0
  3  5  1  0  0  0
  5  6  2  0  0  0
  6  7  1  0  0  0
  7  8  2  0  0  0
  8  9  1  0  0  0
  9 10  2  0  0  0
 10 11  1  0  0  0
 11 12  2  0  0  0
 11 13  1  0  0  0
 13 14  1  0  0  0
 14 15  1  0  0  0
 15 16  1  0  0  0
 16 17  1  0  0  0
 23 24  1  0  0  0
 24 25  1  0  0  0
 25 26  2  0  0  0
 26 27  1  0  0  0
 27 28  2  0  0  0
 28 29  1  0  0  0
 29 30  2  0  0  0
 30 22  1  0  0  0
 12  7  1  0  0  0
 30 25  1  0  0  0
 17 10  1  0  0  0
 14 18  1  0  0  0
 17 19  1  0  0  0
M  END
> <minimizedAffinity>
42.81809

> <CNNscore>
0.3141473830

> <CNNaffinity>
5.6362791061

> <CNN_VS>
1.7706223726

> <CNNaffinity_variance>
0.5489209890

$$$$
[H]/C(C(=O)N(C([H])([H])[H])C([H])([H])c1sc2c([H])c([H])c([H])c([H])c2c1C([H])([H])[H])=C(/[H])c1c([H])nc2c(c1[H])C([H])([H])N([H])C([H])([H])C([H])([H])N2[H]


 30 33  0  0  0  0  0  0  0  0999 V2000
   14.0008   25.4779   -1.1026 N   0  0  0  0  0  0  0  0  0  0  0  0
   12.8517   25.8194   -0.3089 C   0  0  0  0  0  0  0  0  0  0  0  0
   14.4262   24.0698   -1.0571 C   0  0  0  0  0  0  0  0  0  0  0  0
   15.5496   23.7078   -1.4066 O   0  0  0  0  0  0  0  0  0  0  0  0
   13.4311   23.0912   -0.6347 C   0  0  0  0  0  0  0  0  0  0  0  0
   12.1610   23.5267   -0.6480 C   0  0  0  0  0  0  0  0  0  0  0  0
   11.0380   22.6638   -0.2364 C   0  0  0  0  0  0  0  0  0  0  0  0
   10.5047   21.7754   -1.1433 C   0  0  0  0  0  0  0  0  0  0  0  0
    9.3614   21.0542   -0.8902 N   0  0  0  0  0  0  0  0  0  0  0  0
    8.7534   21.2364    0.2935 C   0  0  0  0  0  0  0  0  0  0  0  0
    9.2868   22.1166    1.2154 C   0  0  0  0  0  0  0  0  0  0  0  0
   10.4261   22.8388    0.9661 C   0  0  0  0  0  0  0  0  0  0  0  0
    8.6914   22.3639    2.5700 C   0  0  0  0  0  0  0  0  0  0  0  0
    7.3974   22.9173    2.2833 N   0  0  0  0  0  0  0  0  0  0  0  0
    6.3399   22.0119    2.0913 C   0  0  0  0  0  0  0  0  0  0  0  0
    6.4941   20.7376    1.4015 C   0  0  0  0  0  0  0  0  0  0  0  0
    7.5040   20.5252    0.4336 N   0  0  0  0  0  0  0  0  0  0  0  0
    7.5307   23.6264    1.5236 H   0  0  0  0  0  0  0  0  0  0  0  0
    7.3428   19.8012   -0.2969 H   0  0  0  0  0  0  0  0  0  0  0  0
   14.7828   26.3314   -1.8343 C   0  0  0  0  0  0  0  0  0  0  0  0
   16.3389   28.5080   -3.5319 C   0  0  0  0  0  0  0  0  0  0  0  0
   15.6246   27.2619   -4.1066 C   0  0  0  0  0  0  0  0  0  0  0  0
   14.8068   26.5702   -3.2746 C   0  0  0  0  0  0  0  0  0  0  0  0
   14.1066   25.3933   -4.4281 S   0  0  0  0  0  0  0  0  0  0  0  0
   14.9319   25.8768   -5.8339 C   0  0  0  0  0  0  0  0  0  0  0  0
   14.9774   25.3961   -7.1540 C   0  0  0  0  0  0  0  0  0  0  0  0
   15.8014   25.9574   -8.0955 C   0  0  0  0  0  0  0  0  0  0  0  0
   16.5700   27.0196   -7.6524 C   0  0  0  0  0  0  0  0  0  0  0  0
   16.5340   27.4834   -6.3963 C   0  0  0  0  0  0  0  0  0  0  0  0
   15.6981   26.9156   -5.4065 C   0  0  0  0  0  0  0  0  0  0  0  0
 21 22  1  0  0  0
 22 23  2  0  0  0
 23 20  1  0  0  0
 20  1  1  0  0  0
  1  2  1  0  0  0
  1  3  1  0  0  0
  3  4  2  0  0  0
  3  5  1  0  0  0
  5  6  2  0  0  0
  6  7  1  0  0  0
  7  8  2  0  0  0
  8  9  1  0  0  0
  9 10  2  0  0  0
 10 11  1  0  0  0
 11 12  2  0  0  0
 11 13  1  0  0  0
 13 14  1  0  0  0
 14 15  1  0  0  0
 15 16  1  0  0  0
 16 17  1  0  0  0
 23 24  1  0  0  0
 24 25  1  0  0  0
 25 26  2  0  0  0
 26 27  1  0  0  0
 27 28  2  0  0  0
 28 29  1  0  0  0
 29 30  2  0  0  0
 30 22  1  0  0  0
 12  7  1  0  0  0
 30 25  1  0  0  0
 17 10  1  0  0  0
 14 18  1  0  0  0
 17 19  1  0  0  0
M  END
> <minimizedAffinity>
-0.78307

> <CNNscore>
0.2852427363

> <CNNaffinity>
6.5815505981

> <CNN_VS>
1.8773394823

> <CNNaffinity_variance>
0.7578769326

$$$$
[H]/C(C(=O)N(C([H])([H])[H])C([H])([H])c1sc2c([H])c([H])c([H])c([H])c2c1C([H])([H])[H])=C(/[H])c1c([H])nc2c(c1[H])C([H])([H])N([H])C([H])([H])C([H])([H])N2[H]


 30 33  0  0  0  0  0  0  0  0999 V2000
   12.9455   24.3180   -2.2345 N   0  0  0  0  0  0  0  0  0  0  0  0
   13.6957   23.0915   -2.2364 C   0  0  0  0  0  0  0  0  0  0  0  0
   11.6479   24.2845   -1.5411 C   0  0  0  0  0  0  0  0  0  0  0  0
   10.7742   25.1299   -1.7340 O   0  0  0  0  0  0  0  0  0  0  0  0
   11.4531   23.2308   -0.5523 C   0  0  0  0  0  0  0  0  0  0  0  0
   10.3146   23.3148    0.1546 C   0  0  0  0  0  0  0  0  0  0  0  0
    9.9747   22.3340    1.2023 C   0  0  0  0  0  0  0  0  0  0  0  0
    8.8544   22.5376    1.9766 C   0  0  0  0  0  0  0  0  0  0  0  0
    8.5588   21.7602    3.0719 N   0  0  0  0  0  0  0  0  0  0  0  0
    9.4079   20.7675    3.3846 C   0  0  0  0  0  0  0  0  0  0  0  0
   10.5286   20.5470    2.6072 C   0  0  0  0  0  0  0  0  0  0  0  0
   10.8275   21.3211    1.5149 C   0  0  0  0  0  0  0  0  0  0  0  0
   11.5164   19.4478    2.8653 C   0  0  0  0  0  0  0  0  0  0  0  0
   12.0579   19.7655    4.1570 N   0  0  0  0  0  0  0  0  0  0  0  0
   11.3686   19.2772    5.2801 C   0  0  0  0  0  0  0  0  0  0  0  0
    9.9151   19.2097    5.3587 C   0  0  0  0  0  0  0  0  0  0  0  0
    9.0818   20.0723    4.6080 N   0  0  0  0  0  0  0  0  0  0  0  0
   12.2572   20.7941    4.1593 H   0  0  0  0  0  0  0  0  0  0  0  0
    8.1277   20.2760    4.9713 H   0  0  0  0  0  0  0  0  0  0  0  0
   13.2721   25.4871   -2.8684 C   0  0  0  0  0  0  0  0  0  0  0  0
   13.9713   27.2088   -5.4351 C   0  0  0  0  0  0  0  0  0  0  0  0
   14.9455   26.8834   -4.2784 C   0  0  0  0  0  0  0  0  0  0  0  0
   14.5614   25.9393   -3.3836 C   0  0  0  0  0  0  0  0  0  0  0  0
   16.0566   25.8032   -2.4080 S   0  0  0  0  0  0  0  0  0  0  0  0
   17.0038   26.9648   -3.2111 C   0  0  0  0  0  0  0  0  0  0  0  0
   18.2897   27.4918   -3.0003 C   0  0  0  0  0  0  0  0  0  0  0  0
   18.7943   28.4936   -3.7892 C   0  0  0  0  0  0  0  0  0  0  0  0
   17.9532   28.9358   -4.7953 C   0  0  0  0  0  0  0  0  0  0  0  0
   16.7261   28.4403   -5.0026 C   0  0  0  0  0  0  0  0  0  0  0  0
   16.1818   27.4128   -4.1972 C   0  0  0  0  0  0  0  0  0  0  0  0
 21 22  1  0  0  0
 22 23  2  0  0  0
 23 20  1  0  0  0
 20  1  1  0  0  0
  1  2  1  0  0  0
  1  3  1  0  0  0
  3  4  2  0  0  0
  3  5  1  0  0  0
  5  6  2  0  0  0
  6  7  1  0  0  0
  7  8  2  0  0  0
  8  9  1  0  0  0
  9 10  2  0  0  0
 10 11  1  0  0  0
 11 12  2  0  0  0
 11 13  1  0  0  0
 13 14  1  0  0  0
 14 15  1  0  0  0
 15 16  1  0  0  0
 16 17  1  0  0  0
 23 24  1  0  0  0
 24 25  1  0  0  0
 25 26  2  0  0  0
 26 27  1  0  0  0
 27 28  2  0  0  0
 28 29  1  0  0  0
 29 30  2  0  0  0
 30 22  1  0  0  0
 12  7  1  0  0  0
 30 25  1  0  0  0
 17 10  1  0  0  0
 14 18  1  0  0  0
 17 19  1  0  0  0
M  END
> <minimizedAffinity>
-0.74172

> <CNNscore>
0.2547784746

> <CNNaffinity>
6.1300420761

> <CNN_VS>
1.5618027449

> <CNNaffinity_variance>
0.5063136220

$$$$
[H]/C(C(=O)N(C([H])([H])[H])C([H])([H])c1sc2c([H])c([H])c([H])c([H])c2c1C([H])([H])[H])=C(/[H])c1c([H])nc2c(c1[H])C([H])([H])N([H])C([H])([H])C([H])([H])N2[H]


 30 33  0  0  0  0  0  0  0  0999 V2000
   14.9069   23.9805   -0.1130 N   0  0  0  0  0  0  0  0  0  0  0  0
   15.0557   22.6755    0.4718 C   0  0  0  0  0  0  0  0  0  0  0  0
   13.5296   24.4848   -0.2336 C   0  0  0  0  0  0  0  0  0  0  0  0
   13.2285   25.4080   -0.9901 O   0  0  0  0  0  0  0  0  0  0  0  0
   12.5261   23.8833    0.6367 C   0  0  0  0  0  0  0  0  0  0  0  0
   11.3032   23.7585    0.0965 C   0  0  0  0  0  0  0  0  0  0  0  0
   10.1744   23.1820    0.8506 C   0  0  0  0  0  0  0  0  0  0  0  0
    8.8887   23.5525    0.5252 C   0  0  0  0  0  0  0  0  0  0  0  0
    7.7982   23.1861    1.2788 N   0  0  0  0  0  0  0  0  0  0  0  0
    8.0143   22.4373    2.3728 C   0  0  0  0  0  0  0  0  0  0  0  0
    9.2992   22.0501    2.7017 C   0  0  0  0  0  0  0  0  0  0  0  0
   10.3895   22.4148    1.9533 C   0  0  0  0  0  0  0  0  0  0  0  0
    9.6317   21.1941    3.8880 C   0  0  0  0  0  0  0  0  0  0  0  0
    9.2187   21.9860    5.0127 N   0  0  0  0  0  0  0  0  0  0  0  0
    7.8805   21.8675    5.4249 C   0  0  0  0  0  0  0  0  0  0  0  0
    6.7684   21.7147    4.4957 C   0  0  0  0  0  0  0  0  0  0  0  0
    6.8318   22.1900    3.1646 N   0  0  0  0  0  0  0  0  0  0  0  0
    9.5541   22.9630    4.8371 H   0  0  0  0  0  0  0  0  0  0  0  0
    5.9403   22.4302    2.6836 H   0  0  0  0  0  0  0  0  0  0  0  0
   15.8969   24.7696   -0.6350 C   0  0  0  0  0  0  0  0  0  0  0  0
   15.1832   23.2755   -3.3368 C   0  0  0  0  0  0  0  0  0  0  0  0
   15.6639   24.7412   -3.2201 C   0  0  0  0  0  0  0  0  0  0  0  0
   16.1551   25.1453   -2.0222 C   0  0  0  0  0  0  0  0  0  0  0  0
   16.7289   26.7854   -2.4542 S   0  0  0  0  0  0  0  0  0  0  0  0
   16.2710   26.8038   -4.0916 C   0  0  0  0  0  0  0  0  0  0  0  0
   16.3199   27.7727   -5.1088 C   0  0  0  0  0  0  0  0  0  0  0  0
   15.8091   27.5300   -6.3581 C   0  0  0  0  0  0  0  0  0  0  0  0
   15.2535   26.2752   -6.5374 C   0  0  0  0  0  0  0  0  0  0  0  0
   15.2015   25.3464   -5.5736 C   0  0  0  0  0  0  0  0  0  0  0  0
   15.7146   25.5769   -4.2758 C   0  0  0  0  0  0  0  0  0  0  0  0
 21 22  1  0  0  0
 22 23  2  0  0  0
 23 20  1  0  0  0
 20  1  1  0  0  0
  1  2  1  0  0  0
  1  3  1  0  0  0
  3  4  2  0  0  0
  3  5  1  0  0  0
  5  6  2  0  0  0
  6  7  1  0  0  0
  7  8  2  0  0  0
  8  9  1  0  0  0
  9 10  2  0  0  0
 10 11  1  0  0  0
 11 12  2  0  0  0
 11 13  1  0  0  0
 13 14  1  0  0  0
 14 15  1  0  0  0
 15 16  1  0  0  0
 16 17  1  0  0  0
 23 24  1  0  0  0
 24 25  1  0  0  0
 25 26  2  0  0  0
 26 27  1  0  0  0
 27 28  2  0  0  0
 28 29  1  0  0  0
 29 30  2  0  0  0
 30 22  1  0  0  0
 12  7  1  0  0  0
 30 25  1  0  0  0
 17 10  1  0  0  0
 14 18  1  0  0  0
 17 19  1  0  0  0
M  END
> <minimizedAffinity>
-8.64655

> <CNNscore>
0.2076133639

> <CNNaffinity>
6.3735747337

> <CNN_VS>
1.3232393265

> <CNNaffinity_variance>
0.2391895801

$$$$
[H]/C(C(=O)N(C([H])([H])[H])C([H])([H])c1sc2c([H])c([H])c([H])c([H])c2c1C([H])([H])[H])=C(/[H])c1c([H])nc2c(c1[H])C([H])([H])N([H])C([H])([H])C([H])([H])N2[H]


 30 33  0  0  0  0  0  0  0  0999 V2000
   14.6152   23.8007   -0.1831 N   0  0  0  0  0  0  0  0  0  0  0  0
   14.6376   22.4331    0.2599 C   0  0  0  0  0  0  0  0  0  0  0  0
   13.2938   24.4471   -0.2284 C   0  0  0  0  0  0  0  0  0  0  0  0
   13.0811   25.4698   -0.8795 O   0  0  0  0  0  0  0  0  0  0  0  0
   12.2407   23.8582    0.5904 C   0  0  0  0  0  0  0  0  0  0  0  0
   11.0359   24.4396    0.4754 C   0  0  0  0  0  0  0  0  0  0  0  0
    9.8689   23.9713    1.2461 C   0  0  0  0  0  0  0  0  0  0  0  0
    9.8223   24.2015    2.6028 C   0  0  0  0  0  0  0  0  0  0  0  0
    8.8521   23.6607    3.4138 N   0  0  0  0  0  0  0  0  0  0  0  0
    7.9210   22.8788    2.8429 C   0  0  0  0  0  0  0  0  0  0  0  0
    7.9516   22.6511    1.4805 C   0  0  0  0  0  0  0  0  0  0  0  0
    8.9185   23.1876    0.6686 C   0  0  0  0  0  0  0  0  0  0  0  0
    6.9401   21.8144    0.7543 C   0  0  0  0  0  0  0  0  0  0  0  0
    7.1043   20.5046    1.3200 N   0  0  0  0  0  0  0  0  0  0  0  0
    6.3703   20.2100    2.4816 C   0  0  0  0  0  0  0  0  0  0  0  0
    6.1325   21.1786    3.5439 C   0  0  0  0  0  0  0  0  0  0  0  0
    7.0076   22.2653    3.7787 N   0  0  0  0  0  0  0  0  0  0  0  0
    8.1348   20.3243    1.3771 H   0  0  0  0  0  0  0  0  0  0  0  0
    7.0450   22.6705    4.7369 H   0  0  0  0  0  0  0  0  0  0  0  0
   15.6753   24.5399   -0.6358 C   0  0  0  0  0  0  0  0  0  0  0  0
   15.1287   23.1385   -3.4248 C   0  0  0  0  0  0  0  0  0  0  0  0
   15.5773   24.6060   -3.2289 C   0  0  0  0  0  0  0  0  0  0  0  0
   15.9987   24.9718   -1.9927 C   0  0  0  0  0  0  0  0  0  0  0  0
   16.5658   26.6356   -2.3329 S   0  0  0  0  0  0  0  0  0  0  0  0
   16.1932   26.7091   -3.9903 C   0  0  0  0  0  0  0  0  0  0  0  0
   16.2782   27.7164   -4.9669 C   0  0  0  0  0  0  0  0  0  0  0  0
   15.8372   27.5135   -6.2494 C   0  0  0  0  0  0  0  0  0  0  0  0
   15.3134   26.2580   -6.5040 C   0  0  0  0  0  0  0  0  0  0  0  0
   15.2274   25.2927   -5.5793 C   0  0  0  0  0  0  0  0  0  0  0  0
   15.6684   25.4816   -4.2487 C   0  0  0  0  0  0  0  0  0  0  0  0
 21 22  1  0  0  0
 22 23  2  0  0  0
 23 20  1  0  0  0
 20  1  1  0  0  0
  1  2  1  0  0  0
  1  3  1  0  0  0
  3  4  2  0  0  0
  3  5  1  0  0  0
  5  6  2  0  0  0
  6  7  1  0  0  0
  7  8  2  0  0  0
  8  9  1  0  0  0
  9 10  2  0  0  0
 10 11  1  0  0  0
 11 12  2  0  0  0
 11 13  1  0  0  0
 13 14  1  0  0  0
 14 15  1  0  0  0
 15 16  1  0  0  0
 16 17  1  0  0  0
 23 24  1  0  0  0
 24 25  1  0  0  0
 25 26  2  0  0  0
 26 27  1  0  0  0
 27 28  2  0  0  0
 28 29  1  0  0  0
 29 30  2  0  0  0
 30 22  1  0  0  0
 12  7  1  0  0  0
 30 25  1  0  0  0
 17 10  1  0  0  0
 14 18  1  0  0  0
 17 19  1  0  0  0
M  END
> <minimizedAffinity>
-8.89625

> <CNNscore>
0.2026695758

> <CNNaffinity>
6.2863235474

> <CNN_VS>
1.2740465403

> <CNNaffinity_variance>
0.1213911548

$$$$
[H]/C(C(=O)N(C([H])([H])[H])C([H])([H])c1sc2c([H])c([H])c([H])c([H])c2c1C([H])([H])[H])=C(/[H])c1c([H])nc2c(c1[H])C([H])([H])N([H])C([H])([H])C([H])([H])N2[H]


 30 33  0  0  0  0  0  0  0  0999 V2000
   13.2277   22.1617   -0.6231 N   0  0  0  0  0  0  0  0  0  0  0  0
   12.3394   21.1003   -1.0124 C   0  0  0  0  0  0  0  0  0  0  0  0
   12.9599   22.7869    0.6819 C   0  0  0  0  0  0  0  0  0  0  0  0
   13.4119   23.8893    0.9910 O   0  0  0  0  0  0  0  0  0  0  0  0
   12.1772   22.0129    1.6382 C   0  0  0  0  0  0  0  0  0  0  0  0
   11.0264   22.5839    2.0288 C   0  0  0  0  0  0  0  0  0  0  0  0
   10.1270   21.9362    3.0017 C   0  0  0  0  0  0  0  0  0  0  0  0
   10.5347   20.7800    3.6287 C   0  0  0  0  0  0  0  0  0  0  0  0
    9.6972   20.0324    4.4232 N   0  0  0  0  0  0  0  0  0  0  0  0
    8.4345   20.4618    4.5827 C   0  0  0  0  0  0  0  0  0  0  0  0
    8.0187   21.6271    3.9678 C   0  0  0  0  0  0  0  0  0  0  0  0
    8.8506   22.3746    3.1734 C   0  0  0  0  0  0  0  0  0  0  0  0
    6.6375   22.1952    4.1101 C   0  0  0  0  0  0  0  0  0  0  0  0
    5.7886   21.1886    3.5367 N   0  0  0  0  0  0  0  0  0  0  0  0
    5.3477   20.1599    4.3866 C   0  0  0  0  0  0  0  0  0  0  0  0
    6.1821   19.5676    5.4240 C   0  0  0  0  0  0  0  0  0  0  0  0
    7.5945   19.5635    5.3402 N   0  0  0  0  0  0  0  0  0  0  0  0
    6.2442   20.8768    2.6462 H   0  0  0  0  0  0  0  0  0  0  0  0
    8.1166   18.8180    5.8457 H   0  0  0  0  0  0  0  0  0  0  0  0
   14.2453   22.7008   -1.3642 C   0  0  0  0  0  0  0  0  0  0  0  0
   12.5870   25.3429   -1.9217 C   0  0  0  0  0  0  0  0  0  0  0  0
   13.7491   24.8104   -2.7930 C   0  0  0  0  0  0  0  0  0  0  0  0
   14.1856   23.5492   -2.5512 C   0  0  0  0  0  0  0  0  0  0  0  0
   15.3505   23.3556   -3.8970 S   0  0  0  0  0  0  0  0  0  0  0  0
   15.1865   24.8895   -4.6123 C   0  0  0  0  0  0  0  0  0  0  0  0
   15.8199   25.5395   -5.6856 C   0  0  0  0  0  0  0  0  0  0  0  0
   15.5249   26.8376   -6.0151 C   0  0  0  0  0  0  0  0  0  0  0  0
   14.5675   27.4469   -5.2230 C   0  0  0  0  0  0  0  0  0  0  0  0
   13.9599   26.8356   -4.1976 C   0  0  0  0  0  0  0  0  0  0  0  0
   14.2535   25.5005   -3.8345 C   0  0  0  0  0  0  0  0  0  0  0  0
 21 22  1  0  0  0
 22 23  2  0  0  0
 23 20  1  0  0  0
 20  1  1  0  0  0
  1  2  1  0  0  0
  1  3  1  0  0  0
  3  4  2  0  0  0
  3  5  1  0  0  0
  5  6  2  0  0  0
  6  7  1  0  0  0
  7  8  2  0  0  0
  8  9  1  0  0  0
  9 10  2  0  0  0
 10 11  1  0  0  0
 11 12  2  0  0  0
 11 13  1  0  0  0
 13 14  1  0  0  0
 14 15  1  0  0  0
 15 16  1  0  0  0
 16 17  1  0  0  0
 23 24  1  0  0  0
 24 25  1  0  0  0
 25 26  2  0  0  0
 26 27  1  0  0  0
 27 28  2  0  0  0
 28 29  1  0  0  0
 29 30  2  0  0  0
 30 22  1  0  0  0
 12  7  1  0  0  0
 30 25  1  0  0  0
 17 10  1  0  0  0
 14 18  1  0  0  0
 17 19  1  0  0  0
M  END
> <minimizedAffinity>
-8.50462

> <CNNscore>
0.1504643708

> <CNNaffinity>
6.1777329445

> <CNN_VS>
0.9295287132

> <CNNaffinity_variance>
0.3012048602

$$$$
[H]/C(C(=O)N(C([H])([H])[H])C([H])([H])c1sc2c([H])c([H])c([H])c([H])c2c1C([H])([H])[H])=C(/[H])c1c([H])nc2c(c1[H])C([H])([H])N([H])C([H])([H])C([H])([H])N2[H]


 30 33  0  0  0  0  0  0  0  0999 V2000
   11.6333   21.5087    0.0472 N   0  0  0  0  0  0  0  0  0  0  0  0
   11.2023   21.5926   -1.3219 C   0  0  0  0  0  0  0  0  0  0  0  0
   13.0785   21.6549    0.2832 C   0  0  0  0  0  0  0  0  0  0  0  0
   13.6176   21.2868    1.3268 O   0  0  0  0  0  0  0  0  0  0  0  0
   13.8546   22.3207   -0.7562 C   0  0  0  0  0  0  0  0  0  0  0  0
   14.3265   23.5340   -0.4273 C   0  0  0  0  0  0  0  0  0  0  0  0
   15.1188   24.3433   -1.3719 C   0  0  0  0  0  0  0  0  0  0  0  0
   16.2650   24.9646   -0.9288 C   0  0  0  0  0  0  0  0  0  0  0  0
   16.9683   25.8605   -1.6996 N   0  0  0  0  0  0  0  0  0  0  0  0
   16.5042   26.1286   -2.9312 C   0  0  0  0  0  0  0  0  0  0  0  0
   15.3617   25.5016   -3.3902 C   0  0  0  0  0  0  0  0  0  0  0  0
   14.6567   24.6087   -2.6237 C   0  0  0  0  0  0  0  0  0  0  0  0
   14.7860   25.7197   -4.7583 C   0  0  0  0  0  0  0  0  0  0  0  0
   14.4348   27.1122   -4.7679 N   0  0  0  0  0  0  0  0  0  0  0  0
   15.4338   28.0240   -5.1493 C   0  0  0  0  0  0  0  0  0  0  0  0
   16.8361   27.8726   -4.7830 C   0  0  0  0  0  0  0  0  0  0  0  0
   17.2378   27.1584   -3.6297 N   0  0  0  0  0  0  0  0  0  0  0  0
   13.9620   27.3136   -3.8548 H   0  0  0  0  0  0  0  0  0  0  0  0
   18.1490   27.4037   -3.1899 H   0  0  0  0  0  0  0  0  0  0  0  0
   10.8576   21.2348    1.1421 C   0  0  0  0  0  0  0  0  0  0  0  0
    9.8656   21.0137    4.1434 C   0  0  0  0  0  0  0  0  0  0  0  0
    9.7555   22.2723    3.2508 C   0  0  0  0  0  0  0  0  0  0  0  0
   10.0046   22.1237    1.9258 C   0  0  0  0  0  0  0  0  0  0  0  0
    9.5689   23.7578    1.3382 S   0  0  0  0  0  0  0  0  0  0  0  0
    9.1405   24.4679    2.8226 C   0  0  0  0  0  0  0  0  0  0  0  0
    8.7478   25.7609    3.2097 C   0  0  0  0  0  0  0  0  0  0  0  0
    8.5160   26.0788    4.5234 C   0  0  0  0  0  0  0  0  0  0  0  0
    8.6929   25.0427    5.4237 C   0  0  0  0  0  0  0  0  0  0  0  0
    9.0681   23.8081    5.0639 C   0  0  0  0  0  0  0  0  0  0  0  0
    9.3202   23.4593    3.7166 C   0  0  0  0  0  0  0  0  0  0  0  0
 21 22  1  0  0  0
 22 23  2  0  0  0
 23 20  1  0  0  0
 20  1  1  0  0  0
  1  2  1  0  0  0
  1  3  1  0  0  0
  3  4  2  0  0  0
  3  5  1  0  0  0
  5  6  2  0  0  0
  6  7  1  0  0  0
  7  8  2  0  0  0
  8  9  1  0  0  0
  9 10  2  0  0  0
 10 11  1  0  0  0
 11 12  2  0  0  0
 11 13  1  0  0  0
 13 14  1  0  0  0
 14 15  1  0  0  0
 15 16  1  0  0  0
 16 17  1  0  0  0
 23 24  1  0  0  0
 24 25  1  0  0  0
 25 26  2  0  0  0
 26 27  1  0  0  0
 27 28  2  0  0  0
 28 29  1  0  0  0
 29 30  2  0  0  0
 30 22  1  0  0  0
 12  7  1  0  0  0
 30 25  1  0  0  0
 17 10  1  0  0  0
 14 18  1  0  0  0
 17 19  1  0  0  0
M  END
> <minimizedAffinity>
-8.89374

> <CNNscore>
0.1482786238

> <CNNaffinity>
6.7584557533

> <CNN_VS>
1.0021345615

> <CNNaffinity_variance>
0.3807150722

$$$$
[H]c1c([H])c([H])c(C([H])([H])N(C([H])([H])[H])C([H])([H])C([H])([H])OC(=O)C2=C(C([H])([H])[H])N=C(C([H])([H])[H])C([H])(C(=O)OC([H])([H])[H])C2([H])c2c([H])c([H])c([H])c([N+](=O)[O-])c2[H])c([H])c1[H]


 35 37  0  0  0  0  0  0  0  0999 V2000
   15.0877   25.5568   -3.7688 C   0  0  0  0  0  0  0  0  0  0  0  0
   15.6003   24.7828   -4.9041 C   0  0  0  0  0  0  0  0  0  0  0  0
   16.2799   25.5767   -6.0080 C   0  0  0  0  0  0  0  0  0  0  0  0
   15.5291   23.5351   -5.0418 N   0  0  0  0  0  0  0  0  0  0  0  0
   14.9165   22.7255   -4.0573 C   0  0  0  0  0  0  0  0  0  0  0  0
   14.8595   21.2441   -4.3225 C   0  0  0  0  0  0  0  0  0  0  0  0
   14.4153   23.2839   -2.9756 C   0  0  0  0  0  0  0  0  0  0  0  0
   14.4920   24.7553   -2.7084 C   0  0  0  0  0  0  0  0  0  0  0  0
   15.1631   24.9390   -1.3860 C   0  0  0  0  0  0  0  0  0  0  0  0
   16.3675   24.3712   -1.0743 C   0  0  0  0  0  0  0  0  0  0  0  0
   16.9705   24.5781    0.1498 C   0  0  0  0  0  0  0  0  0  0  0  0
   16.3409   25.3836    1.0928 C   0  0  0  0  0  0  0  0  0  0  0  0
   15.1204   25.9630    0.7857 C   0  0  0  0  0  0  0  0  0  0  0  0
   14.5483   25.7318   -0.4515 C   0  0  0  0  0  0  0  0  0  0  0  0
   14.4973   26.7811    1.7632 N   0  0  0  0  0  0  0  0  0  0  0  0
   15.1903   27.2194    2.6946 O   0  0  0  0  0  0  0  0  0  0  0  0
   13.1711   27.1069    1.7249 O   0  0  0  0  0  0  0  0  0  0  0  0
   14.1131   26.5502   -4.3625 C   0  0  0  0  0  0  0  0  0  0  0  0
   12.8942   26.3918   -4.3025 O   0  0  0  0  0  0  0  0  0  0  0  0
   15.9128   28.1712   -4.6097 C   0  0  0  0  0  0  0  0  0  0  0  0
   14.6367   27.6634   -4.9870 O   0  0  0  0  0  0  0  0  0  0  0  0
   13.7821   22.4556   -1.9619 C   0  0  0  0  0  0  0  0  0  0  0  0
   12.4931   22.4460   -1.9366 O   0  0  0  0  0  0  0  0  0  0  0  0
   14.3728   21.6625   -1.0060 O   0  0  0  0  0  0  0  0  0  0  0  0
   14.0892   21.9506    0.3741 C   0  0  0  0  0  0  0  0  0  0  0  0
   13.2299   20.9339    1.0109 C   0  0  0  0  0  0  0  0  0  0  0  0
   11.8503   21.1732    1.1416 N   0  0  0  0  0  0  0  0  0  0  0  0
   10.9155   20.4120    0.4429 C   0  0  0  0  0  0  0  0  0  0  0  0
   11.6044   22.5878    1.0839 C   0  0  0  0  0  0  0  0  0  0  0  0
   10.7110   23.0968    2.1423 C   0  0  0  0  0  0  0  0  0  0  0  0
   10.3630   22.3811    3.2732 C   0  0  0  0  0  0  0  0  0  0  0  0
    9.5244   22.8936    4.2396 C   0  0  0  0  0  0  0  0  0  0  0  0
    9.0136   24.1662    4.0736 C   0  0  0  0  0  0  0  0  0  0  0  0
    9.3488   24.8948    2.9534 C   0  0  0  0  0  0  0  0  0  0  0  0
   10.1810   24.3648    2.0108 C   0  0  0  0  0  0  0  0  0  0  0  0
 20 21  1  0  0  0
 21 18  1  0  0  0
 18 19  2  0  0  0
 18  1  1  0  0  0
  1  2  1  0  0  0
  2  3  1  0  0  0
  2  4  2  0  0  0
  4  5  1  0  0  0
  5  6  1  0  0  0
  5  7  2  0  0  0
  7 22  1  0  0  0
 22 23  2  0  0  0
 22 24  1  0  0  0
 24 25  1  0  0  0
 25 26  1  0  0  0
 26 27  1  0  0  0
 27 28  1  0  0  0
 27 29  1  0  0  0
 29 30  1  0  0  0
 30 31  2  0  0  0
 31 32  1  0  0  0
 32 33  2  0  0  0
 33 34  1  0  0  0
 34 35  2  0  0  0
  7  8  1  0  0  0
  8  9  1  0  0  0
  9 10  2  0  0  0
 10 11  1  0  0  0
 11 12  2  0  0  0
 12 13  1  0  0  0
 13 15  1  0  0  0
 15 16  2  0  0  0
 15 17  1  0  0  0
 13 14  2  0  0  0
  8  1  1  0  0  0
 14  9  1  0  0  0
 35 30  1  0  0  0
M  CHG 1  15   1
M  CHG 1  17  -1
M  END
> <minimizedAffinity>
0.45972

> <CNNscore>
0.6853969097

> <CNNaffinity>
7.6112680435

> <CNN_VS>
5.2167396545

> <CNNaffinity_variance>
0.4626299441

$$$$
[H]c1c([H])c([H])c(C([H])([H])N(C([H])([H])[H])C([H])([H])C([H])([H])OC(=O)C2=C(C([H])([H])[H])N=C(C([H])([H])[H])C([H])(C(=O)OC([H])([H])[H])C2([H])c2c([H])c([H])c([H])c([N+](=O)[O-])c2[H])c([H])c1[H]


 35 37  0  0  0  0  0  0  0  0999 V2000
   14.9713   24.1555   -3.0880 C   0  0  0  0  0  0  0  0  0  0  0  0
   15.1357   22.8372   -3.7091 C   0  0  0  0  0  0  0  0  0  0  0  0
   16.0211   22.7803   -4.9433 C   0  0  0  0  0  0  0  0  0  0  0  0
   14.6159   21.7627   -3.3139 N   0  0  0  0  0  0  0  0  0  0  0  0
   13.7835   21.7313   -2.1709 C   0  0  0  0  0  0  0  0  0  0  0  0
   13.1889   20.4014   -1.7891 C   0  0  0  0  0  0  0  0  0  0  0  0
   13.5506   22.8429   -1.5051 C   0  0  0  0  0  0  0  0  0  0  0  0
   14.1600   24.1587   -1.8783 C   0  0  0  0  0  0  0  0  0  0  0  0
   14.8927   24.6719   -0.6813 C   0  0  0  0  0  0  0  0  0  0  0  0
   16.1554   24.2662   -0.3478 C   0  0  0  0  0  0  0  0  0  0  0  0
   16.8125   24.7760    0.7536 C   0  0  0  0  0  0  0  0  0  0  0  0
   16.1782   25.7261    1.5469 C   0  0  0  0  0  0  0  0  0  0  0  0
   14.8989   26.1430    1.2167 C   0  0  0  0  0  0  0  0  0  0  0  0
   14.2736   25.6088    0.1053 C   0  0  0  0  0  0  0  0  0  0  0  0
   14.2722   27.1134    2.0404 N   0  0  0  0  0  0  0  0  0  0  0  0
   14.8785   27.5140    3.0463 O   0  0  0  0  0  0  0  0  0  0  0  0
   13.0334   27.6253    1.7762 O   0  0  0  0  0  0  0  0  0  0  0  0
   14.4018   25.0456   -4.1710 C   0  0  0  0  0  0  0  0  0  0  0  0
   13.3720   25.6999   -4.0105 O   0  0  0  0  0  0  0  0  0  0  0  0
   15.1840   26.3368   -6.0811 C   0  0  0  0  0  0  0  0  0  0  0  0
   15.0813   25.1069   -5.3701 O   0  0  0  0  0  0  0  0  0  0  0  0
   12.6932   22.8156   -0.3308 C   0  0  0  0  0  0  0  0  0  0  0  0
   11.4711   23.1940   -0.4908 O   0  0  0  0  0  0  0  0  0  0  0  0
   13.0044   22.4349    0.9536 O   0  0  0  0  0  0  0  0  0  0  0  0
   11.9875   21.7675    1.7209 C   0  0  0  0  0  0  0  0  0  0  0  0
   10.8055   22.6145    1.9723 C   0  0  0  0  0  0  0  0  0  0  0  0
   10.2142   22.6212    3.2483 N   0  0  0  0  0  0  0  0  0  0  0  0
   10.5289   21.6492    4.1956 C   0  0  0  0  0  0  0  0  0  0  0  0
    8.8046   22.8685    3.1190 C   0  0  0  0  0  0  0  0  0  0  0  0
    8.3822   24.2240    3.5214 C   0  0  0  0  0  0  0  0  0  0  0  0
    7.1019   24.5465    3.9328 C   0  0  0  0  0  0  0  0  0  0  0  0
    6.7476   25.8265    4.3010 C   0  0  0  0  0  0  0  0  0  0  0  0
    7.7039   26.8224    4.2580 C   0  0  0  0  0  0  0  0  0  0  0  0
    8.9850   26.5206    3.8507 C   0  0  0  0  0  0  0  0  0  0  0  0
    9.3106   25.2453    3.4910 C   0  0  0  0  0  0  0  0  0  0  0  0
 20 21  1  0  0  0
 21 18  1  0  0  0
 18 19  2  0  0  0
 18  1  1  0  0  0
  1  2  1  0  0  0
  2  3  1  0  0  0
  2  4  2  0  0  0
  4  5  1  0  0  0
  5  6  1  0  0  0
  5  7  2  0  0  0
  7 22  1  0  0  0
 22 23  2  0  0  0
 22 24  1  0  0  0
 24 25  1  0  0  0
 25 26  1  0  0  0
 26 27  1  0  0  0
 27 28  1  0  0  0
 27 29  1  0  0  0
 29 30  1  0  0  0
 30 31  2  0  0  0
 31 32  1  0  0  0
 32 33  2  0  0  0
 33 34  1  0  0  0
 34 35  2  0  0  0
  7  8  1  0  0  0
  8  9  1  0  0  0
  9 10  2  0  0  0
 10 11  1  0  0  0
 11 12  2  0  0  0
 12 13  1  0  0  0
 13 15  1  0  0  0
 15 16  2  0  0  0
 15 17  1  0  0  0
 13 14  2  0  0  0
  8  1  1  0  0  0
 14  9  1  0  0  0
 35 30  1  0  0  0
M  CHG 1  15   1
M  CHG 1  17  -1
M  END
> <minimizedAffinity>
0.60517

> <CNNscore>
0.6547064185

> <CNNaffinity>
7.2932882309

> <CNN_VS>
4.7749624252

> <CNNaffinity_variance>
0.6704746485

$$$$
[H]c1c([H])c([H])c(C([H])([H])N(C([H])([H])[H])C([H])([H])C([H])([H])OC(=O)C2=C(C([H])([H])[H])N=C(C([H])([H])[H])C([H])(C(=O)OC([H])([H])[H])C2([H])c2c([H])c([H])c([H])c([N+](=O)[O-])c2[H])c([H])c1[H]


 35 37  0  0  0  0  0  0  0  0999 V2000
   15.6957   26.4133   -3.8686 C   0  0  0  0  0  0  0  0  0  0  0  0
   15.0138   27.1404   -4.9443 C   0  0  0  0  0  0  0  0  0  0  0  0
   15.8924   27.6462   -6.0770 C   0  0  0  0  0  0  0  0  0  0  0  0
   13.7810   27.3778   -5.0115 N   0  0  0  0  0  0  0  0  0  0  0  0
   12.8962   26.9370   -4.0000 C   0  0  0  0  0  0  0  0  0  0  0  0
   11.4405   27.2892   -4.1577 C   0  0  0  0  0  0  0  0  0  0  0  0
   13.3675   26.2631   -2.9720 C   0  0  0  0  0  0  0  0  0  0  0  0
   14.8130   25.8992   -2.8302 C   0  0  0  0  0  0  0  0  0  0  0  0
   14.8913   24.4150   -2.6749 C   0  0  0  0  0  0  0  0  0  0  0  0
   15.2150   23.5726   -3.7023 C   0  0  0  0  0  0  0  0  0  0  0  0
   15.2990   22.2071   -3.5201 C   0  0  0  0  0  0  0  0  0  0  0  0
   15.0489   21.6703   -2.2616 C   0  0  0  0  0  0  0  0  0  0  0  0
   14.7202   22.5163   -1.2148 C   0  0  0  0  0  0  0  0  0  0  0  0
   14.6460   23.8788   -1.4372 C   0  0  0  0  0  0  0  0  0  0  0  0
   14.4699   21.9460    0.0600 N   0  0  0  0  0  0  0  0  0  0  0  0
   13.7192   22.5521    0.8405 O   0  0  0  0  0  0  0  0  0  0  0  0
   15.0174   20.7620    0.4658 O   0  0  0  0  0  0  0  0  0  0  0  0
   16.7334   27.3715   -3.3261 C   0  0  0  0  0  0  0  0  0  0  0  0
   16.4397   28.4907   -2.9071 O   0  0  0  0  0  0  0  0  0  0  0  0
   19.1036   27.8663   -3.5806 C   0  0  0  0  0  0  0  0  0  0  0  0
   18.0469   26.9498   -3.3124 O   0  0  0  0  0  0  0  0  0  0  0  0
   12.4617   25.8102   -1.9283 C   0  0  0  0  0  0  0  0  0  0  0  0
   11.5935   24.9152   -2.2560 O   0  0  0  0  0  0  0  0  0  0  0  0
   12.3970   26.2066   -0.6129 O   0  0  0  0  0  0  0  0  0  0  0  0
   12.3305   25.1823    0.3943 C   0  0  0  0  0  0  0  0  0  0  0  0
   11.0370   25.1543    1.1041 C   0  0  0  0  0  0  0  0  0  0  0  0
   10.4040   23.9222    1.3467 N   0  0  0  0  0  0  0  0  0  0  0  0
    9.5030   23.3804    0.4325 C   0  0  0  0  0  0  0  0  0  0  0  0
    9.9424   23.8833    2.7070 C   0  0  0  0  0  0  0  0  0  0  0  0
    9.0721   25.0118    3.0899 C   0  0  0  0  0  0  0  0  0  0  0  0
    7.7913   25.2020    2.6045 C   0  0  0  0  0  0  0  0  0  0  0  0
    7.0099   26.2706    2.9880 C   0  0  0  0  0  0  0  0  0  0  0  0
    7.5231   27.1837    3.8885 C   0  0  0  0  0  0  0  0  0  0  0  0
    8.7973   27.0112    4.3833 C   0  0  0  0  0  0  0  0  0  0  0  0
    9.5510   25.9448    3.9877 C   0  0  0  0  0  0  0  0  0  0  0  0
 20 21  1  0  0  0
 21 18  1  0  0  0
 18 19  2  0  0  0
 18  1  1  0  0  0
  1  2  1  0  0  0
  2  3  1  0  0  0
  2  4  2  0  0  0
  4  5  1  0  0  0
  5  6  1  0  0  0
  5  7  2  0  0  0
  7 22  1  0  0  0
 22 23  2  0  0  0
 22 24  1  0  0  0
 24 25  1  0  0  0
 25 26  1  0  0  0
 26 27  1  0  0  0
 27 28  1  0  0  0
 27 29  1  0  0  0
 29 30  1  0  0  0
 30 31  2  0  0  0
 31 32  1  0  0  0
 32 33  2  0  0  0
 33 34  1  0  0  0
 34 35  2  0  0  0
  7  8  1  0  0  0
  8  9  1  0  0  0
  9 10  2  0  0  0
 10 11  1  0  0  0
 11 12  2  0  0  0
 12 13  1  0  0  0
 13 15  1  0  0  0
 15 16  2  0  0  0
 15 17  1  0  0  0
 13 14  2  0  0  0
  8  1  1  0  0  0
 14  9  1  0  0  0
 35 30  1  0  0  0
M  CHG 1  15   1
M  CHG 1  17  -1
M  END
> <minimizedAffinity>
-3.04103

> <CNNscore>
0.6094806194

> <CNNaffinity>
7.1030073166

> <CNN_VS>
4.3291454315

> <CNNaffinity_variance>
0.2488849908

$$$$
[H]c1c([H])c([H])c(C([H])([H])N(C([H])([H])[H])C([H])([H])C([H])([H])OC(=O)C2=C(C([H])([H])[H])N=C(C([H])([H])[H])C([H])(C(=O)OC([H])([H])[H])C2([H])c2c([H])c([H])c([H])c([N+](=O)[O-])c2[H])c([H])c1[H]


 35 37  0  0  0  0  0  0  0  0999 V2000
   15.6229   25.1137   -2.5410 C   0  0  0  0  0  0  0  0  0  0  0  0
   14.7120   25.1410   -3.6900 C   0  0  0  0  0  0  0  0  0  0  0  0
   15.3597   25.0813   -5.0640 C   0  0  0  0  0  0  0  0  0  0  0  0
   13.4575   25.2071   -3.6388 N   0  0  0  0  0  0  0  0  0  0  0  0
   12.7792   25.2612   -2.3990 C   0  0  0  0  0  0  0  0  0  0  0  0
   11.2771   25.3618   -2.4404 C   0  0  0  0  0  0  0  0  0  0  0  0
   13.4695   25.2379   -1.2783 C   0  0  0  0  0  0  0  0  0  0  0  0
   14.9617   25.1185   -1.2432 C   0  0  0  0  0  0  0  0  0  0  0  0
   15.2990   23.9261   -0.4080 C   0  0  0  0  0  0  0  0  0  0  0  0
   16.3381   23.9067    0.4809 C   0  0  0  0  0  0  0  0  0  0  0  0
   16.6101   22.7953    1.2528 C   0  0  0  0  0  0  0  0  0  0  0  0
   15.8098   21.6648    1.1266 C   0  0  0  0  0  0  0  0  0  0  0  0
   14.7548   21.6755    0.2285 C   0  0  0  0  0  0  0  0  0  0  0  0
   14.5145   22.8081   -0.5270 C   0  0  0  0  0  0  0  0  0  0  0  0
   13.9520   20.5110    0.1174 N   0  0  0  0  0  0  0  0  0  0  0  0
   13.5028   20.0026    1.1565 O   0  0  0  0  0  0  0  0  0  0  0  0
   13.6522   19.9256   -1.0800 O   0  0  0  0  0  0  0  0  0  0  0  0
   16.5453   26.2986   -2.7267 C   0  0  0  0  0  0  0  0  0  0  0  0
   17.6657   26.3456   -2.2197 O   0  0  0  0  0  0  0  0  0  0  0  0
   16.9930   28.1085   -4.2924 C   0  0  0  0  0  0  0  0  0  0  0  0
   16.0889   27.3489   -3.4961 O   0  0  0  0  0  0  0  0  0  0  0  0
   12.7762   25.2960   -0.0012 C   0  0  0  0  0  0  0  0  0  0  0  0
   13.3084   26.0245    0.9199 O   0  0  0  0  0  0  0  0  0  0  0  0
   11.6086   24.6733    0.3735 O   0  0  0  0  0  0  0  0  0  0  0  0
   11.7084   23.5037    1.2044 C   0  0  0  0  0  0  0  0  0  0  0  0
   10.4406   22.7545    1.3004 C   0  0  0  0  0  0  0  0  0  0  0  0
    9.7159   22.7666    2.5055 N   0  0  0  0  0  0  0  0  0  0  0  0
    9.6223   21.6284    3.3037 C   0  0  0  0  0  0  0  0  0  0  0  0
    8.4602   23.4342    2.2998 C   0  0  0  0  0  0  0  0  0  0  0  0
    8.2540   24.6239    3.1483 C   0  0  0  0  0  0  0  0  0  0  0  0
    9.1671   25.6550    3.2722 C   0  0  0  0  0  0  0  0  0  0  0  0
    8.9359   26.7502    4.0763 C   0  0  0  0  0  0  0  0  0  0  0  0
    7.7513   26.8212    4.7833 C   0  0  0  0  0  0  0  0  0  0  0  0
    6.8292   25.8036    4.6728 C   0  0  0  0  0  0  0  0  0  0  0  0
    7.0819   24.7296    3.8699 C   0  0  0  0  0  0  0  0  0  0  0  0
 20 21  1  0  0  0
 21 18  1  0  0  0
 18 19  2  0  0  0
 18  1  1  0  0  0
  1  2  1  0  0  0
  2  3  1  0  0  0
  2  4  2  0  0  0
  4  5  1  0  0  0
  5  6  1  0  0  0
  5  7  2  0  0  0
  7 22  1  0  0  0
 22 23  2  0  0  0
 22 24  1  0  0  0
 24 25  1  0  0  0
 25 26  1  0  0  0
 26 27  1  0  0  0
 27 28  1  0  0  0
 27 29  1  0  0  0
 29 30  1  0  0  0
 30 31  2  0  0  0
 31 32  1  0  0  0
 32 33  2  0  0  0
 33 34  1  0  0  0
 34 35  2  0  0  0
  7  8  1  0  0  0
  8  9  1  0  0  0
  9 10  2  0  0  0
 10 11  1  0  0  0
 11 12  2  0  0  0
 12 13  1  0  0  0
 13 15  1  0  0  0
 15 16  2  0  0  0
 15 17  1  0  0  0
 13 14  2  0  0  0
  8  1  1  0  0  0
 14  9  1  0  0  0
 35 30  1  0  0  0
M  CHG 1  15   1
M  CHG 1  17  -1
M  END
> <minimizedAffinity>
-4.95204

> <CNNscore>
0.5554123521

> <CNNaffinity>
7.1821265221

> <CNN_VS>
3.9890418053

> <CNNaffinity_variance>
0.2705515027

$$$$
[H]c1c([H])c([H])c(C([H])([H])N(C([H])([H])[H])C([H])([H])C([H])([H])OC(=O)C2=C(C([H])([H])[H])N=C(C([H])([H])[H])C([H])(C(=O)OC([H])([H])[H])C2([H])c2c([H])c([H])c([H])c([N+](=O)[O-])c2[H])c([H])c1[H]


 35 37  0  0  0  0  0  0  0  0999 V2000
   15.6212   24.8775   -2.4682 C   0  0  0  0  0  0  0  0  0  0  0  0
   14.8928   25.1919   -3.7017 C   0  0  0  0  0  0  0  0  0  0  0  0
   15.7078   25.1856   -4.9849 C   0  0  0  0  0  0  0  0  0  0  0  0
   13.6679   25.4614   -3.7898 N   0  0  0  0  0  0  0  0  0  0  0  0
   12.8407   25.4831   -2.6430 C   0  0  0  0  0  0  0  0  0  0  0  0
   11.3915   25.8387   -2.8466 C   0  0  0  0  0  0  0  0  0  0  0  0
   13.3577   25.2130   -1.4628 C   0  0  0  0  0  0  0  0  0  0  0  0
   14.7951   24.8413   -1.2691 C   0  0  0  0  0  0  0  0  0  0  0  0
   14.8292   23.5197   -0.5725 C   0  0  0  0  0  0  0  0  0  0  0  0
   15.6975   23.2337    0.4446 C   0  0  0  0  0  0  0  0  0  0  0  0
   15.6888   22.0092    1.0813 C   0  0  0  0  0  0  0  0  0  0  0  0
   14.7757   21.0391    0.6818 C   0  0  0  0  0  0  0  0  0  0  0  0
   13.8922   21.3201   -0.3478 C   0  0  0  0  0  0  0  0  0  0  0  0
   13.9320   22.5586   -0.9610 C   0  0  0  0  0  0  0  0  0  0  0  0
   12.9696   20.3153   -0.7378 N   0  0  0  0  0  0  0  0  0  0  0  0
   11.9801   20.1110   -0.0173 O   0  0  0  0  0  0  0  0  0  0  0  0
   13.1219   19.5640   -1.8686 O   0  0  0  0  0  0  0  0  0  0  0  0
   16.7291   25.9041   -2.3789 C   0  0  0  0  0  0  0  0  0  0  0  0
   17.7973   25.6714   -1.8139 O   0  0  0  0  0  0  0  0  0  0  0  0
   17.5922   27.8930   -3.4867 C   0  0  0  0  0  0  0  0  0  0  0  0
   16.5071   27.1356   -2.9599 O   0  0  0  0  0  0  0  0  0  0  0  0
   12.5112   25.2367   -0.2805 C   0  0  0  0  0  0  0  0  0  0  0  0
   12.9278   25.9315    0.7225 O   0  0  0  0  0  0  0  0  0  0  0  0
   11.3034   24.6123   -0.0738 O   0  0  0  0  0  0  0  0  0  0  0  0
   11.1752   23.7638    1.0803 C   0  0  0  0  0  0  0  0  0  0  0  0
   10.0448   24.1409    1.9508 C   0  0  0  0  0  0  0  0  0  0  0  0
    8.8828   23.3490    1.9628 N   0  0  0  0  0  0  0  0  0  0  0  0
    7.9560   23.4417    2.9990 C   0  0  0  0  0  0  0  0  0  0  0  0
    9.2228   21.9983    1.6094 C   0  0  0  0  0  0  0  0  0  0  0  0
    8.3499   21.3966    0.5829 C   0  0  0  0  0  0  0  0  0  0  0  0
    8.8016   20.5751   -0.4337 C   0  0  0  0  0  0  0  0  0  0  0  0
    7.9523   20.0324   -1.3738 C   0  0  0  0  0  0  0  0  0  0  0  0
    6.6030   20.3184   -1.2986 C   0  0  0  0  0  0  0  0  0  0  0  0
    6.1339   21.1348   -0.2929 C   0  0  0  0  0  0  0  0  0  0  0  0
    6.9954   21.6600    0.6258 C   0  0  0  0  0  0  0  0  0  0  0  0
 20 21  1  0  0  0
 21 18  1  0  0  0
 18 19  2  0  0  0
 18  1  1  0  0  0
  1  2  1  0  0  0
  2  3  1  0  0  0
  2  4  2  0  0  0
  4  5  1  0  0  0
  5  6  1  0  0  0
  5  7  2  0  0  0
  7 22  1  0  0  0
 22 23  2  0  0  0
 22 24  1  0  0  0
 24 25  1  0  0  0
 25 26  1  0  0  0
 26 27  1  0  0  0
 27 28  1  0  0  0
 27 29  1  0  0  0
 29 30  1  0  0  0
 30 31  2  0  0  0
 31 32  1  0  0  0
 32 33  2  0  0  0
 33 34  1  0  0  0
 34 35  2  0  0  0
  7  8  1  0  0  0
  8  9  1  0  0  0
  9 10  2  0  0  0
 10 11  1  0  0  0
 11 12  2  0  0  0
 12 13  1  0  0  0
 13 15  1  0  0  0
 15 16  2  0  0  0
 15 17  1  0  0  0
 13 14  2  0  0  0
  8  1  1  0  0  0
 14  9  1  0  0  0
 35 30  1  0  0  0
M  CHG 1  15   1
M  CHG 1  17  -1
M  END
> <minimizedAffinity>
-4.85017

> <CNNscore>
0.5473250151

> <CNNaffinity>
7.3255524635

> <CNN_VS>
4.0094580650

> <CNNaffinity_variance>
0.3337940574

$$$$
[H]c1c([H])c([H])c(C([H])([H])N(C([H])([H])[H])C([H])([H])C([H])([H])OC(=O)C2=C(C([H])([H])[H])N=C(C([H])([H])[H])C([H])(C(=O)OC([H])([H])[H])C2([H])c2c([H])c([H])c([H])c([N+](=O)[O-])c2[H])c([H])c1[H]


 35 37  0  0  0  0  0  0  0  0999 V2000
   14.7885   24.1956   -2.8161 C   0  0  0  0  0  0  0  0  0  0  0  0
   14.7988   22.8235   -3.3338 C   0  0  0  0  0  0  0  0  0  0  0  0
   15.6886   22.5654   -4.5390 C   0  0  0  0  0  0  0  0  0  0  0  0
   14.1452   21.8534   -2.8728 N   0  0  0  0  0  0  0  0  0  0  0  0
   13.2985   22.0107   -1.7509 C   0  0  0  0  0  0  0  0  0  0  0  0
   12.5395   20.7959   -1.2861 C   0  0  0  0  0  0  0  0  0  0  0  0
   13.1942   23.1899   -1.1749 C   0  0  0  0  0  0  0  0  0  0  0  0
   13.9661   24.3896   -1.6298 C   0  0  0  0  0  0  0  0  0  0  0  0
   14.7386   24.9000   -0.4568 C   0  0  0  0  0  0  0  0  0  0  0  0
   14.2266   25.7931    0.4434 C   0  0  0  0  0  0  0  0  0  0  0  0
   14.9600   26.2287    1.5283 C   0  0  0  0  0  0  0  0  0  0  0  0
   16.2525   25.7499    1.7145 C   0  0  0  0  0  0  0  0  0  0  0  0
   16.7795   24.8448    0.8075 C   0  0  0  0  0  0  0  0  0  0  0  0
   16.0134   24.4324   -0.2669 C   0  0  0  0  0  0  0  0  0  0  0  0
   18.0997   24.3700    1.0183 N   0  0  0  0  0  0  0  0  0  0  0  0
   18.6341   23.6957    0.1240 O   0  0  0  0  0  0  0  0  0  0  0  0
   18.8074   24.6212    2.1595 O   0  0  0  0  0  0  0  0  0  0  0  0
   14.3488   25.0629   -3.9753 C   0  0  0  0  0  0  0  0  0  0  0  0
   13.3103   25.7226   -3.9461 O   0  0  0  0  0  0  0  0  0  0  0  0
   15.2271   26.2665   -5.9008 C   0  0  0  0  0  0  0  0  0  0  0  0
   15.1593   25.0966   -5.0912 O   0  0  0  0  0  0  0  0  0  0  0  0
   12.3228   23.3567   -0.0227 C   0  0  0  0  0  0  0  0  0  0  0  0
   11.4657   24.3186   -0.0727 O   0  0  0  0  0  0  0  0  0  0  0  0
   12.2792   22.6195    1.1376 O   0  0  0  0  0  0  0  0  0  0  0  0
   11.0607   22.6408    1.9010 C   0  0  0  0  0  0  0  0  0  0  0  0
   10.0516   21.6857    1.4037 C   0  0  0  0  0  0  0  0  0  0  0  0
    8.8652   22.1679    0.8227 N   0  0  0  0  0  0  0  0  0  0  0  0
    8.5467   23.5240    0.8500 C   0  0  0  0  0  0  0  0  0  0  0  0
    7.7725   21.3092    1.1878 C   0  0  0  0  0  0  0  0  0  0  0  0
    7.2898   20.4374    0.0994 C   0  0  0  0  0  0  0  0  0  0  0  0
    6.2307   19.5569    0.2237 C   0  0  0  0  0  0  0  0  0  0  0  0
    5.8105   18.7592   -0.8187 C   0  0  0  0  0  0  0  0  0  0  0  0
    6.4695   18.8414   -2.0300 C   0  0  0  0  0  0  0  0  0  0  0  0
    7.5270   19.7127   -2.1732 C   0  0  0  0  0  0  0  0  0  0  0  0
    7.9239   20.4918   -1.1257 C   0  0  0  0  0  0  0  0  0  0  0  0
 20 21  1  0  0  0
 21 18  1  0  0  0
 18 19  2  0  0  0
 18  1  1  0  0  0
  1  2  1  0  0  0
  2  3  1  0  0  0
  2  4  2  0  0  0
  4  5  1  0  0  0
  5  6  1  0  0  0
  5  7  2  0  0  0
  7 22  1  0  0  0
 22 23  2  0  0  0
 22 24  1  0  0  0
 24 25  1  0  0  0
 25 26  1  0  0  0
 26 27  1  0  0  0
 27 28  1  0  0  0
 27 29  1  0  0  0
 29 30  1  0  0  0
 30 31  2  0  0  0
 31 32  1  0  0  0
 32 33  2  0  0  0
 33 34  1  0  0  0
 34 35  2  0  0  0
  7  8  1  0  0  0
  8  9  1  0  0  0
  9 10  2  0  0  0
 10 11  1  0  0  0
 11 12  2  0  0  0
 12 13  1  0  0  0
 13 15  1  0  0  0
 15 16  2  0  0  0
 15 17  1  0  0  0
 13 14  2  0  0  0
  8  1  1  0  0  0
 14  9  1  0  0  0
 35 30  1  0  0  0
M  CHG 1  15   1
M  CHG 1  17  -1
M  END
> <minimizedAffinity>
-0.00115

> <CNNscore>
0.5428386331

> <CNNaffinity>
7.1810126305

> <CNN_VS>
3.8981311321

> <CNNaffinity_variance>
0.3380734921

$$$$
[H]c1c([H])c([H])c(C([H])([H])N(C([H])([H])[H])C([H])([H])C([H])([H])OC(=O)C2=C(C([H])([H])[H])N=C(C([H])([H])[H])C([H])(C(=O)OC([H])([H])[H])C2([H])c2c([H])c([H])c([H])c([N+](=O)[O-])c2[H])c([H])c1[H]


 35 37  0  0  0  0  0  0  0  0999 V2000
   14.7515   25.7092   -3.6205 C   0  0  0  0  0  0  0  0  0  0  0  0
   15.5758   25.0185   -4.6177 C   0  0  0  0  0  0  0  0  0  0  0  0
   16.4132   25.9025   -5.5277 C   0  0  0  0  0  0  0  0  0  0  0  0
   15.6507   23.7744   -4.7827 N   0  0  0  0  0  0  0  0  0  0  0  0
   14.9066   22.8844   -3.9738 C   0  0  0  0  0  0  0  0  0  0  0  0
   15.0453   21.4128   -4.2624 C   0  0  0  0  0  0  0  0  0  0  0  0
   14.1251   23.3631   -3.0287 C   0  0  0  0  0  0  0  0  0  0  0  0
   14.0060   24.8263   -2.7338 C   0  0  0  0  0  0  0  0  0  0  0  0
   14.3407   25.0241   -1.2910 C   0  0  0  0  0  0  0  0  0  0  0  0
   13.6580   25.8854   -0.4772 C   0  0  0  0  0  0  0  0  0  0  0  0
   13.9796   26.0292    0.8573 C   0  0  0  0  0  0  0  0  0  0  0  0
   15.0234   25.2814    1.3917 C   0  0  0  0  0  0  0  0  0  0  0  0
   15.7207   24.4064    0.5747 C   0  0  0  0  0  0  0  0  0  0  0  0
   15.3685   24.2904   -0.7572 C   0  0  0  0  0  0  0  0  0  0  0  0
   16.7812   23.6539    1.1421 N   0  0  0  0  0  0  0  0  0  0  0  0
   17.9321   24.1133    1.0760 O   0  0  0  0  0  0  0  0  0  0  0  0
   16.5923   22.4484    1.7566 O   0  0  0  0  0  0  0  0  0  0  0  0
   13.8511   26.6344   -4.4095 C   0  0  0  0  0  0  0  0  0  0  0  0
   12.6630   26.7918   -4.1302 O   0  0  0  0  0  0  0  0  0  0  0  0
   15.3358   28.3702   -5.2524 C   0  0  0  0  0  0  0  0  0  0  0  0
   14.4078   27.3128   -5.4741 O   0  0  0  0  0  0  0  0  0  0  0  0
   13.3562   22.4517   -2.1963 C   0  0  0  0  0  0  0  0  0  0  0  0
   12.1201   22.7529   -1.9874 O   0  0  0  0  0  0  0  0  0  0  0  0
   13.7660   21.2885   -1.5873 O   0  0  0  0  0  0  0  0  0  0  0  0
   14.1789   21.3606   -0.2116 C   0  0  0  0  0  0  0  0  0  0  0  0
   13.0515   21.5606    0.7193 C   0  0  0  0  0  0  0  0  0  0  0  0
   12.0672   20.5639    0.8429 N   0  0  0  0  0  0  0  0  0  0  0  0
   10.7295   20.8302    0.5584 C   0  0  0  0  0  0  0  0  0  0  0  0
   12.2660   19.8478    2.0728 C   0  0  0  0  0  0  0  0  0  0  0  0
   11.4390   20.3242    3.1983 C   0  0  0  0  0  0  0  0  0  0  0  0
   11.0188   21.6327    3.3517 C   0  0  0  0  0  0  0  0  0  0  0  0
   10.2462   22.0374    4.4189 C   0  0  0  0  0  0  0  0  0  0  0  0
    9.8783   21.1042    5.3686 C   0  0  0  0  0  0  0  0  0  0  0  0
   10.2873   19.7956    5.2331 C   0  0  0  0  0  0  0  0  0  0  0  0
   11.0520   19.4201    4.1673 C   0  0  0  0  0  0  0  0  0  0  0  0
 20 21  1  0  0  0
 21 18  1  0  0  0
 18 19  2  0  0  0
 18  1  1  0  0  0
  1  2  1  0  0  0
  2  3  1  0  0  0
  2  4  2  0  0  0
  4  5  1  0  0  0
  5  6  1  0  0  0
  5  7  2  0  0  0
  7 22  1  0  0  0
 22 23  2  0  0  0
 22 24  1  0  0  0
 24 25  1  0  0  0
 25 26  1  0  0  0
 26 27  1  0  0  0
 27 28  1  0  0  0
 27 29  1  0  0  0
 29 30  1  0  0  0
 30 31  2  0  0  0
 31 32  1  0  0  0
 32 33  2  0  0  0
 33 34  1  0  0  0
 34 35  2  0  0  0
  7  8  1  0  0  0
  8  9  1  0  0  0
  9 10  2  0  0  0
 10 11  1  0  0  0
 11 12  2  0  0  0
 12 13  1  0  0  0
 13 15  1  0  0  0
 15 16  2  0  0  0
 15 17  1  0  0  0
 13 14  2  0  0  0
  8  1  1  0  0  0
 14  9  1  0  0  0
 35 30  1  0  0  0
M  CHG 1  15   1
M  CHG 1  17  -1
M  END
> <minimizedAffinity>
-1.65850

> <CNNscore>
0.5351636410

> <CNNaffinity>
7.4977846146

> <CNN_VS>
4.0125417709

> <CNNaffinity_variance>
0.3364318311

$$$$
[H]c1c([H])c([H])c(C([H])([H])N(C([H])([H])[H])C([H])([H])C([H])([H])OC(=O)C2=C(C([H])([H])[H])N=C(C([H])([H])[H])C([H])(C(=O)OC([H])([H])[H])C2([H])c2c([H])c([H])c([H])c([N+](=O)[O-])c2[H])c([H])c1[H]


 35 37  0  0  0  0  0  0  0  0999 V2000
   14.7387   25.7156   -3.6032 C   0  0  0  0  0  0  0  0  0  0  0  0
   15.6098   25.0872   -4.6017 C   0  0  0  0  0  0  0  0  0  0  0  0
   16.4495   26.0285   -5.4501 C   0  0  0  0  0  0  0  0  0  0  0  0
   15.7227   23.8531   -4.8138 N   0  0  0  0  0  0  0  0  0  0  0  0
   14.9794   22.9123   -4.0638 C   0  0  0  0  0  0  0  0  0  0  0  0
   15.1656   21.4576   -4.4065 C   0  0  0  0  0  0  0  0  0  0  0  0
   14.1581   23.3321   -3.1245 C   0  0  0  0  0  0  0  0  0  0  0  0
   13.9915   24.7786   -2.7753 C   0  0  0  0  0  0  0  0  0  0  0  0
   14.2786   24.9262   -1.3162 C   0  0  0  0  0  0  0  0  0  0  0  0
   13.5330   25.7150   -0.4844 C   0  0  0  0  0  0  0  0  0  0  0  0
   13.8124   25.8130    0.8636 C   0  0  0  0  0  0  0  0  0  0  0  0
   14.8782   25.0932    1.3933 C   0  0  0  0  0  0  0  0  0  0  0  0
   15.6391   24.2914    0.5580 C   0  0  0  0  0  0  0  0  0  0  0  0
   15.3276   24.2196   -0.7871 C   0  0  0  0  0  0  0  0  0  0  0  0
   16.7208   23.5662    1.1209 N   0  0  0  0  0  0  0  0  0  0  0  0
   17.8452   24.0911    1.1237 O   0  0  0  0  0  0  0  0  0  0  0  0
   16.5800   22.3182    1.6586 O   0  0  0  0  0  0  0  0  0  0  0  0
   13.8373   26.6488   -4.3816 C   0  0  0  0  0  0  0  0  0  0  0  0
   12.6447   26.7882   -4.1116 O   0  0  0  0  0  0  0  0  0  0  0  0
   15.2946   28.4327   -5.1699 C   0  0  0  0  0  0  0  0  0  0  0  0
   14.3982   27.3557   -5.4251 O   0  0  0  0  0  0  0  0  0  0  0  0
   13.3899   22.3683   -2.3526 C   0  0  0  0  0  0  0  0  0  0  0  0
   12.2047   22.7225   -1.9890 O   0  0  0  0  0  0  0  0  0  0  0  0
   13.7527   21.1053   -1.9467 O   0  0  0  0  0  0  0  0  0  0  0  0
   14.0203   20.9007   -0.5486 C   0  0  0  0  0  0  0  0  0  0  0  0
   12.7949   20.7110    0.2515 C   0  0  0  0  0  0  0  0  0  0  0  0
   12.6733   21.3500    1.4984 N   0  0  0  0  0  0  0  0  0  0  0  0
   12.0313   20.7301    2.5683 C   0  0  0  0  0  0  0  0  0  0  0  0
   12.2752   22.7159    1.2970 C   0  0  0  0  0  0  0  0  0  0  0  0
   10.8154   22.9313    1.2806 C   0  0  0  0  0  0  0  0  0  0  0  0
    9.9241   22.1454    0.5733 C   0  0  0  0  0  0  0  0  0  0  0  0
    8.5660   22.3804    0.5844 C   0  0  0  0  0  0  0  0  0  0  0  0
    8.0775   23.4372    1.3277 C   0  0  0  0  0  0  0  0  0  0  0  0
    8.9499   24.2315    2.0391 C   0  0  0  0  0  0  0  0  0  0  0  0
   10.2903   23.9782    2.0115 C   0  0  0  0  0  0  0  0  0  0  0  0
 20 21  1  0  0  0
 21 18  1  0  0  0
 18 19  2  0  0  0
 18  1  1  0  0  0
  1  2  1  0  0  0
  2  3  1  0  0  0
  2  4  2  0  0  0
  4  5  1  0  0  0
  5  6  1  0  0  0
  5  7  2  0  0  0
  7 22  1  0  0  0
 22 23  2  0  0  0
 22 24  1  0  0  0
 24 25  1  0  0  0
 25 26  1  0  0  0
 26 27  1  0  0  0
 27 28  1  0  0  0
 27 29  1  0  0  0
 29 30  1  0  0  0
 30 31  2  0  0  0
 31 32  1  0  0  0
 32 33  2  0  0  0
 33 34  1  0  0  0
 34 35  2  0  0  0
  7  8  1  0  0  0
  8  9  1  0  0  0
  9 10  2  0  0  0
 10 11  1  0  0  0
 11 12  2  0  0  0
 12 13  1  0  0  0
 13 15  1  0  0  0
 15 16  2  0  0  0
 15 17  1  0  0  0
 13 14  2  0  0  0
  8  1  1  0  0  0
 14  9  1  0  0  0
 35 30  1  0  0  0
M  CHG 1  15   1
M  CHG 1  17  -1
M  END
> <minimizedAffinity>
-2.61555

> <CNNscore>
0.5278459191

> <CNNaffinity>
7.5285630226

> <CNN_VS>
3.9739212990

> <CNNaffinity_variance>
0.1946771890

$$$$
[H]c1c([H])c([H])c(C([H])([H])N(C([H])([H])[H])C([H])([H])C([H])([H])OC(=O)C2=C(C([H])([H])[H])N=C(C([H])([H])[H])C([H])(C(=O)OC([H])([H])[H])C2([H])c2c([H])c([H])c([H])c([N+](=O)[O-])c2[H])c([H])c1[H]


 35 37  0  0  0  0  0  0  0  0999 V2000
   14.7239   24.5900   -2.8727 C   0  0  0  0  0  0  0  0  0  0  0  0
   14.9962   23.3640   -3.6299 C   0  0  0  0  0  0  0  0  0  0  0  0
   15.7943   23.5286   -4.9132 C   0  0  0  0  0  0  0  0  0  0  0  0
   14.6331   22.2025   -3.3137 N   0  0  0  0  0  0  0  0  0  0  0  0
   13.8915   21.9654   -2.1330 C   0  0  0  0  0  0  0  0  0  0  0  0
   13.4829   20.5436   -1.8510 C   0  0  0  0  0  0  0  0  0  0  0  0
   13.5783   22.9747   -1.3479 C   0  0  0  0  0  0  0  0  0  0  0  0
   14.0038   24.3835   -1.6235 C   0  0  0  0  0  0  0  0  0  0  0  0
   14.7536   24.8706   -0.4262 C   0  0  0  0  0  0  0  0  0  0  0  0
   14.2067   25.7050    0.5091 C   0  0  0  0  0  0  0  0  0  0  0  0
   14.9204   26.1198    1.6152 C   0  0  0  0  0  0  0  0  0  0  0  0
   16.2288   25.6805    1.7867 C   0  0  0  0  0  0  0  0  0  0  0  0
   16.7912   24.8349    0.8442 C   0  0  0  0  0  0  0  0  0  0  0  0
   16.0439   24.4417   -0.2506 C   0  0  0  0  0  0  0  0  0  0  0  0
   18.1271   24.3996    1.0405 N   0  0  0  0  0  0  0  0  0  0  0  0
   18.6820   23.7676    0.1279 O   0  0  0  0  0  0  0  0  0  0  0  0
   18.8284   24.6442    2.1871 O   0  0  0  0  0  0  0  0  0  0  0  0
   13.9813   25.4994   -3.8271 C   0  0  0  0  0  0  0  0  0  0  0  0
   12.8224   25.8602   -3.6242 O   0  0  0  0  0  0  0  0  0  0  0  0
   15.5330   27.0404   -4.8972 C   0  0  0  0  0  0  0  0  0  0  0  0
   14.6509   25.9237   -4.9563 O   0  0  0  0  0  0  0  0  0  0  0  0
   12.8136   22.7357   -0.1342 C   0  0  0  0  0  0  0  0  0  0  0  0
   11.5421   22.9409   -0.1948 O   0  0  0  0  0  0  0  0  0  0  0  0
   13.2606   22.3120    1.0955 O   0  0  0  0  0  0  0  0  0  0  0  0
   12.8743   20.9979    1.5338 C   0  0  0  0  0  0  0  0  0  0  0  0
   11.4329   20.8893    1.8308 C   0  0  0  0  0  0  0  0  0  0  0  0
   10.9238   21.4475    3.0169 N   0  0  0  0  0  0  0  0  0  0  0  0
   11.3078   20.9640    4.2659 C   0  0  0  0  0  0  0  0  0  0  0  0
    9.5064   21.6417    2.8821 C   0  0  0  0  0  0  0  0  0  0  0  0
    9.0587   23.0343    3.0772 C   0  0  0  0  0  0  0  0  0  0  0  0
    9.8407   24.1438    2.8131 C   0  0  0  0  0  0  0  0  0  0  0  0
    9.3843   25.4295    3.0090 C   0  0  0  0  0  0  0  0  0  0  0  0
    8.1014   25.6171    3.4856 C   0  0  0  0  0  0  0  0  0  0  0  0
    7.3071   24.5240    3.7545 C   0  0  0  0  0  0  0  0  0  0  0  0
    7.7825   23.2611    3.5523 C   0  0  0  0  0  0  0  0  0  0  0  0
 20 21  1  0  0  0
 21 18  1  0  0  0
 18 19  2  0  0  0
 18  1  1  0  0  0
  1  2  1  0  0  0
  2  3  1  0  0  0
  2  4  2  0  0  0
  4  5  1  0  0  0
  5  6  1  0  0  0
  5  7  2  0  0  0
  7 22  1  0  0  0
 22 23  2  0  0  0
 22 24  1  0  0  0
 24 25  1  0  0  0
 25 26  1  0  0  0
 26 27  1  0  0  0
 27 28  1  0  0  0
 27 29  1  0  0  0
 29 30  1  0  0  0
 30 31  2  0  0  0
 31 32  1  0  0  0
 32 33  2  0  0  0
 33 34  1  0  0  0
 34 35  2  0  0  0
  7  8  1  0  0  0
  8  9  1  0  0  0
  9 10  2  0  0  0
 10 11  1  0  0  0
 11 12  2  0  0  0
 12 13  1  0  0  0
 13 15  1  0  0  0
 15 16  2  0  0  0
 15 17  1  0  0  0
 13 14  2  0  0  0
  8  1  1  0  0  0
 14  9  1  0  0  0
 35 30  1  0  0  0
M  CHG 1  15   1
M  CHG 1  17  -1
M  END
> <minimizedAffinity>
-0.60442

> <CNNscore>
0.5167106986

> <CNNaffinity>
7.2552146912

> <CNN_VS>
3.7488470078

> <CNNaffinity_variance>
0.2771540582

$$$$
[H]/C(=C(\[H])C([H])([H])C([H])([H])C([H])([H])C([H])([H])C([H])([H])C([H])([H])C([H])([H])C([H])([H])[H])C([H])([H])C([H])([H])C([H])([H])C([H])([H])C([H])([H])C([H])([H])C([H])([H])C(=O)c1nc2c([H])c([H])c([H])nc2o1


 28 29  0  0  0  0  0  0  0  0999 V2000
   10.2507   24.5168    1.4015 C   0  0  0  0  0  0  0  0  0  0  0  0
    9.7343   24.3017    2.7421 C   0  0  0  0  0  0  0  0  0  0  0  0
    9.0652   23.0832    3.1926 C   0  0  0  0  0  0  0  0  0  0  0  0
    9.7022   22.2785    4.2800 C   0  0  0  0  0  0  0  0  0  0  0  0
   10.2708   21.0000    3.7122 C   0  0  0  0  0  0  0  0  0  0  0  0
    9.9525   19.9179    4.2466 O   0  0  0  0  0  0  0  0  0  0  0  0
   11.1583   21.0236    2.5835 C   0  0  0  0  0  0  0  0  0  0  0  0
   10.8782   20.5440    1.3460 N   0  0  0  0  0  0  0  0  0  0  0  0
   11.9371   20.7306    0.5363 C   0  0  0  0  0  0  0  0  0  0  0  0
   12.2425   20.4663   -0.7703 C   0  0  0  0  0  0  0  0  0  0  0  0
   13.4723   20.8143   -1.2682 C   0  0  0  0  0  0  0  0  0  0  0  0
   14.3838   21.4298   -0.4312 C   0  0  0  0  0  0  0  0  0  0  0  0
   14.0922   21.6981    0.8703 N   0  0  0  0  0  0  0  0  0  0  0  0
   12.8857   21.3531    1.3464 C   0  0  0  0  0  0  0  0  0  0  0  0
   12.3771   21.5056    2.5521 O   0  0  0  0  0  0  0  0  0  0  0  0
    9.8798   23.6637    0.2591 C   0  0  0  0  0  0  0  0  0  0  0  0
   10.6725   23.8851   -0.9828 C   0  0  0  0  0  0  0  0  0  0  0  0
   12.0295   24.5361   -0.7598 C   0  0  0  0  0  0  0  0  0  0  0  0
   13.2507   25.4749   -2.6458 C   0  0  0  0  0  0  0  0  0  0  0  0
   12.2500   25.5450   -1.8030 C   0  0  0  0  0  0  0  0  0  0  0  0
   14.2404   24.4213   -2.6560 C   0  0  0  0  0  0  0  0  0  0  0  0
   15.4931   24.7695   -1.8546 C   0  0  0  0  0  0  0  0  0  0  0  0
   16.5735   25.3078   -2.7175 C   0  0  0  0  0  0  0  0  0  0  0  0
   16.6098   26.8327   -2.8166 C   0  0  0  0  0  0  0  0  0  0  0  0
   16.8465   27.2988   -4.2022 C   0  0  0  0  0  0  0  0  0  0  0  0
   15.7073   27.7288   -5.0353 C   0  0  0  0  0  0  0  0  0  0  0  0
   15.5843   26.1554   -6.9534 C   0  0  0  0  0  0  0  0  0  0  0  0
   14.8990   26.7217   -5.7563 C   0  0  0  0  0  0  0  0  0  0  0  0
 27 28  1  0  0  0
 28 26  1  0  0  0
 26 25  1  0  0  0
 25 24  1  0  0  0
 24 23  1  0  0  0
 23 22  1  0  0  0
 22 21  1  0  0  0
 21 19  1  0  0  0
 19 20  2  0  0  0
 20 18  1  0  0  0
 18 17  1  0  0  0
 17 16  1  0  0  0
 16  1  1  0  0  0
  1  2  1  0  0  0
  2  3  1  0  0  0
  3  4  1  0  0  0
  4  5  1  0  0  0
  5  6  2  0  0  0
  5  7  1  0  0  0
  7  8  2  0  0  0
  8  9  1  0  0  0
  9 10  2  0  0  0
 10 11  1  0  0  0
 11 12  2  0  0  0
 12 13  1  0  0  0
 13 14  2  0  0  0
 14 15  1  0  0  0
 15  7  1  0  0  0
 14  9  1  0  0  0
M  END
> <minimizedAffinity>
-7.64208

> <CNNscore>
0.4536887407

> <CNNaffinity>
7.1471686363

> <CNN_VS>
3.2425899506

> <CNNaffinity_variance>
0.1818490773

$$$$
[H]/C(=C(\[H])C([H])([H])C([H])([H])C([H])([H])C([H])([H])C([H])([H])C([H])([H])C([H])([H])C([H])([H])[H])C([H])([H])C([H])([H])C([H])([H])C([H])([H])C([H])([H])C([H])([H])C([H])([H])C(=O)c1nc2c([H])c([H])c([H])nc2o1


 28 29  0  0  0  0  0  0  0  0999 V2000
    9.7853   24.5313    2.1467 C   0  0  0  0  0  0  0  0  0  0  0  0
    8.4555   24.1411    1.7111 C   0  0  0  0  0  0  0  0  0  0  0  0
    7.9606   22.7668    1.6716 C   0  0  0  0  0  0  0  0  0  0  0  0
    7.5922   22.1776    0.3476 C   0  0  0  0  0  0  0  0  0  0  0  0
    8.3455   20.8876    0.1276 C   0  0  0  0  0  0  0  0  0  0  0  0
    7.6930   19.8310    0.0021 O   0  0  0  0  0  0  0  0  0  0  0  0
    9.7801   20.8717    0.0639 C   0  0  0  0  0  0  0  0  0  0  0  0
   10.6190   20.7945    1.1270 N   0  0  0  0  0  0  0  0  0  0  0  0
   11.8953   20.8038    0.6998 C   0  0  0  0  0  0  0  0  0  0  0  0
   13.1331   20.7513    1.2788 C   0  0  0  0  0  0  0  0  0  0  0  0
   14.2569   20.7848    0.4931 C   0  0  0  0  0  0  0  0  0  0  0  0
   14.1123   20.8715   -0.8787 C   0  0  0  0  0  0  0  0  0  0  0  0
   12.8868   20.9244   -1.4670 N   0  0  0  0  0  0  0  0  0  0  0  0
   11.7943   20.8909   -0.6880 C   0  0  0  0  0  0  0  0  0  0  0  0
   10.5193   20.9284   -1.0175 O   0  0  0  0  0  0  0  0  0  0  0  0
   11.0024   24.1944    1.3880 C   0  0  0  0  0  0  0  0  0  0  0  0
   10.8965   24.3599   -0.0888 C   0  0  0  0  0  0  0  0  0  0  0  0
   12.2283   24.5335   -0.8034 C   0  0  0  0  0  0  0  0  0  0  0  0
   14.5082   24.8244    0.0010 C   0  0  0  0  0  0  0  0  0  0  0  0
   13.2230   25.0253    0.1576 C   0  0  0  0  0  0  0  0  0  0  0  0
   15.0961   24.1109   -1.1104 C   0  0  0  0  0  0  0  0  0  0  0  0
   15.9580   25.0007   -2.0038 C   0  0  0  0  0  0  0  0  0  0  0  0
   15.5145   24.9635   -3.4193 C   0  0  0  0  0  0  0  0  0  0  0  0
   14.1102   25.5161   -3.6618 C   0  0  0  0  0  0  0  0  0  0  0  0
   14.0943   26.5689   -4.7031 C   0  0  0  0  0  0  0  0  0  0  0  0
   15.3528   27.2330   -5.0930 C   0  0  0  0  0  0  0  0  0  0  0  0
   15.5212   25.8379   -7.1412 C   0  0  0  0  0  0  0  0  0  0  0  0
   15.8334   27.1419   -6.4888 C   0  0  0  0  0  0  0  0  0  0  0  0
 27 28  1  0  0  0
 28 26  1  0  0  0
 26 25  1  0  0  0
 25 24  1  0  0  0
 24 23  1  0  0  0
 23 22  1  0  0  0
 22 21  1  0  0  0
 21 19  1  0  0  0
 19 20  2  0  0  0
 20 18  1  0  0  0
 18 17  1  0  0  0
 17 16  1  0  0  0
 16  1  1  0  0  0
  1  2  1  0  0  0
  2  3  1  0  0  0
  3  4  1  0  0  0
  4  5  1  0  0  0
  5  6  2  0  0  0
  5  7  1  0  0  0
  7  8  2  0  0  0
  8  9  1  0  0  0
  9 10  2  0  0  0
 10 11  1  0  0  0
 11 12  2  0  0  0
 12 13  1  0  0  0
 13 14  2  0  0  0
 14 15  1  0  0  0
 15  7  1  0  0  0
 14  9  1  0  0  0
M  END
> <minimizedAffinity>
-7.10473

> <CNNscore>
0.4193799794

> <CNNaffinity>
6.9879875183

> <CNN_VS>
2.9306221008

> <CNNaffinity_variance>
0.4193705618

$$$$
[H]/C(=C(\[H])C([H])([H])C([H])([H])C([H])([H])C([H])([H])C([H])([H])C([H])([H])C([H])([H])C([H])([H])[H])C([H])([H])C([H])([H])C([H])([H])C([H])([H])C([H])([H])C([H])([H])C([H])([H])C(=O)c1nc2c([H])c([H])c([H])nc2o1


 28 29  0  0  0  0  0  0  0  0999 V2000
   11.2070   20.7837    3.6683 C   0  0  0  0  0  0  0  0  0  0  0  0
   10.1964   21.5432    4.3838 C   0  0  0  0  0  0  0  0  0  0  0  0
    8.7652   21.2488    4.3683 C   0  0  0  0  0  0  0  0  0  0  0  0
    8.0062   21.4588    3.0973 C   0  0  0  0  0  0  0  0  0  0  0  0
    8.0295   22.9197    2.7160 C   0  0  0  0  0  0  0  0  0  0  0  0
    7.1705   23.6780    3.2108 O   0  0  0  0  0  0  0  0  0  0  0  0
    9.0155   23.4296    1.8049 C   0  0  0  0  0  0  0  0  0  0  0  0
    9.0501   23.2034    0.4679 N   0  0  0  0  0  0  0  0  0  0  0  0
   10.1102   23.8331   -0.0719 C   0  0  0  0  0  0  0  0  0  0  0  0
   10.6489   23.9707   -1.3213 C   0  0  0  0  0  0  0  0  0  0  0  0
   11.7841   24.7203   -1.4972 C   0  0  0  0  0  0  0  0  0  0  0  0
   12.3637   25.3255   -0.3980 C   0  0  0  0  0  0  0  0  0  0  0  0
   11.8377   25.1964    0.8500 N   0  0  0  0  0  0  0  0  0  0  0  0
   10.7266   24.4605    1.0099 C   0  0  0  0  0  0  0  0  0  0  0  0
   10.0403   24.1917    2.1017 O   0  0  0  0  0  0  0  0  0  0  0  0
   11.3691   20.8545    2.2057 C   0  0  0  0  0  0  0  0  0  0  0  0
   12.7781   20.8464    1.7217 C   0  0  0  0  0  0  0  0  0  0  0  0
   12.9893   21.5259    0.3769 C   0  0  0  0  0  0  0  0  0  0  0  0
   14.7096   21.3443   -1.3368 C   0  0  0  0  0  0  0  0  0  0  0  0
   14.0189   20.7928   -0.3698 C   0  0  0  0  0  0  0  0  0  0  0  0
   14.5505   22.7109   -1.7807 C   0  0  0  0  0  0  0  0  0  0  0  0
   14.8696   22.8996   -3.2624 C   0  0  0  0  0  0  0  0  0  0  0  0
   15.7051   24.1021   -3.5025 C   0  0  0  0  0  0  0  0  0  0  0  0
   15.2723   25.3445   -2.7244 C   0  0  0  0  0  0  0  0  0  0  0  0
   14.4723   26.2747   -3.5538 C   0  0  0  0  0  0  0  0  0  0  0  0
   14.4893   26.1456   -5.0234 C   0  0  0  0  0  0  0  0  0  0  0  0
   15.7172   26.3330   -7.1744 C   0  0  0  0  0  0  0  0  0  0  0  0
   15.4761   26.9071   -5.8196 C   0  0  0  0  0  0  0  0  0  0  0  0
 27 28  1  0  0  0
 28 26  1  0  0  0
 26 25  1  0  0  0
 25 24  1  0  0  0
 24 23  1  0  0  0
 23 22  1  0  0  0
 22 21  1  0  0  0
 21 19  1  0  0  0
 19 20  2  0  0  0
 20 18  1  0  0  0
 18 17  1  0  0  0
 17 16  1  0  0  0
 16  1  1  0  0  0
  1  2  1  0  0  0
  2  3  1  0  0  0
  3  4  1  0  0  0
  4  5  1  0  0  0
  5  6  2  0  0  0
  5  7  1  0  0  0
  7  8  2  0  0  0
  8  9  1  0  0  0
  9 10  2  0  0  0
 10 11  1  0  0  0
 11 12  2  0  0  0
 12 13  1  0  0  0
 13 14  2  0  0  0
 14 15  1  0  0  0
 15  7  1  0  0  0
 14  9  1  0  0  0
M  END
> <minimizedAffinity>
-6.59112

> <CNNscore>
0.3670785725

> <CNNaffinity>
6.8645448685

> <CNN_VS>
2.5198273659

> <CNNaffinity_variance>
0.3186631501

$$$$
[H]/C(=C(\[H])C([H])([H])C([H])([H])C([H])([H])C([H])([H])C([H])([H])C([H])([H])C([H])([H])C([H])([H])[H])C([H])([H])C([H])([H])C([H])([H])C([H])([H])C([H])([H])C([H])([H])C([H])([H])C(=O)c1nc2c([H])c([H])c([H])nc2o1


 28 29  0  0  0  0  0  0  0  0999 V2000
   11.0497   24.7765    1.0241 C   0  0  0  0  0  0  0  0  0  0  0  0
    9.7980   24.0676    0.8217 C   0  0  0  0  0  0  0  0  0  0  0  0
    9.1537   23.2122    1.8160 C   0  0  0  0  0  0  0  0  0  0  0  0
    8.1151   22.2397    1.3565 C   0  0  0  0  0  0  0  0  0  0  0  0
    8.7690   21.0896    0.6286 C   0  0  0  0  0  0  0  0  0  0  0  0
    8.0421   20.1831    0.1728 O   0  0  0  0  0  0  0  0  0  0  0  0
   10.1944   21.0355    0.4623 C   0  0  0  0  0  0  0  0  0  0  0  0
   10.8527   21.0089   -0.7234 N   0  0  0  0  0  0  0  0  0  0  0  0
   12.1799   20.9585   -0.5048 C   0  0  0  0  0  0  0  0  0  0  0  0
   13.3087   20.9144   -1.2754 C   0  0  0  0  0  0  0  0  0  0  0  0
   14.5425   20.8681   -0.6778 C   0  0  0  0  0  0  0  0  0  0  0  0
   14.6183   20.8672    0.7023 C   0  0  0  0  0  0  0  0  0  0  0  0
   13.5030   20.9108    1.4800 N   0  0  0  0  0  0  0  0  0  0  0  0
   12.3011   20.9558    0.8840 C   0  0  0  0  0  0  0  0  0  0  0  0
   11.0958   21.0026    1.4137 O   0  0  0  0  0  0  0  0  0  0  0  0
   12.2019   24.6322    0.1174 C   0  0  0  0  0  0  0  0  0  0  0  0
   11.8729   24.6495   -1.3356 C   0  0  0  0  0  0  0  0  0  0  0  0
   12.9844   25.1779   -2.2300 C   0  0  0  0  0  0  0  0  0  0  0  0
   15.1677   24.0998   -2.2466 C   0  0  0  0  0  0  0  0  0  0  0  0
   14.2801   24.8393   -1.6288 C   0  0  0  0  0  0  0  0  0  0  0  0
   14.9893   23.5373   -3.5664 C   0  0  0  0  0  0  0  0  0  0  0  0
   15.7148   24.3250   -4.6554 C   0  0  0  0  0  0  0  0  0  0  0  0
   14.8844   25.4343   -5.1860 C   0  0  0  0  0  0  0  0  0  0  0  0
   15.4515   26.1157   -6.4312 C   0  0  0  0  0  0  0  0  0  0  0  0
   16.0136   27.4526   -6.1316 C   0  0  0  0  0  0  0  0  0  0  0  0
   16.0043   27.9576   -4.7453 C   0  0  0  0  0  0  0  0  0  0  0  0
   17.1609   27.1425   -2.7038 C   0  0  0  0  0  0  0  0  0  0  0  0
   17.2518   27.9550   -3.9509 C   0  0  0  0  0  0  0  0  0  0  0  0
 27 28  1  0  0  0
 28 26  1  0  0  0
 26 25  1  0  0  0
 25 24  1  0  0  0
 24 23  1  0  0  0
 23 22  1  0  0  0
 22 21  1  0  0  0
 21 19  1  0  0  0
 19 20  2  0  0  0
 20 18  1  0  0  0
 18 17  1  0  0  0
 17 16  1  0  0  0
 16  1  1  0  0  0
  1  2  1  0  0  0
  2  3  1  0  0  0
  3  4  1  0  0  0
  4  5  1  0  0  0
  5  6  2  0  0  0
  5  7  1  0  0  0
  7  8  2  0  0  0
  8  9  1  0  0  0
  9 10  2  0  0  0
 10 11  1  0  0  0
 11 12  2  0  0  0
 12 13  1  0  0  0
 13 14  2  0  0  0
 14 15  1  0  0  0
 15  7  1  0  0  0
 14  9  1  0  0  0
M  END
> <minimizedAffinity>
-7.47927

> <CNNscore>
0.3462925553

> <CNNaffinity>
7.1288428307

> <CNN_VS>
2.4686651230

> <CNNaffinity_variance>
0.2652817369

$$$$
[H]/C(=C(\[H])C([H])([H])C([H])([H])C([H])([H])C([H])([H])C([H])([H])C([H])([H])C([H])([H])C([H])([H])[H])C([H])([H])C([H])([H])C([H])([H])C([H])([H])C([H])([H])C([H])([H])C([H])([H])C(=O)c1nc2c([H])c([H])c([H])nc2o1


 28 29  0  0  0  0  0  0  0  0999 V2000
    9.1766   24.8054    3.1136 C   0  0  0  0  0  0  0  0  0  0  0  0
    8.7293   23.8591    4.1209 C   0  0  0  0  0  0  0  0  0  0  0  0
    9.5224   22.7398    4.6244 C   0  0  0  0  0  0  0  0  0  0  0  0
    9.2698   21.3763    4.0650 C   0  0  0  0  0  0  0  0  0  0  0  0
   10.5777   20.6485    3.8655 C   0  0  0  0  0  0  0  0  0  0  0  0
   10.9743   19.8794    4.7650 O   0  0  0  0  0  0  0  0  0  0  0  0
   11.3513   20.8340    2.6698 C   0  0  0  0  0  0  0  0  0  0  0  0
   11.0230   20.3770    1.4356 N   0  0  0  0  0  0  0  0  0  0  0  0
   11.9744   20.7319    0.5521 C   0  0  0  0  0  0  0  0  0  0  0  0
   12.1922   20.5658   -0.7877 C   0  0  0  0  0  0  0  0  0  0  0  0
   13.3205   21.0888   -1.3664 C   0  0  0  0  0  0  0  0  0  0  0  0
   14.2204   21.7781   -0.5757 C   0  0  0  0  0  0  0  0  0  0  0  0
   14.0154   21.9502    0.7582 N   0  0  0  0  0  0  0  0  0  0  0  0
   12.9077   21.4341    1.3134 C   0  0  0  0  0  0  0  0  0  0  0  0
   12.4939   21.4680    2.5637 O   0  0  0  0  0  0  0  0  0  0  0  0
   10.2266   24.4853    2.1310 C   0  0  0  0  0  0  0  0  0  0  0  0
    9.7550   23.7879    0.9018 C   0  0  0  0  0  0  0  0  0  0  0  0
   10.6431   23.9846   -0.3177 C   0  0  0  0  0  0  0  0  0  0  0  0
   12.5935   25.3630   -0.7923 C   0  0  0  0  0  0  0  0  0  0  0  0
   11.8334   24.7468    0.0788 C   0  0  0  0  0  0  0  0  0  0  0  0
   12.3630   25.3711   -2.2195 C   0  0  0  0  0  0  0  0  0  0  0  0
   13.5421   25.9306   -3.0128 C   0  0  0  0  0  0  0  0  0  0  0  0
   14.4290   24.8560   -3.5229 C   0  0  0  0  0  0  0  0  0  0  0  0
   15.1891   25.2102   -4.8009 C   0  0  0  0  0  0  0  0  0  0  0  0
   14.7982   26.5342   -5.3368 C   0  0  0  0  0  0  0  0  0  0  0  0
   15.7436   27.6642   -5.2597 C   0  0  0  0  0  0  0  0  0  0  0  0
   17.0545   27.8435   -3.1575 C   0  0  0  0  0  0  0  0  0  0  0  0
   17.0573   27.4837   -4.6046 C   0  0  0  0  0  0  0  0  0  0  0  0
 27 28  1  0  0  0
 28 26  1  0  0  0
 26 25  1  0  0  0
 25 24  1  0  0  0
 24 23  1  0  0  0
 23 22  1  0  0  0
 22 21  1  0  0  0
 21 19  1  0  0  0
 19 20  2  0  0  0
 20 18  1  0  0  0
 18 17  1  0  0  0
 17 16  1  0  0  0
 16  1  1  0  0  0
  1  2  1  0  0  0
  2  3  1  0  0  0
  3  4  1  0  0  0
  4  5  1  0  0  0
  5  6  2  0  0  0
  5  7  1  0  0  0
  7  8  2  0  0  0
  8  9  1  0  0  0
  9 10  2  0  0  0
 10 11  1  0  0  0
 11 12  2  0  0  0
 12 13  1  0  0  0
 13 14  2  0  0  0
 14 15  1  0  0  0
 15  7  1  0  0  0
 14  9  1  0  0  0
M  END
> <minimizedAffinity>
-7.29312

> <CNNscore>
0.3286879361

> <CNNaffinity>
6.8510961533

> <CNN_VS>
2.2518725395

> <CNNaffinity_variance>
0.2023660690

$$$$
[H]/C(=C(\[H])C([H])([H])C([H])([H])C([H])([H])C([H])([H])C([H])([H])C([H])([H])C([H])([H])C([H])([H])[H])C([H])([H])C([H])([H])C([H])([H])C([H])([H])C([H])([H])C([H])([H])C([H])([H])C(=O)c1nc2c([H])c([H])c([H])nc2o1


 28 29  0  0  0  0  0  0  0  0999 V2000
   13.6090   26.8380   -3.9567 C   0  0  0  0  0  0  0  0  0  0  0  0
   12.5795   26.0623   -3.2870 C   0  0  0  0  0  0  0  0  0  0  0  0
   12.5694   25.7454   -1.8605 C   0  0  0  0  0  0  0  0  0  0  0  0
   11.6978   24.6283   -1.3828 C   0  0  0  0  0  0  0  0  0  0  0  0
   11.7580   24.5326    0.1230 C   0  0  0  0  0  0  0  0  0  0  0  0
   12.7926   24.9209    0.7034 O   0  0  0  0  0  0  0  0  0  0  0  0
   10.6528   24.0071    0.8745 C   0  0  0  0  0  0  0  0  0  0  0  0
    9.7297   23.1264    0.4140 N   0  0  0  0  0  0  0  0  0  0  0  0
    8.8392   22.8525    1.3854 C   0  0  0  0  0  0  0  0  0  0  0  0
    7.7260   22.0689    1.5152 C   0  0  0  0  0  0  0  0  0  0  0  0
    7.0450   22.0412    2.7056 C   0  0  0  0  0  0  0  0  0  0  0  0
    7.5030   22.8126    3.7570 C   0  0  0  0  0  0  0  0  0  0  0  0
    8.6090   23.5962    3.6407 N   0  0  0  0  0  0  0  0  0  0  0  0
    9.2672   23.6152    2.4711 C   0  0  0  0  0  0  0  0  0  0  0  0
   10.3469   24.2831    2.1192 O   0  0  0  0  0  0  0  0  0  0  0  0
   14.8311   26.2291   -4.5101 C   0  0  0  0  0  0  0  0  0  0  0  0
   15.9888   26.1657   -3.5746 C   0  0  0  0  0  0  0  0  0  0  0  0
   16.0777   24.8814   -2.7637 C   0  0  0  0  0  0  0  0  0  0  0  0
   14.9016   22.7716   -3.0719 C   0  0  0  0  0  0  0  0  0  0  0  0
   15.5836   23.7673   -3.5819 C   0  0  0  0  0  0  0  0  0  0  0  0
   14.5571   22.6462   -1.6735 C   0  0  0  0  0  0  0  0  0  0  0  0
   14.3248   21.1997   -1.2420 C   0  0  0  0  0  0  0  0  0  0  0  0
   13.0094   21.0216   -0.5789 C   0  0  0  0  0  0  0  0  0  0  0  0
   13.0483   21.1057    0.9468 C   0  0  0  0  0  0  0  0  0  0  0  0
   11.8254   20.5500    1.5701 C   0  0  0  0  0  0  0  0  0  0  0  0
   11.8475   20.1371    2.9864 C   0  0  0  0  0  0  0  0  0  0  0  0
   10.4423   19.9754    5.0282 C   0  0  0  0  0  0  0  0  0  0  0  0
   11.0236   20.8609    3.9788 C   0  0  0  0  0  0  0  0  0  0  0  0
 27 28  1  0  0  0
 28 26  1  0  0  0
 26 25  1  0  0  0
 25 24  1  0  0  0
 24 23  1  0  0  0
 23 22  1  0  0  0
 22 21  1  0  0  0
 21 19  1  0  0  0
 19 20  2  0  0  0
 20 18  1  0  0  0
 18 17  1  0  0  0
 17 16  1  0  0  0
 16  1  1  0  0  0
  1  2  1  0  0  0
  2  3  1  0  0  0
  3  4  1  0  0  0
  4  5  1  0  0  0
  5  6  2  0  0  0
  5  7  1  0  0  0
  7  8  2  0  0  0
  8  9  1  0  0  0
  9 10  2  0  0  0
 10 11  1  0  0  0
 11 12  2  0  0  0
 12 13  1  0  0  0
 13 14  2  0  0  0
 14 15  1  0  0  0
 15  7  1  0  0  0
 14  9  1  0  0  0
M  END
> <minimizedAffinity>
-6.46132

> <CNNscore>
0.3163517714

> <CNNaffinity>
6.6888937950

> <CNN_VS>
2.1160433292

> <CNNaffinity_variance>
0.3746127784

$$$$
[H]/C(=C(\[H])C([H])([H])C([H])([H])C([H])([H])C([H])([H])C([H])([H])C([H])([H])C([H])([H])C([H])([H])[H])C([H])([H])C([H])([H])C([H])([H])C([H])([H])C([H])([H])C([H])([H])C([H])([H])C(=O)c1nc2c([H])c([H])c([H])nc2o1


 28 29  0  0  0  0  0  0  0  0999 V2000
   13.5683   26.7863   -3.8900 C   0  0  0  0  0  0  0  0  0  0  0  0
   12.5662   25.9811   -3.2136 C   0  0  0  0  0  0  0  0  0  0  0  0
   12.5566   25.6916   -1.7813 C   0  0  0  0  0  0  0  0  0  0  0  0
   11.5300   24.7427   -1.2509 C   0  0  0  0  0  0  0  0  0  0  0  0
   11.7706   24.4880    0.2179 C   0  0  0  0  0  0  0  0  0  0  0  0
   12.8542   24.8558    0.7163 O   0  0  0  0  0  0  0  0  0  0  0  0
   10.7785   23.8372    1.0269 C   0  0  0  0  0  0  0  0  0  0  0  0
   11.0176   22.8704    1.9478 N   0  0  0  0  0  0  0  0  0  0  0  0
    9.8589   22.4883    2.5164 C   0  0  0  0  0  0  0  0  0  0  0  0
    9.4749   21.5888    3.4721 C   0  0  0  0  0  0  0  0  0  0  0  0
    8.1497   21.4707    3.8060 C   0  0  0  0  0  0  0  0  0  0  0  0
    7.2235   22.2705    3.1635 C   0  0  0  0  0  0  0  0  0  0  0  0
    7.5927   23.1691    2.2111 N   0  0  0  0  0  0  0  0  0  0  0  0
    8.8922   23.2759    1.8927 C   0  0  0  0  0  0  0  0  0  0  0  0
    9.4865   24.0603    1.0169 O   0  0  0  0  0  0  0  0  0  0  0  0
   14.8115   26.2156   -4.4372 C   0  0  0  0  0  0  0  0  0  0  0  0
   15.9634   26.1799   -3.4930 C   0  0  0  0  0  0  0  0  0  0  0  0
   16.1131   24.8743   -2.7263 C   0  0  0  0  0  0  0  0  0  0  0  0
   14.8617   22.8129   -3.0641 C   0  0  0  0  0  0  0  0  0  0  0  0
   15.6033   23.7751   -3.5549 C   0  0  0  0  0  0  0  0  0  0  0  0
   14.4607   22.7135   -1.6788 C   0  0  0  0  0  0  0  0  0  0  0  0
   14.4018   21.2728   -1.1750 C   0  0  0  0  0  0  0  0  0  0  0  0
   13.1902   21.0189   -0.3570 C   0  0  0  0  0  0  0  0  0  0  0  0
   11.8810   21.0014   -1.1456 C   0  0  0  0  0  0  0  0  0  0  0  0
   10.7918   20.3206   -0.4085 C   0  0  0  0  0  0  0  0  0  0  0  0
    9.3865   20.6725   -0.6878 C   0  0  0  0  0  0  0  0  0  0  0  0
    7.3865   19.9692   -1.9820 C   0  0  0  0  0  0  0  0  0  0  0  0
    8.3961   19.6050   -0.9469 C   0  0  0  0  0  0  0  0  0  0  0  0
 27 28  1  0  0  0
 28 26  1  0  0  0
 26 25  1  0  0  0
 25 24  1  0  0  0
 24 23  1  0  0  0
 23 22  1  0  0  0
 22 21  1  0  0  0
 21 19  1  0  0  0
 19 20  2  0  0  0
 20 18  1  0  0  0
 18 17  1  0  0  0
 17 16  1  0  0  0
 16  1  1  0  0  0
  1  2  1  0  0  0
  2  3  1  0  0  0
  3  4  1  0  0  0
  4  5  1  0  0  0
  5  6  2  0  0  0
  5  7  1  0  0  0
  7  8  2  0  0  0
  8  9  1  0  0  0
  9 10  2  0  0  0
 10 11  1  0  0  0
 11 12  2  0  0  0
 12 13  1  0  0  0
 13 14  2  0  0  0
 14 15  1  0  0  0
 15  7  1  0  0  0
 14  9  1  0  0  0
M  END
> <minimizedAffinity>
-6.53363

> <CNNscore>
0.2870759964

> <CNNaffinity>
6.8612418175

> <CNN_VS>
1.9696978331

> <CNNaffinity_variance>
0.1346367449

$$$$
[H]/C(=C(\[H])C([H])([H])C([H])([H])C([H])([H])C([H])([H])C([H])([H])C([H])([H])C([H])([H])C([H])([H])[H])C([H])([H])C([H])([H])C([H])([H])C([H])([H])C([H])([H])C([H])([H])C([H])([H])C(=O)c1nc2c([H])c([H])c([H])nc2o1


 28 29  0  0  0  0  0  0  0  0999 V2000
   13.6477   26.3884   -4.3288 C   0  0  0  0  0  0  0  0  0  0  0  0
   14.8835   27.1491   -4.3941 C   0  0  0  0  0  0  0  0  0  0  0  0
   16.2030   26.6285   -4.0431 C   0  0  0  0  0  0  0  0  0  0  0  0
   16.3146   25.6824   -2.8906 C   0  0  0  0  0  0  0  0  0  0  0  0
   15.8077   24.3174   -3.2907 C   0  0  0  0  0  0  0  0  0  0  0  0
   15.9856   23.9372   -4.4661 O   0  0  0  0  0  0  0  0  0  0  0  0
   15.1351   23.4726   -2.3439 C   0  0  0  0  0  0  0  0  0  0  0  0
   14.3712   22.3939   -2.6483 N   0  0  0  0  0  0  0  0  0  0  0  0
   13.8971   21.8395   -1.5171 C   0  0  0  0  0  0  0  0  0  0  0  0
   13.1030   20.7739   -1.1946 C   0  0  0  0  0  0  0  0  0  0  0  0
   12.8236   20.5035    0.1208 C   0  0  0  0  0  0  0  0  0  0  0  0
   13.3555   21.3211    1.1000 C   0  0  0  0  0  0  0  0  0  0  0  0
   14.1468   22.3841    0.7924 N   0  0  0  0  0  0  0  0  0  0  0  0
   14.4134   22.6389   -0.4982 C   0  0  0  0  0  0  0  0  0  0  0  0
   15.1415   23.5947   -1.0385 O   0  0  0  0  0  0  0  0  0  0  0  0
   12.6304   26.6101   -3.2865 C   0  0  0  0  0  0  0  0  0  0  0  0
   12.8721   25.8967   -2.0011 C   0  0  0  0  0  0  0  0  0  0  0  0
   11.7060   25.0459   -1.5204 C   0  0  0  0  0  0  0  0  0  0  0  0
   10.9086   24.2246    0.6288 C   0  0  0  0  0  0  0  0  0  0  0  0
   11.7958   24.8961   -0.0628 C   0  0  0  0  0  0  0  0  0  0  0  0
    9.7570   23.5616    0.0592 C   0  0  0  0  0  0  0  0  0  0  0  0
    9.6052   22.1166    0.5298 C   0  0  0  0  0  0  0  0  0  0  0  0
    8.3902   21.9269    1.3602 C   0  0  0  0  0  0  0  0  0  0  0  0
    8.6621   21.7262    2.8509 C   0  0  0  0  0  0  0  0  0  0  0  0
    8.2140   22.8809    3.6627 C   0  0  0  0  0  0  0  0  0  0  0  0
    9.1987   23.8771    4.1260 C   0  0  0  0  0  0  0  0  0  0  0  0
    7.8623   25.6938    3.0853 C   0  0  0  0  0  0  0  0  0  0  0  0
    9.2063   25.2349    3.5396 C   0  0  0  0  0  0  0  0  0  0  0  0
 27 28  1  0  0  0
 28 26  1  0  0  0
 26 25  1  0  0  0
 25 24  1  0  0  0
 24 23  1  0  0  0
 23 22  1  0  0  0
 22 21  1  0  0  0
 21 19  1  0  0  0
 19 20  2  0  0  0
 20 18  1  0  0  0
 18 17  1  0  0  0
 17 16  1  0  0  0
 16  1  1  0  0  0
  1  2  1  0  0  0
  2  3  1  0  0  0
  3  4  1  0  0  0
  4  5  1  0  0  0
  5  6  2  0  0  0
  5  7  1  0  0  0
  7  8  2  0  0  0
  8  9  1  0  0  0
  9 10  2  0  0  0
 10 11  1  0  0  0
 11 12  2  0  0  0
 12 13  1  0  0  0
 13 14  2  0  0  0
 14 15  1  0  0  0
 15  7  1  0  0  0
 14  9  1  0  0  0
M  END
> <minimizedAffinity>
-6.63077

> <CNNscore>
0.2848437726

> <CNNaffinity>
7.1346893311

> <CNN_VS>
2.0322718620

> <CNNaffinity_variance>
0.1755461246

$$$$
[H]/C(=C(\[H])C([H])([H])C([H])([H])C([H])([H])C([H])([H])C([H])([H])C([H])([H])C([H])([H])C([H])([H])[H])C([H])([H])C([H])([H])C([H])([H])C([H])([H])C([H])([H])C([H])([H])C([H])([H])C(=O)c1nc2c([H])c([H])c([H])nc2o1


 28 29  0  0  0  0  0  0  0  0999 V2000
   11.9725   21.4306   -1.3099 C   0  0  0  0  0  0  0  0  0  0  0  0
   10.9912   21.1297   -0.2819 C   0  0  0  0  0  0  0  0  0  0  0  0
   11.3106   20.6533    1.0621 C   0  0  0  0  0  0  0  0  0  0  0  0
   11.0426   21.5568    2.2230 C   0  0  0  0  0  0  0  0  0  0  0  0
    9.5579   21.7948    2.3615 C   0  0  0  0  0  0  0  0  0  0  0  0
    8.7784   20.8509    2.1184 O   0  0  0  0  0  0  0  0  0  0  0  0
    9.0497   23.0765    2.7632 C   0  0  0  0  0  0  0  0  0  0  0  0
    9.7980   24.1734    3.0406 N   0  0  0  0  0  0  0  0  0  0  0  0
    8.9938   25.1966    3.3842 C   0  0  0  0  0  0  0  0  0  0  0  0
    9.1577   26.5025    3.7556 C   0  0  0  0  0  0  0  0  0  0  0  0
    8.0605   27.2740    4.0424 C   0  0  0  0  0  0  0  0  0  0  0  0
    6.8023   26.7097    3.9490 C   0  0  0  0  0  0  0  0  0  0  0  0
    6.6258   25.4120    3.5807 N   0  0  0  0  0  0  0  0  0  0  0  0
    7.7069   24.6667    3.3024 C   0  0  0  0  0  0  0  0  0  0  0  0
    7.7917   23.4059    2.9301 O   0  0  0  0  0  0  0  0  0  0  0  0
   13.3145   20.8232   -1.3317 C   0  0  0  0  0  0  0  0  0  0  0  0
   14.4447   21.7723   -1.1273 C   0  0  0  0  0  0  0  0  0  0  0  0
   14.7164   22.1292    0.3265 C   0  0  0  0  0  0  0  0  0  0  0  0
   14.3542   24.5306    0.5050 C   0  0  0  0  0  0  0  0  0  0  0  0
   15.1809   23.5201    0.3958 C   0  0  0  0  0  0  0  0  0  0  0  0
   12.9152   24.4081    0.5699 C   0  0  0  0  0  0  0  0  0  0  0  0
   12.1893   25.3876   -0.3501 C   0  0  0  0  0  0  0  0  0  0  0  0
   12.2626   24.9726   -1.7728 C   0  0  0  0  0  0  0  0  0  0  0  0
   13.0313   25.9345   -2.6784 C   0  0  0  0  0  0  0  0  0  0  0  0
   14.1091   25.2541   -3.4324 C   0  0  0  0  0  0  0  0  0  0  0  0
   15.4940   25.2908   -2.9250 C   0  0  0  0  0  0  0  0  0  0  0  0
   15.9800   27.1951   -4.4439 C   0  0  0  0  0  0  0  0  0  0  0  0
   16.3478   26.4679   -3.1951 C   0  0  0  0  0  0  0  0  0  0  0  0
 27 28  1  0  0  0
 28 26  1  0  0  0
 26 25  1  0  0  0
 25 24  1  0  0  0
 24 23  1  0  0  0
 23 22  1  0  0  0
 22 21  1  0  0  0
 21 19  1  0  0  0
 19 20  2  0  0  0
 20 18  1  0  0  0
 18 17  1  0  0  0
 17 16  1  0  0  0
 16  1  1  0  0  0
  1  2  1  0  0  0
  2  3  1  0  0  0
  3  4  1  0  0  0
  4  5  1  0  0  0
  5  6  2  0  0  0
  5  7  1  0  0  0
  7  8  2  0  0  0
  8  9  1  0  0  0
  9 10  2  0  0  0
 10 11  1  0  0  0
 11 12  2  0  0  0
 12 13  1  0  0  0
 13 14  2  0  0  0
 14 15  1  0  0  0
 15  7  1  0  0  0
 14  9  1  0  0  0
M  END
> <minimizedAffinity>
-6.93305

> <CNNscore>
0.2818081379

> <CNNaffinity>
6.2249703407

> <CNN_VS>
1.7542473078

> <CNNaffinity_variance>
1.0215842724

$$$$
[H]c1c([H])c([H])c(C([H])([H])C([H])([H])C([H])([H])[H])c(OC([H])(C2=NC([H])([H])C([H])([H])N2[H])C([H])([H])[H])c1[H]


 18 19  0  0  0  0  0  0  0  0999 V2000
   15.0313   26.1617   -3.5870 C   0  0  0  0  0  0  0  0  0  0  0  0
   15.2617   27.2623   -4.3821 C   0  0  0  0  0  0  0  0  0  0  0  0
   16.4397   27.9767   -4.3243 C   0  0  0  0  0  0  0  0  0  0  0  0
   17.4400   27.6016   -3.4519 C   0  0  0  0  0  0  0  0  0  0  0  0
   17.2291   26.5028   -2.6479 C   0  0  0  0  0  0  0  0  0  0  0  0
   16.0531   25.7889   -2.7046 C   0  0  0  0  0  0  0  0  0  0  0  0
   13.7919   25.3800   -3.6147 C   0  0  0  0  0  0  0  0  0  0  0  0
   12.0031   25.1614   -1.8939 C   0  0  0  0  0  0  0  0  0  0  0  0
   12.6349   26.0878   -2.9404 C   0  0  0  0  0  0  0  0  0  0  0  0
   15.8103   24.6993   -1.9271 O   0  0  0  0  0  0  0  0  0  0  0  0
   15.4019   24.6464   -0.6082 C   0  0  0  0  0  0  0  0  0  0  0  0
   16.5216   24.6041    0.3834 C   0  0  0  0  0  0  0  0  0  0  0  0
   14.4810   23.4743   -0.3545 C   0  0  0  0  0  0  0  0  0  0  0  0
   13.7804   23.3693    0.7129 N   0  0  0  0  0  0  0  0  0  0  0  0
   13.0015   22.1676    0.6963 C   0  0  0  0  0  0  0  0  0  0  0  0
   13.5265   21.3748   -0.4794 C   0  0  0  0  0  0  0  0  0  0  0  0
   14.2635   22.3724   -1.2115 N   0  0  0  0  0  0  0  0  0  0  0  0
   14.5889   22.2966   -2.2213 H   0  0  0  0  0  0  0  0  0  0  0  0
  8  9  1  0  0  0
  9  7  1  0  0  0
  7  1  1  0  0  0
  1  2  2  0  0  0
  2  3  1  0  0  0
  3  4  2  0  0  0
  4  5  1  0  0  0
  5  6  2  0  0  0
  6 10  1  0  0  0
 10 11  1  0  0  0
 11 12  1  0  0  0
 11 13  1  0  0  0
 13 14  2  0  0  0
 14 15  1  0  0  0
 15 16  1  0  0  0
 16 17  1  0  0  0
  6  1  1  0  0  0
 17 13  1  0  0  0
 17 18  1  0  0  0
M  END
> <minimizedAffinity>
-6.74463

> <CNNscore>
0.5326232314

> <CNNaffinity>
6.2126369476

> <CNN_VS>
3.3089947701

> <CNNaffinity_variance>
0.0658518523

$$$$
[H]c1c([H])c([H])c(C([H])([H])C([H])([H])C([H])([H])[H])c(OC([H])(C2=NC([H])([H])C([H])([H])N2[H])C([H])([H])[H])c1[H]


 18 19  0  0  0  0  0  0  0  0999 V2000
   15.1460   24.6508   -2.4775 C   0  0  0  0  0  0  0  0  0  0  0  0
   16.3164   25.2339   -2.0455 C   0  0  0  0  0  0  0  0  0  0  0  0
   16.7186   25.1850   -0.7275 C   0  0  0  0  0  0  0  0  0  0  0  0
   15.9452   24.5379    0.2135 C   0  0  0  0  0  0  0  0  0  0  0  0
   14.7704   23.9478   -0.1987 C   0  0  0  0  0  0  0  0  0  0  0  0
   14.3677   23.9962   -1.5145 C   0  0  0  0  0  0  0  0  0  0  0  0
   14.6813   24.6854   -3.8671 C   0  0  0  0  0  0  0  0  0  0  0  0
   13.1890   26.6781   -3.7633 C   0  0  0  0  0  0  0  0  0  0  0  0
   14.4660   26.0942   -4.3803 C   0  0  0  0  0  0  0  0  0  0  0  0
   13.2154   23.4248   -1.9575 O   0  0  0  0  0  0  0  0  0  0  0  0
   11.9093   23.7392   -1.6345 C   0  0  0  0  0  0  0  0  0  0  0  0
   11.7624   24.9463   -0.7627 C   0  0  0  0  0  0  0  0  0  0  0  0
   11.1992   22.5755   -0.9803 C   0  0  0  0  0  0  0  0  0  0  0  0
   11.4959   22.1626    0.1956 N   0  0  0  0  0  0  0  0  0  0  0  0
   10.6735   21.0512    0.5691 C   0  0  0  0  0  0  0  0  0  0  0  0
    9.9529   20.6514   -0.6988 C   0  0  0  0  0  0  0  0  0  0  0  0
   10.1540   21.8052   -1.5371 N   0  0  0  0  0  0  0  0  0  0  0  0
    9.6120   22.0400   -2.4217 H   0  0  0  0  0  0  0  0  0  0  0  0
  8  9  1  0  0  0
  9  7  1  0  0  0
  7  1  1  0  0  0
  1  2  2  0  0  0
  2  3  1  0  0  0
  3  4  2  0  0  0
  4  5  1  0  0  0
  5  6  2  0  0  0
  6 10  1  0  0  0
 10 11  1  0  0  0
 11 12  1  0  0  0
 11 13  1  0  0  0
 13 14  2  0  0  0
 14 15  1  0  0  0
 15 16  1  0  0  0
 16 17  1  0  0  0
  6  1  1  0  0  0
 17 13  1  0  0  0
 17 18  1  0  0  0
M  END
> <minimizedAffinity>
-6.76496

> <CNNscore>
0.5292583704

> <CNNaffinity>
5.8899998665

> <CNN_VS>
3.1173317432

> <CNNaffinity_variance>
0.0714269280

$$$$
[H]c1c([H])c([H])c(C([H])([H])C([H])([H])C([H])([H])[H])c(OC([H])(C2=NC([H])([H])C([H])([H])N2[H])C([H])([H])[H])c1[H]


 18 19  0  0  0  0  0  0  0  0999 V2000
   15.0216   25.2338   -3.0897 C   0  0  0  0  0  0  0  0  0  0  0  0
   15.5364   25.8013   -4.2340 C   0  0  0  0  0  0  0  0  0  0  0  0
   14.7949   26.6458   -5.0330 C   0  0  0  0  0  0  0  0  0  0  0  0
   13.4915   26.9521   -4.7019 C   0  0  0  0  0  0  0  0  0  0  0  0
   12.9578   26.3947   -3.5606 C   0  0  0  0  0  0  0  0  0  0  0  0
   13.6973   25.5511   -2.7622 C   0  0  0  0  0  0  0  0  0  0  0  0
   15.7748   24.3280   -2.2178 C   0  0  0  0  0  0  0  0  0  0  0  0
   16.0247   24.6287    0.2431 C   0  0  0  0  0  0  0  0  0  0  0  0
   16.5433   25.0573   -1.1353 C   0  0  0  0  0  0  0  0  0  0  0  0
   13.2042   24.9833   -1.6286 O   0  0  0  0  0  0  0  0  0  0  0  0
   12.2600   23.9831   -1.4974 C   0  0  0  0  0  0  0  0  0  0  0  0
   11.0872   24.3495   -0.6434 C   0  0  0  0  0  0  0  0  0  0  0  0
   12.8693   22.7049   -0.9671 C   0  0  0  0  0  0  0  0  0  0  0  0
   13.0515   22.4978    0.2839 N   0  0  0  0  0  0  0  0  0  0  0  0
   13.6432   21.2129    0.5079 C   0  0  0  0  0  0  0  0  0  0  0  0
   14.0519   20.7236   -0.8632 C   0  0  0  0  0  0  0  0  0  0  0  0
   13.3082   21.6004   -1.7309 N   0  0  0  0  0  0  0  0  0  0  0  0
   13.1200   21.4465   -2.7663 H   0  0  0  0  0  0  0  0  0  0  0  0
  8  9  1  0  0  0
  9  7  1  0  0  0
  7  1  1  0  0  0
  1  2  2  0  0  0
  2  3  1  0  0  0
  3  4  2  0  0  0
  4  5  1  0  0  0
  5  6  2  0  0  0
  6 10  1  0  0  0
 10 11  1  0  0  0
 11 12  1  0  0  0
 11 13  1  0  0  0
 13 14  2  0  0  0
 14 15  1  0  0  0
 15 16  1  0  0  0
 16 17  1  0  0  0
  6  1  1  0  0  0
 17 13  1  0  0  0
 17 18  1  0  0  0
M  END
> <minimizedAffinity>
-6.69092

> <CNNscore>
0.5238909721

> <CNNaffinity>
6.1724410057

> <CNN_VS>
3.2336862087

> <CNNaffinity_variance>
0.1043193191

$$$$
[H]c1c([H])c([H])c(C([H])([H])C([H])([H])C([H])([H])[H])c(OC([H])(C2=NC([H])([H])C([H])([H])N2[H])C([H])([H])[H])c1[H]


 18 19  0  0  0  0  0  0  0  0999 V2000
   15.5168   26.6750   -4.3459 C   0  0  0  0  0  0  0  0  0  0  0  0
   16.3790   27.6778   -4.7298 C   0  0  0  0  0  0  0  0  0  0  0  0
   17.4213   28.0967   -3.9300 C   0  0  0  0  0  0  0  0  0  0  0  0
   17.6338   27.5114   -2.6992 C   0  0  0  0  0  0  0  0  0  0  0  0
   16.7822   26.5060   -2.2969 C   0  0  0  0  0  0  0  0  0  0  0  0
   15.7410   26.0871   -3.0946 C   0  0  0  0  0  0  0  0  0  0  0  0
   14.3951   26.2055   -5.1641 C   0  0  0  0  0  0  0  0  0  0  0  0
   15.5286   25.6758   -7.3189 C   0  0  0  0  0  0  0  0  0  0  0  0
   14.5237   26.6005   -6.6207 C   0  0  0  0  0  0  0  0  0  0  0  0
   14.8813   25.0976   -2.7308 O   0  0  0  0  0  0  0  0  0  0  0  0
   14.4541   24.7387   -1.4667 C   0  0  0  0  0  0  0  0  0  0  0  0
   15.3249   23.7318   -0.7836 C   0  0  0  0  0  0  0  0  0  0  0  0
   13.0325   24.2240   -1.4819 C   0  0  0  0  0  0  0  0  0  0  0  0
   12.0218   24.9911   -1.3049 N   0  0  0  0  0  0  0  0  0  0  0  0
   10.7994   24.2476   -1.3666 C   0  0  0  0  0  0  0  0  0  0  0  0
   11.2214   22.7955   -1.3614 C   0  0  0  0  0  0  0  0  0  0  0  0
   12.6224   22.8870   -1.6831 N   0  0  0  0  0  0  0  0  0  0  0  0
   13.2432   22.0896   -2.0148 H   0  0  0  0  0  0  0  0  0  0  0  0
  8  9  1  0  0  0
  9  7  1  0  0  0
  7  1  1  0  0  0
  1  2  2  0  0  0
  2  3  1  0  0  0
  3  4  2  0  0  0
  4  5  1  0  0  0
  5  6  2  0  0  0
  6 10  1  0  0  0
 10 11  1  0  0  0
 11 12  1  0  0  0
 11 13  1  0  0  0
 13 14  2  0  0  0
 14 15  1  0  0  0
 15 16  1  0  0  0
 16 17  1  0  0  0
  6  1  1  0  0  0
 17 13  1  0  0  0
 17 18  1  0  0  0
M  END
> <minimizedAffinity>
-6.33521

> <CNNscore>
0.4585494101

> <CNNaffinity>
5.8934826851

> <CNN_VS>
2.7024528980

> <CNNaffinity_variance>
0.1745537668

$$$$
[H]c1c([H])c([H])c(C([H])([H])C([H])([H])C([H])([H])[H])c(OC([H])(C2=NC([H])([H])C([H])([H])N2[H])C([H])([H])[H])c1[H]


 18 19  0  0  0  0  0  0  0  0999 V2000
   14.5570   24.3637   -2.8273 C   0  0  0  0  0  0  0  0  0  0  0  0
   15.0509   24.8957   -3.9976 C   0  0  0  0  0  0  0  0  0  0  0  0
   14.4712   25.9862   -4.6110 C   0  0  0  0  0  0  0  0  0  0  0  0
   13.3590   26.5866   -4.0588 C   0  0  0  0  0  0  0  0  0  0  0  0
   12.8496   26.0695   -2.8878 C   0  0  0  0  0  0  0  0  0  0  0  0
   13.4275   24.9805   -2.2746 C   0  0  0  0  0  0  0  0  0  0  0  0
   15.1406   23.2036   -2.1481 C   0  0  0  0  0  0  0  0  0  0  0  0
   14.1743   21.1591   -1.1015 C   0  0  0  0  0  0  0  0  0  0  0  0
   14.3807   21.9210   -2.4166 C   0  0  0  0  0  0  0  0  0  0  0  0
   12.9528   24.4436   -1.1183 O   0  0  0  0  0  0  0  0  0  0  0  0
   11.6767   24.5034   -0.5920 C   0  0  0  0  0  0  0  0  0  0  0  0
   11.6096   25.0341    0.8054 C   0  0  0  0  0  0  0  0  0  0  0  0
   10.9897   23.1572   -0.6361 C   0  0  0  0  0  0  0  0  0  0  0  0
   10.6669   22.5152    0.4245 N   0  0  0  0  0  0  0  0  0  0  0  0
   10.0333   21.2734    0.0968 C   0  0  0  0  0  0  0  0  0  0  0  0
   10.2377   21.1084   -1.3924 C   0  0  0  0  0  0  0  0  0  0  0  0
   10.6181   22.4382   -1.7942 N   0  0  0  0  0  0  0  0  0  0  0  0
   10.6200   22.8168   -2.7881 H   0  0  0  0  0  0  0  0  0  0  0  0
  8  9  1  0  0  0
  9  7  1  0  0  0
  7  1  1  0  0  0
  1  2  2  0  0  0
  2  3  1  0  0  0
  3  4  2  0  0  0
  4  5  1  0  0  0
  5  6  2  0  0  0
  6 10  1  0  0  0
 10 11  1  0  0  0
 11 12  1  0  0  0
 11 13  1  0  0  0
 13 14  2  0  0  0
 14 15  1  0  0  0
 15 16  1  0  0  0
 16 17  1  0  0  0
  6  1  1  0  0  0
 17 13  1  0  0  0
 17 18  1  0  0  0
M  END
> <minimizedAffinity>
-6.52267

> <CNNscore>
0.4510981739

> <CNNaffinity>
5.8423981667

> <CNN_VS>
2.6354951859

> <CNNaffinity_variance>
0.0433627553

$$$$
[H]c1c([H])c([H])c(C([H])([H])C([H])([H])C([H])([H])[H])c(OC([H])(C2=NC([H])([H])C([H])([H])N2[H])C([H])([H])[H])c1[H]


 18 19  0  0  0  0  0  0  0  0999 V2000
   15.5321   26.5105   -4.5082 C   0  0  0  0  0  0  0  0  0  0  0  0
   16.3437   27.6215   -4.4509 C   0  0  0  0  0  0  0  0  0  0  0  0
   17.2330   27.8292   -3.4177 C   0  0  0  0  0  0  0  0  0  0  0  0
   17.3369   26.9119   -2.3929 C   0  0  0  0  0  0  0  0  0  0  0  0
   16.5336   25.7933   -2.4319 C   0  0  0  0  0  0  0  0  0  0  0  0
   15.6451   25.5851   -3.4630 C   0  0  0  0  0  0  0  0  0  0  0  0
   14.5711   26.2564   -5.5853 C   0  0  0  0  0  0  0  0  0  0  0  0
   15.6738   25.5237   -7.6962 C   0  0  0  0  0  0  0  0  0  0  0  0
   15.0713   26.7142   -6.9398 C   0  0  0  0  0  0  0  0  0  0  0  0
   14.8373   24.4929   -3.5349 O   0  0  0  0  0  0  0  0  0  0  0  0
   13.7593   24.1553   -2.7393 C   0  0  0  0  0  0  0  0  0  0  0  0
   13.1699   25.3016   -1.9794 C   0  0  0  0  0  0  0  0  0  0  0  0
   14.1065   23.0516   -1.7659 C   0  0  0  0  0  0  0  0  0  0  0  0
   14.1040   21.8148   -2.0998 N   0  0  0  0  0  0  0  0  0  0  0  0
   14.4675   20.9856   -0.9901 C   0  0  0  0  0  0  0  0  0  0  0  0
   14.4574   21.9066    0.2091 C   0  0  0  0  0  0  0  0  0  0  0  0
   14.4679   23.2074   -0.4090 N   0  0  0  0  0  0  0  0  0  0  0  0
   14.7059   24.1272    0.0691 H   0  0  0  0  0  0  0  0  0  0  0  0
  8  9  1  0  0  0
  9  7  1  0  0  0
  7  1  1  0  0  0
  1  2  2  0  0  0
  2  3  1  0  0  0
  3  4  2  0  0  0
  4  5  1  0  0  0
  5  6  2  0  0  0
  6 10  1  0  0  0
 10 11  1  0  0  0
 11 12  1  0  0  0
 11 13  1  0  0  0
 13 14  2  0  0  0
 14 15  1  0  0  0
 15 16  1  0  0  0
 16 17  1  0  0  0
  6  1  1  0  0  0
 17 13  1  0  0  0
 17 18  1  0  0  0
M  END
> <minimizedAffinity>
-7.19929

> <CNNscore>
0.4336431026

> <CNNaffinity>
5.9006533623

> <CNN_VS>
2.5587775707

> <CNNaffinity_variance>
0.1099133268

$$$$
[H]c1c([H])c([H])c(C([H])([H])C([H])([H])C([H])([H])[H])c(OC([H])(C2=NC([H])([H])C([H])([H])N2[H])C([H])([H])[H])c1[H]


 18 19  0  0  0  0  0  0  0  0999 V2000
   14.0827   24.2074   -2.5749 C   0  0  0  0  0  0  0  0  0  0  0  0
   13.4983   25.3979   -2.9457 C   0  0  0  0  0  0  0  0  0  0  0  0
   12.3246   25.8480   -2.3788 C   0  0  0  0  0  0  0  0  0  0  0  0
   11.6911   25.1043   -1.4052 C   0  0  0  0  0  0  0  0  0  0  0  0
   12.2600   23.9102   -1.0200 C   0  0  0  0  0  0  0  0  0  0  0  0
   13.4318   23.4596   -1.5856 C   0  0  0  0  0  0  0  0  0  0  0  0
   15.3253   23.6922   -3.1568 C   0  0  0  0  0  0  0  0  0  0  0  0
   16.6777   25.2821   -1.7960 C   0  0  0  0  0  0  0  0  0  0  0  0
   16.4271   24.7305   -3.2051 C   0  0  0  0  0  0  0  0  0  0  0  0
   14.0224   22.2869   -1.2301 O   0  0  0  0  0  0  0  0  0  0  0  0
   14.2615   21.7824    0.0338 C   0  0  0  0  0  0  0  0  0  0  0  0
   15.1783   20.6003    0.0633 C   0  0  0  0  0  0  0  0  0  0  0  0
   12.9764   21.4210    0.7441 C   0  0  0  0  0  0  0  0  0  0  0  0
   12.7121   21.8207    1.9322 N   0  0  0  0  0  0  0  0  0  0  0  0
   11.4354   21.3347    2.3622 C   0  0  0  0  0  0  0  0  0  0  0  0
   11.0278   20.3211    1.3166 C   0  0  0  0  0  0  0  0  0  0  0  0
   11.9250   20.6280    0.2325 N   0  0  0  0  0  0  0  0  0  0  0  0
   11.8180   20.3144   -0.7782 H   0  0  0  0  0  0  0  0  0  0  0  0
  8  9  1  0  0  0
  9  7  1  0  0  0
  7  1  1  0  0  0
  1  2  2  0  0  0
  2  3  1  0  0  0
  3  4  2  0  0  0
  4  5  1  0  0  0
  5  6  2  0  0  0
  6 10  1  0  0  0
 10 11  1  0  0  0
 11 12  1  0  0  0
 11 13  1  0  0  0
 13 14  2  0  0  0
 14 15  1  0  0  0
 15 16  1  0  0  0
 16 17  1  0  0  0
  6  1  1  0  0  0
 17 13  1  0  0  0
 17 18  1  0  0  0
M  END
> <minimizedAffinity>
-6.45599

> <CNNscore>
0.3925369084

> <CNNaffinity>
5.7241387367

> <CNN_VS>
2.2469356060

> <CNNaffinity_variance>
0.0725327656

$$$$
[H]c1c([H])c([H])c(C([H])([H])C([H])([H])C([H])([H])[H])c(OC([H])(C2=NC([H])([H])C([H])([H])N2[H])C([H])([H])[H])c1[H]


 18 19  0  0  0  0  0  0  0  0999 V2000
   13.3776   25.6380   -2.6532 C   0  0  0  0  0  0  0  0  0  0  0  0
   12.8807   26.6067   -3.4964 C   0  0  0  0  0  0  0  0  0  0  0  0
   13.5729   27.0385   -4.6081 C   0  0  0  0  0  0  0  0  0  0  0  0
   14.8063   26.5016   -4.9128 C   0  0  0  0  0  0  0  0  0  0  0  0
   15.3209   25.5309   -4.0816 C   0  0  0  0  0  0  0  0  0  0  0  0
   14.6306   25.0991   -2.9712 C   0  0  0  0  0  0  0  0  0  0  0  0
   12.6759   25.1565   -1.4600 C   0  0  0  0  0  0  0  0  0  0  0  0
   10.8525   23.5474   -0.9170 C   0  0  0  0  0  0  0  0  0  0  0  0
   11.2326   24.7879   -1.7350 C   0  0  0  0  0  0  0  0  0  0  0  0
   15.1069   24.1429   -2.1290 O   0  0  0  0  0  0  0  0  0  0  0  0
   15.2803   22.7913   -2.3577 C   0  0  0  0  0  0  0  0  0  0  0  0
   15.0433   22.3696   -3.7736 C   0  0  0  0  0  0  0  0  0  0  0  0
   14.4110   21.9538   -1.4471 C   0  0  0  0  0  0  0  0  0  0  0  0
   13.5963   21.0722   -1.8946 N   0  0  0  0  0  0  0  0  0  0  0  0
   12.9001   20.4288   -0.8211 C   0  0  0  0  0  0  0  0  0  0  0  0
   13.2314   21.2451    0.4079 C   0  0  0  0  0  0  0  0  0  0  0  0
   14.3664   22.0126   -0.0363 N   0  0  0  0  0  0  0  0  0  0  0  0
   15.0535   22.5339    0.5862 H   0  0  0  0  0  0  0  0  0  0  0  0
  8  9  1  0  0  0
  9  7  1  0  0  0
  7  1  1  0  0  0
  1  2  2  0  0  0
  2  3  1  0  0  0
  3  4  2  0  0  0
  4  5  1  0  0  0
  5  6  2  0  0  0
  6 10  1  0  0  0
 10 11  1  0  0  0
 11 12  1  0  0  0
 11 13  1  0  0  0
 13 14  2  0  0  0
 14 15  1  0  0  0
 15 16  1  0  0  0
 16 17  1  0  0  0
  6  1  1  0  0  0
 17 13  1  0  0  0
 17 18  1  0  0  0
M  END
> <minimizedAffinity>
-6.28233

> <CNNscore>
0.3298828304

> <CNNaffinity>
5.9440131187

> <CNN_VS>
1.9608278275

> <CNNaffinity_variance>
0.0866037384

$$$$
[H]c1c([H])c([H])c(C([H])([H])C([H])([H])C([H])([H])[H])c(OC([H])(C2=NC([H])([H])C([H])([H])N2[H])C([H])([H])[H])c1[H]


 18 19  0  0  0  0  0  0  0  0999 V2000
   14.8966   25.0204   -2.3661 C   0  0  0  0  0  0  0  0  0  0  0  0
   14.7707   25.9096   -3.4101 C   0  0  0  0  0  0  0  0  0  0  0  0
   13.5522   26.4354   -3.7844 C   0  0  0  0  0  0  0  0  0  0  0  0
   12.4029   26.0790   -3.1103 C   0  0  0  0  0  0  0  0  0  0  0  0
   12.5076   25.1906   -2.0624 C   0  0  0  0  0  0  0  0  0  0  0  0
   13.7238   24.6648   -1.6880 C   0  0  0  0  0  0  0  0  0  0  0  0
   16.1716   24.4355   -1.9415 C   0  0  0  0  0  0  0  0  0  0  0  0
   16.9741   24.3773    0.4168 C   0  0  0  0  0  0  0  0  0  0  0  0
   16.8505   25.2350   -0.8487 C   0  0  0  0  0  0  0  0  0  0  0  0
   13.8654   23.7864   -0.6589 O   0  0  0  0  0  0  0  0  0  0  0  0
   13.5637   22.4387   -0.6189 C   0  0  0  0  0  0  0  0  0  0  0  0
   14.1346   21.6444   -1.7512 C   0  0  0  0  0  0  0  0  0  0  0  0
   12.0716   22.2009   -0.5597 C   0  0  0  0  0  0  0  0  0  0  0  0
   11.3642   22.5237    0.4584 N   0  0  0  0  0  0  0  0  0  0  0  0
    9.9876   22.1877    0.2509 C   0  0  0  0  0  0  0  0  0  0  0  0
    9.9736   21.3428   -1.0031 C   0  0  0  0  0  0  0  0  0  0  0  0
   11.2708   21.6165   -1.5661 N   0  0  0  0  0  0  0  0  0  0  0  0
   11.5762   21.4153   -2.5649 H   0  0  0  0  0  0  0  0  0  0  0  0
  8  9  1  0  0  0
  9  7  1  0  0  0
  7  1  1  0  0  0
  1  2  2  0  0  0
  2  3  1  0  0  0
  3  4  2  0  0  0
  4  5  1  0  0  0
  5  6  2  0  0  0
  6 10  1  0  0  0
 10 11  1  0  0  0
 11 12  1  0  0  0
 11 13  1  0  0  0
 13 14  2  0  0  0
 14 15  1  0  0  0
 15 16  1  0  0  0
 16 17  1  0  0  0
  6  1  1  0  0  0
 17 13  1  0  0  0
 17 18  1  0  0  0
M  END
> <minimizedAffinity>
-5.22565

> <CNNscore>
0.3133806884

> <CNNaffinity>
5.7967109680

> <CNN_VS>
1.8165773153

> <CNNaffinity_variance>
0.2680099308

$$$$
[H]C1=C2C([H])([H])C([H])([H])C([H])([H])C([H])([H])[C@]2([H])/C(=C(\[H])C([H])([H])C2([H])C([H])([H])C([H])([H])C(C([H])([H])[H])(C([H])([H])[H])[N+]2(C([H])([H])[H])C([H])([H])[H])[C@]2([H])[C@@]1([H])C(=O)O[C@@]2([H])C([H])([H])[H]


 26 29  0  0  0  0  0  0  0  0999 V2000
   11.3145   25.1624   -2.6920 C   0  0  0  0  0  0  0  0  0  0  0  0
   12.8076   25.2306   -2.2635 C   0  0  0  0  0  0  0  0  0  0  0  0
   12.9539   26.5427   -1.7823 O   0  0  0  0  0  0  0  0  0  0  0  0
   12.9727   27.3293   -2.9321 C   0  0  0  0  0  0  0  0  0  0  0  0
   12.9720   28.5808   -2.9290 O   0  0  0  0  0  0  0  0  0  0  0  0
   12.9928   26.4381   -4.1162 C   0  0  0  0  0  0  0  0  0  0  0  0
   13.6659   26.9344   -5.2848 C   0  0  0  0  0  0  0  0  0  0  0  0
   14.8243   26.5644   -5.7131 C   0  0  0  0  0  0  0  0  0  0  0  0
   15.4482   27.1281   -6.9341 C   0  0  0  0  0  0  0  0  0  0  0  0
   16.2764   26.0174   -7.5662 C   0  0  0  0  0  0  0  0  0  0  0  0
   15.7042   24.6635   -7.2932 C   0  0  0  0  0  0  0  0  0  0  0  0
   15.5583   24.2956   -5.8572 C   0  0  0  0  0  0  0  0  0  0  0  0
   15.5813   25.5557   -4.9953 C   0  0  0  0  0  0  0  0  0  0  0  0
   15.0156   25.2000   -3.6219 C   0  0  0  0  0  0  0  0  0  0  0  0
   15.9575   24.9100   -2.7783 C   0  0  0  0  0  0  0  0  0  0  0  0
   13.6168   25.1754   -3.4621 C   0  0  0  0  0  0  0  0  0  0  0  0
   15.7854   24.5351   -1.3992 C   0  0  0  0  0  0  0  0  0  0  0  0
   14.5910   23.5240   -1.3744 C   0  0  0  0  0  0  0  0  0  0  0  0
   14.8398   22.4275   -2.3725 C   0  0  0  0  0  0  0  0  0  0  0  0
   15.2671   21.2840   -1.4514 C   0  0  0  0  0  0  0  0  0  0  0  0
   14.2994   21.5069   -0.2992 C   0  0  0  0  0  0  0  0  0  0  0  0
   12.9299   21.0902   -0.7865 C   0  0  0  0  0  0  0  0  0  0  0  0
   14.6449   20.7047    0.9132 C   0  0  0  0  0  0  0  0  0  0  0  0
   14.4069   22.9361   -0.0971 N   0  0  0  0  0  0  0  0  0  0  0  0
   13.0865   23.3665    0.3948 C   0  0  0  0  0  0  0  0  0  0  0  0
   15.3521   23.2903    0.9153 C   0  0  0  0  0  0  0  0  0  0  0  0
  1  2  1  0  0  0
  2  3  1  0  0  0
  3  4  1  0  0  0
  4  5  2  0  0  0
  4  6  1  0  0  0
  6  7  1  0  0  0
  7  8  2  0  0  0
  8  9  1  0  0  0
  9 10  1  0  0  0
 10 11  1  0  0  0
 11 12  1  0  0  0
 12 13  1  0  0  0
 13 14  1  0  0  0
 14 15  2  0  0  0
 15 17  1  0  0  0
 17 18  1  0  0  0
 18 19  1  0  0  0
 19 20  1  0  0  0
 20 21  1  0  0  0
 21 22  1  0  0  0
 21 23  1  0  0  0
 21 24  1  0  0  0
 24 25  1  0  0  0
 24 26  1  0  0  0
 14 16  1  0  0  0
 16  2  1  0  0  0
 16  6  1  0  0  0
 13  8  1  0  0  0
 24 18  1  0  0  0
M  CHG 1  24   1
M  END
> <minimizedAffinity>
0.39277

> <CNNscore>
0.6435364485

> <CNNaffinity>
7.3258390427

> <CNN_VS>
4.7144446373

> <CNNaffinity_variance>
0.5165261030

$$$$
[H]C1=C2C([H])([H])C([H])([H])C([H])([H])C([H])([H])[C@]2([H])/C(=C(\[H])C([H])([H])C2([H])C([H])([H])C([H])([H])C(C([H])([H])[H])(C([H])([H])[H])[N+]2(C([H])([H])[H])C([H])([H])[H])[C@]2([H])[C@@]1([H])C(=O)O[C@@]2([H])C([H])([H])[H]


 26 29  0  0  0  0  0  0  0  0999 V2000
   10.6587   24.6969   -2.3246 C   0  0  0  0  0  0  0  0  0  0  0  0
   12.0327   23.9741   -2.2371 C   0  0  0  0  0  0  0  0  0  0  0  0
   12.4833   24.2761   -0.9408 O   0  0  0  0  0  0  0  0  0  0  0  0
   12.8891   25.6066   -1.0204 C   0  0  0  0  0  0  0  0  0  0  0  0
   13.2498   26.2926   -0.0378 O   0  0  0  0  0  0  0  0  0  0  0  0
   12.8160   26.0409   -2.4356 C   0  0  0  0  0  0  0  0  0  0  0  0
   13.7602   27.0408   -2.8523 C   0  0  0  0  0  0  0  0  0  0  0  0
   14.8102   26.8451   -3.5745 C   0  0  0  0  0  0  0  0  0  0  0  0
   15.7346   27.9371   -3.9626 C   0  0  0  0  0  0  0  0  0  0  0  0
   16.2862   27.5878   -5.3384 C   0  0  0  0  0  0  0  0  0  0  0  0
   15.3148   26.7911   -6.1487 C   0  0  0  0  0  0  0  0  0  0  0  0
   14.8696   25.5023   -5.5494 C   0  0  0  0  0  0  0  0  0  0  0  0
   15.1352   25.5117   -4.0459 C   0  0  0  0  0  0  0  0  0  0  0  0
   14.3047   24.3977   -3.4116 C   0  0  0  0  0  0  0  0  0  0  0  0
   14.9950   23.3083   -3.2718 C   0  0  0  0  0  0  0  0  0  0  0  0
   12.9505   24.6556   -3.1244 C   0  0  0  0  0  0  0  0  0  0  0  0
   14.5310   22.0677   -2.7083 C   0  0  0  0  0  0  0  0  0  0  0  0
   15.3071   21.8908   -1.3607 C   0  0  0  0  0  0  0  0  0  0  0  0
   15.5278   23.2365   -0.7274 C   0  0  0  0  0  0  0  0  0  0  0  0
   14.4693   23.2183    0.3761 C   0  0  0  0  0  0  0  0  0  0  0  0
   14.5927   21.7707    0.8267 C   0  0  0  0  0  0  0  0  0  0  0  0
   15.9014   21.6518    1.5750 C   0  0  0  0  0  0  0  0  0  0  0  0
   13.4803   21.3465    1.7297 C   0  0  0  0  0  0  0  0  0  0  0  0
   14.6098   21.0691   -0.4391 N   0  0  0  0  0  0  0  0  0  0  0  0
   15.4340   19.8687   -0.2148 C   0  0  0  0  0  0  0  0  0  0  0  0
   13.3187   20.6053   -0.8412 C   0  0  0  0  0  0  0  0  0  0  0  0
  1  2  1  0  0  0
  2  3  1  0  0  0
  3  4  1  0  0  0
  4  5  2  0  0  0
  4  6  1  0  0  0
  6  7  1  0  0  0
  7  8  2  0  0  0
  8  9  1  0  0  0
  9 10  1  0  0  0
 10 11  1  0  0  0
 11 12  1  0  0  0
 12 13  1  0  0  0
 13 14  1  0  0  0
 14 15  2  0  0  0
 15 17  1  0  0  0
 17 18  1  0  0  0
 18 19  1  0  0  0
 19 20  1  0  0  0
 20 21  1  0  0  0
 21 22  1  0  0  0
 21 23  1  0  0  0
 21 24  1  0  0  0
 24 25  1  0  0  0
 24 26  1  0  0  0
 14 16  1  0  0  0
 16  2  1  0  0  0
 16  6  1  0  0  0
 13  8  1  0  0  0
 24 18  1  0  0  0
M  CHG 1  24   1
M  END
> <minimizedAffinity>
1.22616

> <CNNscore>
0.5866527557

> <CNNaffinity>
7.3293523788

> <CNN_VS>
4.2997846603

> <CNNaffinity_variance>
0.7139527798

$$$$
[H]C1=C2C([H])([H])C([H])([H])C([H])([H])C([H])([H])[C@]2([H])/C(=C(\[H])C([H])([H])C2([H])C([H])([H])C([H])([H])C(C([H])([H])[H])(C([H])([H])[H])[N+]2(C([H])([H])[H])C([H])([H])[H])[C@]2([H])[C@@]1([H])C(=O)O[C@@]2([H])C([H])([H])[H]


 26 29  0  0  0  0  0  0  0  0999 V2000
   15.3483   24.0573   -4.2659 C   0  0  0  0  0  0  0  0  0  0  0  0
   14.5379   24.4326   -2.9930 C   0  0  0  0  0  0  0  0  0  0  0  0
   14.5304   25.8378   -3.0082 O   0  0  0  0  0  0  0  0  0  0  0  0
   15.8194   26.1915   -2.6148 C   0  0  0  0  0  0  0  0  0  0  0  0
   16.2584   27.3635   -2.6135 O   0  0  0  0  0  0  0  0  0  0  0  0
   16.5462   24.9640   -2.2127 C   0  0  0  0  0  0  0  0  0  0  0  0
   17.5498   25.1135   -1.1951 C   0  0  0  0  0  0  0  0  0  0  0  0
   17.4448   24.7546    0.0388 C   0  0  0  0  0  0  0  0  0  0  0  0
   18.5334   24.9442    1.0271 C   0  0  0  0  0  0  0  0  0  0  0  0
   18.4481   23.7869    2.0133 C   0  0  0  0  0  0  0  0  0  0  0  0
   17.9035   22.5469    1.3802 C   0  0  0  0  0  0  0  0  0  0  0  0
   16.5480   22.6663    0.7746 C   0  0  0  0  0  0  0  0  0  0  0  0
   16.2231   24.1361    0.5189 C   0  0  0  0  0  0  0  0  0  0  0  0
   15.0552   24.1987   -0.4634 C   0  0  0  0  0  0  0  0  0  0  0  0
   13.9194   24.3155    0.1523 C   0  0  0  0  0  0  0  0  0  0  0  0
   15.3318   24.0715   -1.8382 C   0  0  0  0  0  0  0  0  0  0  0  0
   12.6197   24.4064   -0.4597 C   0  0  0  0  0  0  0  0  0  0  0  0
   11.6480   23.6110    0.4746 C   0  0  0  0  0  0  0  0  0  0  0  0
   10.8860   24.5730    1.3432 C   0  0  0  0  0  0  0  0  0  0  0  0
    9.5239   24.5798    0.6482 C   0  0  0  0  0  0  0  0  0  0  0  0
    9.4072   23.1044    0.2971 C   0  0  0  0  0  0  0  0  0  0  0  0
    9.1531   22.3622    1.5900 C   0  0  0  0  0  0  0  0  0  0  0  0
    8.2878   22.8195   -0.6508 C   0  0  0  0  0  0  0  0  0  0  0  0
   10.7166   22.8288   -0.2544 N   0  0  0  0  0  0  0  0  0  0  0  0
   10.9904   21.4164    0.0632 C   0  0  0  0  0  0  0  0  0  0  0  0
   10.7604   22.9400   -1.6790 C   0  0  0  0  0  0  0  0  0  0  0  0
  1  2  1  0  0  0
  2  3  1  0  0  0
  3  4  1  0  0  0
  4  5  2  0  0  0
  4  6  1  0  0  0
  6  7  1  0  0  0
  7  8  2  0  0  0
  8  9  1  0  0  0
  9 10  1  0  0  0
 10 11  1  0  0  0
 11 12  1  0  0  0
 12 13  1  0  0  0
 13 14  1  0  0  0
 14 15  2  0  0  0
 15 17  1  0  0  0
 17 18  1  0  0  0
 18 19  1  0  0  0
 19 20  1  0  0  0
 20 21  1  0  0  0
 21 22  1  0  0  0
 21 23  1  0  0  0
 21 24  1  0  0  0
 24 25  1  0  0  0
 24 26  1  0  0  0
 14 16  1  0  0  0
 16  2  1  0  0  0
 16  6  1  0  0  0
 13  8  1  0  0  0
 24 18  1  0  0  0
M  CHG 1  24   1
M  END
> <minimizedAffinity>
6.08839

> <CNNscore>
0.5800701380

> <CNNaffinity>
7.3546333313

> <CNN_VS>
4.2662034035

> <CNNaffinity_variance>
1.0776361227

$$$$
[H]C1=C2C([H])([H])C([H])([H])C([H])([H])C([H])([H])[C@]2([H])/C(=C(\[H])C([H])([H])C2([H])C([H])([H])C([H])([H])C(C([H])([H])[H])(C([H])([H])[H])[N+]2(C([H])([H])[H])C([H])([H])[H])[C@]2([H])[C@@]1([H])C(=O)O[C@@]2([H])C([H])([H])[H]


 26 29  0  0  0  0  0  0  0  0999 V2000
   12.1022   25.6242   -2.6418 C   0  0  0  0  0  0  0  0  0  0  0  0
   13.6337   25.8477   -2.4928 C   0  0  0  0  0  0  0  0  0  0  0  0
   14.1455   25.4792   -3.7486 O   0  0  0  0  0  0  0  0  0  0  0  0
   14.0804   24.0875   -3.7502 C   0  0  0  0  0  0  0  0  0  0  0  0
   14.3375   23.3717   -4.7441 O   0  0  0  0  0  0  0  0  0  0  0  0
   13.6646   23.6306   -2.4029 C   0  0  0  0  0  0  0  0  0  0  0  0
   14.1609   22.3518   -1.9745 C   0  0  0  0  0  0  0  0  0  0  0  0
   15.1003   22.1465   -1.1157 C   0  0  0  0  0  0  0  0  0  0  0  0
   15.5523   20.7892   -0.7270 C   0  0  0  0  0  0  0  0  0  0  0  0
   15.9808   20.8620    0.7326 C   0  0  0  0  0  0  0  0  0  0  0  0
   15.2141   21.8955    1.4935 C   0  0  0  0  0  0  0  0  0  0  0  0
   15.3047   23.2880    0.9729 C   0  0  0  0  0  0  0  0  0  0  0  0
   15.7689   23.2675   -0.4815 C   0  0  0  0  0  0  0  0  0  0  0  0
   15.4477   24.6266   -1.1000 C   0  0  0  0  0  0  0  0  0  0  0  0
   16.4673   25.4270   -1.0494 C   0  0  0  0  0  0  0  0  0  0  0  0
   14.1404   24.8531   -1.5717 C   0  0  0  0  0  0  0  0  0  0  0  0
   16.5193   26.7787   -1.5417 C   0  0  0  0  0  0  0  0  0  0  0  0
   17.1100   26.6868   -2.9882 C   0  0  0  0  0  0  0  0  0  0  0  0
   16.2585   25.7697   -3.8215 C   0  0  0  0  0  0  0  0  0  0  0  0
   15.4797   26.7792   -4.6659 C   0  0  0  0  0  0  0  0  0  0  0  0
   16.5835   27.7887   -4.9423 C   0  0  0  0  0  0  0  0  0  0  0  0
   17.5332   27.1451   -5.9274 C   0  0  0  0  0  0  0  0  0  0  0  0
   16.0710   29.0639   -5.5287 C   0  0  0  0  0  0  0  0  0  0  0  0
   17.1697   27.9505   -3.6289 N   0  0  0  0  0  0  0  0  0  0  0  0
   18.5922   28.2527   -3.8652 C   0  0  0  0  0  0  0  0  0  0  0  0
   16.6332   29.0623   -2.9078 C   0  0  0  0  0  0  0  0  0  0  0  0
  1  2  1  0  0  0
  2  3  1  0  0  0
  3  4  1  0  0  0
  4  5  2  0  0  0
  4  6  1  0  0  0
  6  7  1  0  0  0
  7  8  2  0  0  0
  8  9  1  0  0  0
  9 10  1  0  0  0
 10 11  1  0  0  0
 11 12  1  0  0  0
 12 13  1  0  0  0
 13 14  1  0  0  0
 14 15  2  0  0  0
 15 17  1  0  0  0
 17 18  1  0  0  0
 18 19  1  0  0  0
 19 20  1  0  0  0
 20 21  1  0  0  0
 21 22  1  0  0  0
 21 23  1  0  0  0
 21 24  1  0  0  0
 24 25  1  0  0  0
 24 26  1  0  0  0
 14 16  1  0  0  0
 16  2  1  0  0  0
 16  6  1  0  0  0
 13  8  1  0  0  0
 24 18  1  0  0  0
M  CHG 1  24   1
M  END
> <minimizedAffinity>
6.56272

> <CNNscore>
0.5489412546

> <CNNaffinity>
7.0991220474

> <CNN_VS>
3.8970010281

> <CNNaffinity_variance>
0.5842046738

$$$$
[H]C1=C2C([H])([H])C([H])([H])C([H])([H])C([H])([H])[C@]2([H])/C(=C(\[H])C([H])([H])C2([H])C([H])([H])C([H])([H])C(C([H])([H])[H])(C([H])([H])[H])[N+]2(C([H])([H])[H])C([H])([H])[H])[C@]2([H])[C@@]1([H])C(=O)O[C@@]2([H])C([H])([H])[H]


 26 29  0  0  0  0  0  0  0  0999 V2000
   14.7790   26.1511    1.4968 C   0  0  0  0  0  0  0  0  0  0  0  0
   13.6840   25.3048    0.7880 C   0  0  0  0  0  0  0  0  0  0  0  0
   14.0531   23.9796    1.0748 O   0  0  0  0  0  0  0  0  0  0  0  0
   15.1481   23.7419    0.2467 C   0  0  0  0  0  0  0  0  0  0  0  0
   15.8473   22.7047    0.2843 O   0  0  0  0  0  0  0  0  0  0  0  0
   15.3230   24.9059   -0.6541 C   0  0  0  0  0  0  0  0  0  0  0  0
   15.8786   24.6384   -1.9521 C   0  0  0  0  0  0  0  0  0  0  0  0
   15.2328   24.6112   -3.0677 C   0  0  0  0  0  0  0  0  0  0  0  0
   15.8856   24.3279   -4.3682 C   0  0  0  0  0  0  0  0  0  0  0  0
   15.1389   25.1287   -5.4267 C   0  0  0  0  0  0  0  0  0  0  0  0
   14.5621   26.3923   -4.8737 C   0  0  0  0  0  0  0  0  0  0  0  0
   13.6112   26.2320   -3.7386 C   0  0  0  0  0  0  0  0  0  0  0  0
   13.8038   24.8625   -3.0917 C   0  0  0  0  0  0  0  0  0  0  0  0
   13.1447   24.8929   -1.7141 C   0  0  0  0  0  0  0  0  0  0  0  0
   11.9356   24.4246   -1.7532 C   0  0  0  0  0  0  0  0  0  0  0  0
   13.8675   25.4473   -0.6404 C   0  0  0  0  0  0  0  0  0  0  0  0
   11.0291   24.3019   -0.6416 C   0  0  0  0  0  0  0  0  0  0  0  0
   11.4496   22.9973    0.1139 C   0  0  0  0  0  0  0  0  0  0  0  0
   10.7775   22.9561    1.4582 C   0  0  0  0  0  0  0  0  0  0  0  0
    9.6676   21.9363    1.2000 C   0  0  0  0  0  0  0  0  0  0  0  0
   10.4273   20.9439    0.3328 C   0  0  0  0  0  0  0  0  0  0  0  0
   11.3906   20.2124    1.2404 C   0  0  0  0  0  0  0  0  0  0  0  0
    9.5328   19.9451   -0.3268 C   0  0  0  0  0  0  0  0  0  0  0  0
   11.1000   21.8229   -0.5997 N   0  0  0  0  0  0  0  0  0  0  0  0
   12.3554   21.1378   -0.9537 C   0  0  0  0  0  0  0  0  0  0  0  0
   10.3786   22.0039   -1.8206 C   0  0  0  0  0  0  0  0  0  0  0  0
  1  2  1  0  0  0
  2  3  1  0  0  0
  3  4  1  0  0  0
  4  5  2  0  0  0
  4  6  1  0  0  0
  6  7  1  0  0  0
  7  8  2  0  0  0
  8  9  1  0  0  0
  9 10  1  0  0  0
 10 11  1  0  0  0
 11 12  1  0  0  0
 12 13  1  0  0  0
 13 14  1  0  0  0
 14 15  2  0  0  0
 15 17  1  0  0  0
 17 18  1  0  0  0
 18 19  1  0  0  0
 19 20  1  0  0  0
 20 21  1  0  0  0
 21 22  1  0  0  0
 21 23  1  0  0  0
 21 24  1  0  0  0
 24 25  1  0  0  0
 24 26  1  0  0  0
 14 16  1  0  0  0
 16  2  1  0  0  0
 16  6  1  0  0  0
 13  8  1  0  0  0
 24 18  1  0  0  0
M  CHG 1  24   1
M  END
> <minimizedAffinity>
-7.00133

> <CNNscore>
0.4987189770

> <CNNaffinity>
7.5032362938

> <CNN_VS>
3.7420063019

> <CNNaffinity_variance>
0.3415914476

$$$$
[H]C1=C2C([H])([H])C([H])([H])C([H])([H])C([H])([H])[C@]2([H])/C(=C(\[H])C([H])([H])C2([H])C([H])([H])C([H])([H])C(C([H])([H])[H])(C([H])([H])[H])[N+]2(C([H])([H])[H])C([H])([H])[H])[C@]2([H])[C@@]1([H])C(=O)O[C@@]2([H])C([H])([H])[H]


 26 29  0  0  0  0  0  0  0  0999 V2000
   16.0546   23.9694    0.6045 C   0  0  0  0  0  0  0  0  0  0  0  0
   14.5829   24.0686    0.1128 C   0  0  0  0  0  0  0  0  0  0  0  0
   14.2515   22.7414   -0.2088 O   0  0  0  0  0  0  0  0  0  0  0  0
   14.9161   22.5037   -1.4101 C   0  0  0  0  0  0  0  0  0  0  0  0
   14.9717   21.3885   -1.9753 O   0  0  0  0  0  0  0  0  0  0  0  0
   15.5228   23.7734   -1.8757 C   0  0  0  0  0  0  0  0  0  0  0  0
   15.6438   23.9465   -3.2971 C   0  0  0  0  0  0  0  0  0  0  0  0
   14.9091   24.7030   -4.0390 C   0  0  0  0  0  0  0  0  0  0  0  0
   15.1031   24.8261   -5.5035 C   0  0  0  0  0  0  0  0  0  0  0  0
   14.7222   26.2500   -5.8865 C   0  0  0  0  0  0  0  0  0  0  0  0
   14.9811   27.2194   -4.7782 C   0  0  0  0  0  0  0  0  0  0  0  0
   14.2802   26.9422   -3.4936 C   0  0  0  0  0  0  0  0  0  0  0  0
   13.8352   25.4823   -3.4515 C   0  0  0  0  0  0  0  0  0  0  0  0
   13.5170   25.1261   -2.0007 C   0  0  0  0  0  0  0  0  0  0  0  0
   12.2522   25.2566   -1.7436 C   0  0  0  0  0  0  0  0  0  0  0  0
   14.5830   24.7746   -1.1505 C   0  0  0  0  0  0  0  0  0  0  0  0
   11.6045   25.0024   -0.4834 C   0  0  0  0  0  0  0  0  0  0  0  0
   10.5644   23.8651   -0.7565 C   0  0  0  0  0  0  0  0  0  0  0  0
   11.2242   22.7546   -1.5260 C   0  0  0  0  0  0  0  0  0  0  0  0
   11.4286   21.7150   -0.4233 C   0  0  0  0  0  0  0  0  0  0  0  0
   10.1214   21.8850    0.3356 C   0  0  0  0  0  0  0  0  0  0  0  0
    9.0302   21.2918   -0.5270 C   0  0  0  0  0  0  0  0  0  0  0  0
   10.1226   21.1895    1.6581 C   0  0  0  0  0  0  0  0  0  0  0  0
   10.0269   23.3256    0.4397 N   0  0  0  0  0  0  0  0  0  0  0  0
    8.5850   23.6281    0.4451 C   0  0  0  0  0  0  0  0  0  0  0  0
   10.5529   23.8353    1.6674 C   0  0  0  0  0  0  0  0  0  0  0  0
  1  2  1  0  0  0
  2  3  1  0  0  0
  3  4  1  0  0  0
  4  5  2  0  0  0
  4  6  1  0  0  0
  6  7  1  0  0  0
  7  8  2  0  0  0
  8  9  1  0  0  0
  9 10  1  0  0  0
 10 11  1  0  0  0
 11 12  1  0  0  0
 12 13  1  0  0  0
 13 14  1  0  0  0
 14 15  2  0  0  0
 15 17  1  0  0  0
 17 18  1  0  0  0
 18 19  1  0  0  0
 19 20  1  0  0  0
 20 21  1  0  0  0
 21 22  1  0  0  0
 21 23  1  0  0  0
 21 24  1  0  0  0
 24 25  1  0  0  0
 24 26  1  0  0  0
 14 16  1  0  0  0
 16  2  1  0  0  0
 16  6  1  0  0  0
 13  8  1  0  0  0
 24 18  1  0  0  0
M  CHG 1  24   1
M  END
> <minimizedAffinity>
-9.12438

> <CNNscore>
0.4317767024

> <CNNaffinity>
7.3600034714

> <CNN_VS>
3.1778781414

> <CNNaffinity_variance>
0.1261887550

$$$$
[H]C1=C2C([H])([H])C([H])([H])C([H])([H])C([H])([H])[C@]2([H])/C(=C(\[H])C([H])([H])C2([H])C([H])([H])C([H])([H])C(C([H])([H])[H])(C([H])([H])[H])[N+]2(C([H])([H])[H])C([H])([H])[H])[C@]2([H])[C@@]1([H])C(=O)O[C@@]2([H])C([H])([H])[H]


 26 29  0  0  0  0  0  0  0  0999 V2000
   14.7995   25.9432    1.5443 C   0  0  0  0  0  0  0  0  0  0  0  0
   14.4132   24.6620    0.7525 C   0  0  0  0  0  0  0  0  0  0  0  0
   15.5459   23.8402    0.8803 O   0  0  0  0  0  0  0  0  0  0  0  0
   16.4819   24.4105    0.0200 C   0  0  0  0  0  0  0  0  0  0  0  0
   17.6737   24.0396   -0.0695 O   0  0  0  0  0  0  0  0  0  0  0  0
   15.8246   25.4992   -0.7413 C   0  0  0  0  0  0  0  0  0  0  0  0
   16.3206   25.7489   -2.0668 C   0  0  0  0  0  0  0  0  0  0  0  0
   15.7446   25.4185   -3.1719 C   0  0  0  0  0  0  0  0  0  0  0  0
   16.3260   25.7169   -4.5026 C   0  0  0  0  0  0  0  0  0  0  0  0
   15.1622   25.9611   -5.4540 C   0  0  0  0  0  0  0  0  0  0  0  0
   13.9726   26.5341   -4.7529 C   0  0  0  0  0  0  0  0  0  0  0  0
   13.4204   25.7191   -3.6352 C   0  0  0  0  0  0  0  0  0  0  0  0
   14.4716   24.7222   -3.1532 C   0  0  0  0  0  0  0  0  0  0  0  0
   14.0482   24.2171   -1.7754 C   0  0  0  0  0  0  0  0  0  0  0  0
   13.3919   23.1011   -1.8571 C   0  0  0  0  0  0  0  0  0  0  0  0
   14.3541   25.0082   -0.6514 C   0  0  0  0  0  0  0  0  0  0  0  0
   12.8492   22.3452   -0.7588 C   0  0  0  0  0  0  0  0  0  0  0  0
   11.3976   22.8879   -0.5392 C   0  0  0  0  0  0  0  0  0  0  0  0
   10.4298   22.0812   -1.3596 C   0  0  0  0  0  0  0  0  0  0  0  0
    9.8007   21.1953   -0.2835 C   0  0  0  0  0  0  0  0  0  0  0  0
    9.6890   22.2056    0.8481 C   0  0  0  0  0  0  0  0  0  0  0  0
    8.5826   23.1663    0.4740 C   0  0  0  0  0  0  0  0  0  0  0  0
    9.3560   21.5736    2.1605 C   0  0  0  0  0  0  0  0  0  0  0  0
   10.9968   22.8250    0.8195 N   0  0  0  0  0  0  0  0  0  0  0  0
   10.7888   24.2099    1.2774 C   0  0  0  0  0  0  0  0  0  0  0  0
   11.9199   22.2297    1.7346 C   0  0  0  0  0  0  0  0  0  0  0  0
  1  2  1  0  0  0
  2  3  1  0  0  0
  3  4  1  0  0  0
  4  5  2  0  0  0
  4  6  1  0  0  0
  6  7  1  0  0  0
  7  8  2  0  0  0
  8  9  1  0  0  0
  9 10  1  0  0  0
 10 11  1  0  0  0
 11 12  1  0  0  0
 12 13  1  0  0  0
 13 14  1  0  0  0
 14 15  2  0  0  0
 15 17  1  0  0  0
 17 18  1  0  0  0
 18 19  1  0  0  0
 19 20  1  0  0  0
 20 21  1  0  0  0
 21 22  1  0  0  0
 21 23  1  0  0  0
 21 24  1  0  0  0
 24 25  1  0  0  0
 24 26  1  0  0  0
 14 16  1  0  0  0
 16  2  1  0  0  0
 16  6  1  0  0  0
 13  8  1  0  0  0
 24 18  1  0  0  0
M  CHG 1  24   1
M  END
> <minimizedAffinity>
-6.13286

> <CNNscore>
0.4151451290

> <CNNaffinity>
7.2295141220

> <CNN_VS>
3.0012974739

> <CNNaffinity_variance>
0.2571222186

$$$$
[H]C1=C2C([H])([H])C([H])([H])C([H])([H])C([H])([H])[C@]2([H])/C(=C(\[H])C([H])([H])C2([H])C([H])([H])C([H])([H])C(C([H])([H])[H])(C([H])([H])[H])[N+]2(C([H])([H])[H])C([H])([H])[H])[C@]2([H])[C@@]1([H])C(=O)O[C@@]2([H])C([H])([H])[H]


 26 29  0  0  0  0  0  0  0  0999 V2000
   14.4887   25.9961    1.6480 C   0  0  0  0  0  0  0  0  0  0  0  0
   13.8316   25.9740    0.2389 C   0  0  0  0  0  0  0  0  0  0  0  0
   12.4935   26.3202    0.4926 O   0  0  0  0  0  0  0  0  0  0  0  0
   11.9438   25.1719    1.0586 C   0  0  0  0  0  0  0  0  0  0  0  0
   10.7893   25.1062    1.5372 O   0  0  0  0  0  0  0  0  0  0  0  0
   12.9466   24.0826    0.9900 C   0  0  0  0  0  0  0  0  0  0  0  0
   12.4371   22.7446    0.8667 C   0  0  0  0  0  0  0  0  0  0  0  0
   12.4380   22.0231   -0.2019 C   0  0  0  0  0  0  0  0  0  0  0  0
   11.8920   20.6455   -0.2427 C   0  0  0  0  0  0  0  0  0  0  0  0
   12.7248   19.8645   -1.2505 C   0  0  0  0  0  0  0  0  0  0  0  0
   14.1319   20.3641   -1.3256 C   0  0  0  0  0  0  0  0  0  0  0  0
   14.2947   21.7995   -1.6883 C   0  0  0  0  0  0  0  0  0  0  0  0
   12.9877   22.5480   -1.4380 C   0  0  0  0  0  0  0  0  0  0  0  0
   13.2972   24.0434   -1.4068 C   0  0  0  0  0  0  0  0  0  0  0  0
   13.0990   24.5961   -2.5635 C   0  0  0  0  0  0  0  0  0  0  0  0
   13.7875   24.5987   -0.2093 C   0  0  0  0  0  0  0  0  0  0  0  0
   13.2865   25.9851   -2.8917 C   0  0  0  0  0  0  0  0  0  0  0  0
   13.9541   26.0060   -4.3072 C   0  0  0  0  0  0  0  0  0  0  0  0
   13.5249   27.2424   -5.0472 C   0  0  0  0  0  0  0  0  0  0  0  0
   14.7764   28.1115   -4.9165 C   0  0  0  0  0  0  0  0  0  0  0  0
   15.8482   27.0485   -5.1042 C   0  0  0  0  0  0  0  0  0  0  0  0
   15.8282   26.6551   -6.5642 C   0  0  0  0  0  0  0  0  0  0  0  0
   17.2168   27.5352   -4.7542 C   0  0  0  0  0  0  0  0  0  0  0  0
   15.3703   25.9927   -4.2371 N   0  0  0  0  0  0  0  0  0  0  0  0
   15.8258   24.7358   -4.8562 C   0  0  0  0  0  0  0  0  0  0  0  0
   15.9492   26.0343   -2.9306 C   0  0  0  0  0  0  0  0  0  0  0  0
  1  2  1  0  0  0
  2  3  1  0  0  0
  3  4  1  0  0  0
  4  5  2  0  0  0
  4  6  1  0  0  0
  6  7  1  0  0  0
  7  8  2  0  0  0
  8  9  1  0  0  0
  9 10  1  0  0  0
 10 11  1  0  0  0
 11 12  1  0  0  0
 12 13  1  0  0  0
 13 14  1  0  0  0
 14 15  2  0  0  0
 15 17  1  0  0  0
 17 18  1  0  0  0
 18 19  1  0  0  0
 19 20  1  0  0  0
 20 21  1  0  0  0
 21 22  1  0  0  0
 21 23  1  0  0  0
 21 24  1  0  0  0
 24 25  1  0  0  0
 24 26  1  0  0  0
 14 16  1  0  0  0
 16  2  1  0  0  0
 16  6  1  0  0  0
 13  8  1  0  0  0
 24 18  1  0  0  0
M  CHG 1  24   1
M  END
> <minimizedAffinity>
-2.34663

> <CNNscore>
0.3287018836

> <CNNaffinity>
7.2682600021

> <CNN_VS>
2.3890907764

> <CNNaffinity_variance>
0.5058284402

$$$$
[H]C1=C2C([H])([H])C([H])([H])C([H])([H])C([H])([H])[C@]2([H])/C(=C(\[H])C([H])([H])C2([H])C([H])([H])C([H])([H])C(C([H])([H])[H])(C([H])([H])[H])[N+]2(C([H])([H])[H])C([H])([H])[H])[C@]2([H])[C@@]1([H])C(=O)O[C@@]2([H])C([H])([H])[H]


 26 29  0  0  0  0  0  0  0  0999 V2000
   15.1225   22.6584    0.9704 C   0  0  0  0  0  0  0  0  0  0  0  0
   13.7234   22.5411    0.3021 C   0  0  0  0  0  0  0  0  0  0  0  0
   13.8292   21.3819   -0.4853 O   0  0  0  0  0  0  0  0  0  0  0  0
   14.6087   21.7752   -1.5711 C   0  0  0  0  0  0  0  0  0  0  0  0
   15.0338   20.9946   -2.4521 O   0  0  0  0  0  0  0  0  0  0  0  0
   14.8317   23.2383   -1.4896 C   0  0  0  0  0  0  0  0  0  0  0  0
   14.9838   23.9372   -2.7360 C   0  0  0  0  0  0  0  0  0  0  0  0
   14.1032   24.6909   -3.3007 C   0  0  0  0  0  0  0  0  0  0  0  0
   14.3427   25.3796   -4.5915 C   0  0  0  0  0  0  0  0  0  0  0  0
   13.5745   26.6937   -4.5459 C   0  0  0  0  0  0  0  0  0  0  0  0
   13.4583   27.2299   -3.1552 C   0  0  0  0  0  0  0  0  0  0  0  0
   12.7945   26.3360   -2.1659 C   0  0  0  0  0  0  0  0  0  0  0  0
   12.8094   24.8973   -2.6769 C   0  0  0  0  0  0  0  0  0  0  0  0
   12.5231   23.9725   -1.4955 C   0  0  0  0  0  0  0  0  0  0  0  0
   11.2644   23.6671   -1.4226 C   0  0  0  0  0  0  0  0  0  0  0  0
   13.5898   23.6288   -0.6430 C   0  0  0  0  0  0  0  0  0  0  0  0
   10.6458   22.8165   -0.4398 C   0  0  0  0  0  0  0  0  0  0  0  0
    9.6995   23.7421    0.3953 C   0  0  0  0  0  0  0  0  0  0  0  0
    8.2672   23.4273    0.0635 C   0  0  0  0  0  0  0  0  0  0  0  0
    7.8528   22.6172    1.2925 C   0  0  0  0  0  0  0  0  0  0  0  0
    8.5696   23.4088    2.3757 C   0  0  0  0  0  0  0  0  0  0  0  0
    7.8252   24.7157    2.5325 C   0  0  0  0  0  0  0  0  0  0  0  0
    8.5900   22.7040    3.6931 C   0  0  0  0  0  0  0  0  0  0  0  0
    9.8828   23.5830    1.7924 N   0  0  0  0  0  0  0  0  0  0  0  0
   10.3809   24.8669    2.3159 C   0  0  0  0  0  0  0  0  0  0  0  0
   10.8184   22.5852    2.2080 C   0  0  0  0  0  0  0  0  0  0  0  0
  1  2  1  0  0  0
  2  3  1  0  0  0
  3  4  1  0  0  0
  4  5  2  0  0  0
  4  6  1  0  0  0
  6  7  1  0  0  0
  7  8  2  0  0  0
  8  9  1  0  0  0
  9 10  1  0  0  0
 10 11  1  0  0  0
 11 12  1  0  0  0
 12 13  1  0  0  0
 13 14  1  0  0  0
 14 15  2  0  0  0
 15 17  1  0  0  0
 17 18  1  0  0  0
 18 19  1  0  0  0
 19 20  1  0  0  0
 20 21  1  0  0  0
 21 22  1  0  0  0
 21 23  1  0  0  0
 21 24  1  0  0  0
 24 25  1  0  0  0
 24 26  1  0  0  0
 14 16  1  0  0  0
 16  2  1  0  0  0
 16  6  1  0  0  0
 13  8  1  0  0  0
 24 18  1  0  0  0
M  CHG 1  24   1
M  END
> <minimizedAffinity>
-5.81013

> <CNNscore>
0.3086086810

> <CNNaffinity>
6.8040838242

> <CNN_VS>
2.0997993946

> <CNNaffinity_variance>
0.2000742257

$$$$
[H]c1c([H])c([H])c(C([H])([H])N2C([H])([H])C([H])([H])C([H])(C([H])([H])C([H])([H])N([H])C(=O)c3c([H])c([H])c([H])c([N+](=O)[O-])c3[H])C([H])([H])C2([H])[H])c([H])c1[H]


 28 30  0  0  0  0  0  0  0  0999 V2000
   14.4282   22.3933   -1.4224 C   0  0  0  0  0  0  0  0  0  0  0  0
   15.7729   24.7385   -0.6938 O   0  0  0  0  0  0  0  0  0  0  0  0
   15.4956   24.5829   -1.9092 C   0  0  0  0  0  0  0  0  0  0  0  0
   14.8199   23.4285   -2.3306 N   0  0  0  0  0  0  0  0  0  0  0  0
   14.5784   23.2857   -3.3347 H   0  0  0  0  0  0  0  0  0  0  0  0
   15.9163   25.6545   -2.8027 C   0  0  0  0  0  0  0  0  0  0  0  0
   16.8191   26.6035   -2.3848 C   0  0  0  0  0  0  0  0  0  0  0  0
   17.2231   27.6336   -3.2447 C   0  0  0  0  0  0  0  0  0  0  0  0
   16.7158   27.7024   -4.5203 C   0  0  0  0  0  0  0  0  0  0  0  0
   15.8036   26.7636   -4.9776 C   0  0  0  0  0  0  0  0  0  0  0  0
   15.4362   25.7631   -4.0856 C   0  0  0  0  0  0  0  0  0  0  0  0
   15.2632   26.8073   -6.2839 N   0  0  0  0  0  0  0  0  0  0  0  0
   14.0395   26.8878   -6.4264 O   0  0  0  0  0  0  0  0  0  0  0  0
   16.0751   26.7621   -7.3738 O   0  0  0  0  0  0  0  0  0  0  0  0
   12.9530   22.1430   -1.5334 C   0  0  0  0  0  0  0  0  0  0  0  0
   12.3227   22.6828   -0.2579 C   0  0  0  0  0  0  0  0  0  0  0  0
   11.3012   21.7235    0.2942 C   0  0  0  0  0  0  0  0  0  0  0  0
   10.8765   22.2844    1.6557 C   0  0  0  0  0  0  0  0  0  0  0  0
   10.2992   23.5698    1.5057 N   0  0  0  0  0  0  0  0  0  0  0  0
   10.3217   24.1247    0.1965 C   0  0  0  0  0  0  0  0  0  0  0  0
   11.6552   24.0164   -0.4960 C   0  0  0  0  0  0  0  0  0  0  0  0
    8.9539   23.5866    2.0127 C   0  0  0  0  0  0  0  0  0  0  0  0
    8.6944   24.5883    3.0477 C   0  0  0  0  0  0  0  0  0  0  0  0
    8.9494   24.2108    4.3591 C   0  0  0  0  0  0  0  0  0  0  0  0
    8.7561   25.0640    5.4249 C   0  0  0  0  0  0  0  0  0  0  0  0
    8.2934   26.3252    5.1433 C   0  0  0  0  0  0  0  0  0  0  0  0
    8.0387   26.7061    3.8500 C   0  0  0  0  0  0  0  0  0  0  0  0
    8.2338   25.8519    2.7992 C   0  0  0  0  0  0  0  0  0  0  0  0
  2  3  2  0  0  0
  3  4  1  0  0  0
  4  1  1  0  0  0
  1 15  1  0  0  0
 15 16  1  0  0  0
 16 17  1  0  0  0
 17 18  1  0  0  0
 18 19  1  0  0  0
 19 22  1  0  0  0
 22 23  1  0  0  0
 23 24  2  0  0  0
 24 25  1  0  0  0
 25 26  2  0  0  0
 26 27  1  0  0  0
 27 28  2  0  0  0
 19 20  1  0  0  0
 20 21  1  0  0  0
  3  6  1  0  0  0
  6  7  2  0  0  0
  7  8  1  0  0  0
  8  9  2  0  0  0
  9 10  1  0  0  0
 10 12  1  0  0  0
 12 13  2  0  0  0
 12 14  1  0  0  0
 10 11  2  0  0  0
 21 16  1  0  0  0
 11  6  1  0  0  0
 28 23  1  0  0  0
  4  5  1  0  0  0
M  CHG 1  12   1
M  CHG 1  14  -1
M  END
> <minimizedAffinity>
-8.28298

> <CNNscore>
0.5290247798

> <CNNaffinity>
6.5555558205

> <CNN_VS>
3.4680514336

> <CNNaffinity_variance>
0.2039229423

$$$$
[H]c1c([H])c([H])c(C([H])([H])N2C([H])([H])C([H])([H])C([H])(C([H])([H])C([H])([H])N([H])C(=O)c3c([H])c([H])c([H])c([N+](=O)[O-])c3[H])C([H])([H])C2([H])[H])c([H])c1[H]


 28 30  0  0  0  0  0  0  0  0999 V2000
   13.7020   25.1336   -3.1220 C   0  0  0  0  0  0  0  0  0  0  0  0
   13.5255   27.0344   -5.1701 O   0  0  0  0  0  0  0  0  0  0  0  0
   12.8470   27.2357   -4.1322 C   0  0  0  0  0  0  0  0  0  0  0  0
   12.8993   26.3181   -3.0730 N   0  0  0  0  0  0  0  0  0  0  0  0
   12.3459   26.4722   -2.2030 H   0  0  0  0  0  0  0  0  0  0  0  0
   12.0380   28.4479   -4.1229 C   0  0  0  0  0  0  0  0  0  0  0  0
   12.5529   29.6320   -3.6506 C   0  0  0  0  0  0  0  0  0  0  0  0
   11.7743   30.7971   -3.6419 C   0  0  0  0  0  0  0  0  0  0  0  0
   10.4819   30.7633   -4.1087 C   0  0  0  0  0  0  0  0  0  0  0  0
    9.9281   29.5880   -4.5928 C   0  0  0  0  0  0  0  0  0  0  0  0
   10.7421   28.4617   -4.5795 C   0  0  0  0  0  0  0  0  0  0  0  0
    8.6017   29.5208   -5.0793 N   0  0  0  0  0  0  0  0  0  0  0  0
    7.6934   30.0404   -4.4241 O   0  0  0  0  0  0  0  0  0  0  0  0
    8.3230   28.8936   -6.2532 O   0  0  0  0  0  0  0  0  0  0  0  0
   14.6394   25.0989   -1.9510 C   0  0  0  0  0  0  0  0  0  0  0  0
   13.9137   24.3625   -0.8343 C   0  0  0  0  0  0  0  0  0  0  0  0
   12.8308   23.4707   -1.3827 C   0  0  0  0  0  0  0  0  0  0  0  0
   12.3031   22.6563   -0.1966 C   0  0  0  0  0  0  0  0  0  0  0  0
   11.7654   23.5137    0.7953 N   0  0  0  0  0  0  0  0  0  0  0  0
   11.9094   24.9104    0.5701 C   0  0  0  0  0  0  0  0  0  0  0  0
   13.2945   25.3271    0.1489 C   0  0  0  0  0  0  0  0  0  0  0  0
   10.3825   23.2055    1.0401 C   0  0  0  0  0  0  0  0  0  0  0  0
    9.9881   23.2044    2.4494 C   0  0  0  0  0  0  0  0  0  0  0  0
    9.4327   24.3771    2.9428 C   0  0  0  0  0  0  0  0  0  0  0  0
    9.0108   24.5028    4.2495 C   0  0  0  0  0  0  0  0  0  0  0  0
    9.1605   23.4091    5.0653 C   0  0  0  0  0  0  0  0  0  0  0  0
    9.7086   22.2463    4.5856 C   0  0  0  0  0  0  0  0  0  0  0  0
   10.1241   22.1317    3.2870 C   0  0  0  0  0  0  0  0  0  0  0  0
  2  3  2  0  0  0
  3  4  1  0  0  0
  4  1  1  0  0  0
  1 15  1  0  0  0
 15 16  1  0  0  0
 16 17  1  0  0  0
 17 18  1  0  0  0
 18 19  1  0  0  0
 19 22  1  0  0  0
 22 23  1  0  0  0
 23 24  2  0  0  0
 24 25  1  0  0  0
 25 26  2  0  0  0
 26 27  1  0  0  0
 27 28  2  0  0  0
 19 20  1  0  0  0
 20 21  1  0  0  0
  3  6  1  0  0  0
  6  7  2  0  0  0
  7  8  1  0  0  0
  8  9  2  0  0  0
  9 10  1  0  0  0
 10 12  1  0  0  0
 12 13  2  0  0  0
 12 14  1  0  0  0
 10 11  2  0  0  0
 21 16  1  0  0  0
 11  6  1  0  0  0
 28 23  1  0  0  0
  4  5  1  0  0  0
M  CHG 1  12   1
M  CHG 1  14  -1
M  END
> <minimizedAffinity>
4.80208

> <CNNscore>
0.5229854584

> <CNNaffinity>
6.3103928566

> <CNN_VS>
3.3002436161

> <CNNaffinity_variance>
0.5956369042

$$$$
[H]c1c([H])c([H])c(C([H])([H])N2C([H])([H])C([H])([H])C([H])(C([H])([H])C([H])([H])N([H])C(=O)c3c([H])c([H])c([H])c([N+](=O)[O-])c3[H])C([H])([H])C2([H])[H])c([H])c1[H]


 28 30  0  0  0  0  0  0  0  0999 V2000
   14.3082   22.8974   -0.8147 C   0  0  0  0  0  0  0  0  0  0  0  0
   16.3265   24.8330   -0.6756 O   0  0  0  0  0  0  0  0  0  0  0  0
   15.6306   24.7950   -1.7209 C   0  0  0  0  0  0  0  0  0  0  0  0
   14.6035   23.8480   -1.8438 N   0  0  0  0  0  0  0  0  0  0  0  0
   14.0139   23.8056   -2.7026 H   0  0  0  0  0  0  0  0  0  0  0  0
   15.9658   25.7735   -2.7475 C   0  0  0  0  0  0  0  0  0  0  0  0
   16.8515   26.7917   -2.4846 C   0  0  0  0  0  0  0  0  0  0  0  0
   17.1732   27.7322   -3.4724 C   0  0  0  0  0  0  0  0  0  0  0  0
   16.6013   27.6424   -4.7189 C   0  0  0  0  0  0  0  0  0  0  0  0
   15.7038   26.6296   -5.0215 C   0  0  0  0  0  0  0  0  0  0  0  0
   15.4191   25.7233   -4.0071 C   0  0  0  0  0  0  0  0  0  0  0  0
   15.0983   26.5104   -6.2941 N   0  0  0  0  0  0  0  0  0  0  0  0
   14.0469   27.1172   -6.5194 O   0  0  0  0  0  0  0  0  0  0  0  0
   15.6614   25.7393   -7.2622 O   0  0  0  0  0  0  0  0  0  0  0  0
   13.6438   23.5827    0.3429 C   0  0  0  0  0  0  0  0  0  0  0  0
   12.3007   22.8958    0.5428 C   0  0  0  0  0  0  0  0  0  0  0  0
   12.4386   21.3975    0.4740 C   0  0  0  0  0  0  0  0  0  0  0  0
   11.0737   20.8218    0.8668 C   0  0  0  0  0  0  0  0  0  0  0  0
   10.0722   21.2558   -0.0368 N   0  0  0  0  0  0  0  0  0  0  0  0
   10.4770   22.1916   -1.0281 C   0  0  0  0  0  0  0  0  0  0  0  0
   11.2971   23.3376   -0.4956 C   0  0  0  0  0  0  0  0  0  0  0  0
    9.4332   20.1327   -0.6672 C   0  0  0  0  0  0  0  0  0  0  0  0
    8.0100   20.3122   -0.9574 C   0  0  0  0  0  0  0  0  0  0  0  0
    7.5319   19.7260   -2.1214 C   0  0  0  0  0  0  0  0  0  0  0  0
    6.2098   19.8124   -2.5036 C   0  0  0  0  0  0  0  0  0  0  0  0
    5.3628   20.5112   -1.6800 C   0  0  0  0  0  0  0  0  0  0  0  0
    5.8274   21.0936   -0.5279 C   0  0  0  0  0  0  0  0  0  0  0  0
    7.1413   21.0021   -0.1574 C   0  0  0  0  0  0  0  0  0  0  0  0
  2  3  2  0  0  0
  3  4  1  0  0  0
  4  1  1  0  0  0
  1 15  1  0  0  0
 15 16  1  0  0  0
 16 17  1  0  0  0
 17 18  1  0  0  0
 18 19  1  0  0  0
 19 22  1  0  0  0
 22 23  1  0  0  0
 23 24  2  0  0  0
 24 25  1  0  0  0
 25 26  2  0  0  0
 26 27  1  0  0  0
 27 28  2  0  0  0
 19 20  1  0  0  0
 20 21  1  0  0  0
  3  6  1  0  0  0
  6  7  2  0  0  0
  7  8  1  0  0  0
  8  9  2  0  0  0
  9 10  1  0  0  0
 10 12  1  0  0  0
 12 13  2  0  0  0
 12 14  1  0  0  0
 10 11  2  0  0  0
 21 16  1  0  0  0
 11  6  1  0  0  0
 28 23  1  0  0  0
  4  5  1  0  0  0
M  CHG 1  12   1
M  CHG 1  14  -1
M  END
> <minimizedAffinity>
-8.67625

> <CNNscore>
0.4488877654

> <CNNaffinity>
6.4899091721

> <CNN_VS>
2.9132409096

> <CNNaffinity_variance>
0.2266497165

$$$$
[H]c1c([H])c([H])c(C([H])([H])N2C([H])([H])C([H])([H])C([H])(C([H])([H])C([H])([H])N([H])C(=O)c3c([H])c([H])c([H])c([N+](=O)[O-])c3[H])C([H])([H])C2([H])[H])c([H])c1[H]


 28 30  0  0  0  0  0  0  0  0999 V2000
   14.1367   22.3475   -1.9785 C   0  0  0  0  0  0  0  0  0  0  0  0
   13.2330   24.9390   -2.5320 O   0  0  0  0  0  0  0  0  0  0  0  0
   14.2562   24.5393   -3.1415 C   0  0  0  0  0  0  0  0  0  0  0  0
   14.7515   23.2486   -2.9058 N   0  0  0  0  0  0  0  0  0  0  0  0
   15.5970   22.8996   -3.4062 H   0  0  0  0  0  0  0  0  0  0  0  0
   14.8571   25.4870   -4.0714 C   0  0  0  0  0  0  0  0  0  0  0  0
   15.3034   26.7120   -3.6349 C   0  0  0  0  0  0  0  0  0  0  0  0
   15.8810   27.6227   -4.5298 C   0  0  0  0  0  0  0  0  0  0  0  0
   16.0058   27.2950   -5.8587 C   0  0  0  0  0  0  0  0  0  0  0  0
   15.5675   26.0691   -6.3361 C   0  0  0  0  0  0  0  0  0  0  0  0
   15.0026   25.2027   -5.4078 C   0  0  0  0  0  0  0  0  0  0  0  0
   15.6814   25.7026   -7.6974 N   0  0  0  0  0  0  0  0  0  0  0  0
   16.7692   25.8332   -8.2667 O   0  0  0  0  0  0  0  0  0  0  0  0
   14.6108   25.2116   -8.3769 O   0  0  0  0  0  0  0  0  0  0  0  0
   14.5540   22.6873   -0.5779 C   0  0  0  0  0  0  0  0  0  0  0  0
   13.2898   22.6709    0.2690 C   0  0  0  0  0  0  0  0  0  0  0  0
   12.1106   22.1664   -0.5208 C   0  0  0  0  0  0  0  0  0  0  0  0
   10.9551   22.0239    0.4758 C   0  0  0  0  0  0  0  0  0  0  0  0
   10.6441   23.2774    1.0590 N   0  0  0  0  0  0  0  0  0  0  0  0
   11.4940   24.3640    0.7141 C   0  0  0  0  0  0  0  0  0  0  0  0
   12.9644   24.0473    0.7984 C   0  0  0  0  0  0  0  0  0  0  0  0
    9.2759   23.6349    0.7992 C   0  0  0  0  0  0  0  0  0  0  0  0
    8.4358   23.7759    1.9893 C   0  0  0  0  0  0  0  0  0  0  0  0
    7.9596   22.6031    2.5593 C   0  0  0  0  0  0  0  0  0  0  0  0
    7.1671   22.5982    3.6877 C   0  0  0  0  0  0  0  0  0  0  0  0
    6.8565   23.8150    4.2418 C   0  0  0  0  0  0  0  0  0  0  0  0
    7.3230   24.9788    3.6845 C   0  0  0  0  0  0  0  0  0  0  0  0
    8.1089   24.9730    2.5646 C   0  0  0  0  0  0  0  0  0  0  0  0
  2  3  2  0  0  0
  3  4  1  0  0  0
  4  1  1  0  0  0
  1 15  1  0  0  0
 15 16  1  0  0  0
 16 17  1  0  0  0
 17 18  1  0  0  0
 18 19  1  0  0  0
 19 22  1  0  0  0
 22 23  1  0  0  0
 23 24  2  0  0  0
 24 25  1  0  0  0
 25 26  2  0  0  0
 26 27  1  0  0  0
 27 28  2  0  0  0
 19 20  1  0  0  0
 20 21  1  0  0  0
  3  6  1  0  0  0
  6  7  2  0  0  0
  7  8  1  0  0  0
  8  9  2  0  0  0
  9 10  1  0  0  0
 10 12  1  0  0  0
 12 13  2  0  0  0
 12 14  1  0  0  0
 10 11  2  0  0  0
 21 16  1  0  0  0
 11  6  1  0  0  0
 28 23  1  0  0  0
  4  5  1  0  0  0
M  CHG 1  12   1
M  CHG 1  14  -1
M  END
> <minimizedAffinity>
-7.22486

> <CNNscore>
0.3799192607

> <CNNaffinity>
6.3756017685

> <CNN_VS>
2.4222137928

> <CNNaffinity_variance>
0.0985946804

$$$$
[H]c1c([H])c([H])c(C([H])([H])N2C([H])([H])C([H])([H])C([H])(C([H])([H])C([H])([H])N([H])C(=O)c3c([H])c([H])c([H])c([N+](=O)[O-])c3[H])C([H])([H])C2([H])[H])c([H])c1[H]


 28 30  0  0  0  0  0  0  0  0999 V2000
   11.7331   23.0269   -2.3197 C   0  0  0  0  0  0  0  0  0  0  0  0
   12.4129   25.7383   -2.4773 O   0  0  0  0  0  0  0  0  0  0  0  0
   13.3477   24.9016   -2.5416 C   0  0  0  0  0  0  0  0  0  0  0  0
   13.0651   23.5297   -2.4712 N   0  0  0  0  0  0  0  0  0  0  0  0
   13.8285   22.8219   -2.5273 H   0  0  0  0  0  0  0  0  0  0  0  0
   14.6890   25.4521   -2.6888 C   0  0  0  0  0  0  0  0  0  0  0  0
   15.7478   24.9172   -1.9938 C   0  0  0  0  0  0  0  0  0  0  0  0
   17.0372   25.4472   -2.1358 C   0  0  0  0  0  0  0  0  0  0  0  0
   17.2532   26.5128   -2.9767 C   0  0  0  0  0  0  0  0  0  0  0  0
   16.2105   27.0789   -3.6943 C   0  0  0  0  0  0  0  0  0  0  0  0
   14.9522   26.5160   -3.5176 C   0  0  0  0  0  0  0  0  0  0  0  0
   16.4003   28.1757   -4.5669 N   0  0  0  0  0  0  0  0  0  0  0  0
   15.5149   28.4583   -5.3797 O   0  0  0  0  0  0  0  0  0  0  0  0
   17.5409   28.9144   -4.5169 O   0  0  0  0  0  0  0  0  0  0  0  0
   10.9603   23.8957   -1.3715 C   0  0  0  0  0  0  0  0  0  0  0  0
    9.9770   22.9855   -0.6502 C   0  0  0  0  0  0  0  0  0  0  0  0
    8.5976   23.5896   -0.6173 C   0  0  0  0  0  0  0  0  0  0  0  0
    7.6716   22.5153   -0.0369 C   0  0  0  0  0  0  0  0  0  0  0  0
    8.0764   22.1660    1.2754 N   0  0  0  0  0  0  0  0  0  0  0  0
    9.2765   22.7649    1.7478 C   0  0  0  0  0  0  0  0  0  0  0  0
   10.4192   22.7116    0.7676 C   0  0  0  0  0  0  0  0  0  0  0  0
    7.0160   22.4052    2.2164 C   0  0  0  0  0  0  0  0  0  0  0  0
    6.9619   21.4690    3.3400 C   0  0  0  0  0  0  0  0  0  0  0  0
    8.0272   20.5885    3.4702 C   0  0  0  0  0  0  0  0  0  0  0  0
    8.1019   19.6641    4.4907 C   0  0  0  0  0  0  0  0  0  0  0  0
    7.0680   19.6407    5.3932 C   0  0  0  0  0  0  0  0  0  0  0  0
    6.0114   20.5075    5.2716 C   0  0  0  0  0  0  0  0  0  0  0  0
    5.9466   21.4212    4.2552 C   0  0  0  0  0  0  0  0  0  0  0  0
  2  3  2  0  0  0
  3  4  1  0  0  0
  4  1  1  0  0  0
  1 15  1  0  0  0
 15 16  1  0  0  0
 16 17  1  0  0  0
 17 18  1  0  0  0
 18 19  1  0  0  0
 19 22  1  0  0  0
 22 23  1  0  0  0
 23 24  2  0  0  0
 24 25  1  0  0  0
 25 26  2  0  0  0
 26 27  1  0  0  0
 27 28  2  0  0  0
 19 20  1  0  0  0
 20 21  1  0  0  0
  3  6  1  0  0  0
  6  7  2  0  0  0
  7  8  1  0  0  0
  8  9  2  0  0  0
  9 10  1  0  0  0
 10 12  1  0  0  0
 12 13  2  0  0  0
 12 14  1  0  0  0
 10 11  2  0  0  0
 21 16  1  0  0  0
 11  6  1  0  0  0
 28 23  1  0  0  0
  4  5  1  0  0  0
M  CHG 1  12   1
M  CHG 1  14  -1
M  END
> <minimizedAffinity>
-1.15243

> <CNNscore>
0.3394323289

> <CNNaffinity>
5.7734956741

> <CNN_VS>
1.9597110748

> <CNNaffinity_variance>
0.4953436255

$$$$
[H]c1c([H])c([H])c(C([H])([H])N2C([H])([H])C([H])([H])C([H])(C([H])([H])C([H])([H])N([H])C(=O)c3c([H])c([H])c([H])c([N+](=O)[O-])c3[H])C([H])([H])C2([H])[H])c([H])c1[H]


 28 30  0  0  0  0  0  0  0  0999 V2000
   13.3335   21.6065   -1.3388 C   0  0  0  0  0  0  0  0  0  0  0  0
   14.9304   22.3156   -3.5266 O   0  0  0  0  0  0  0  0  0  0  0  0
   14.7354   23.1881   -2.6441 C   0  0  0  0  0  0  0  0  0  0  0  0
   13.9462   22.8871   -1.5245 N   0  0  0  0  0  0  0  0  0  0  0  0
   13.7780   23.5982   -0.7809 H   0  0  0  0  0  0  0  0  0  0  0  0
   15.3698   24.4802   -2.8720 C   0  0  0  0  0  0  0  0  0  0  0  0
   16.3004   24.9714   -1.9871 C   0  0  0  0  0  0  0  0  0  0  0  0
   16.9098   26.2140   -2.2069 C   0  0  0  0  0  0  0  0  0  0  0  0
   16.5788   26.9548   -3.3163 C   0  0  0  0  0  0  0  0  0  0  0  0
   15.6450   26.4925   -4.2311 C   0  0  0  0  0  0  0  0  0  0  0  0
   15.0705   25.2550   -3.9665 C   0  0  0  0  0  0  0  0  0  0  0  0
   15.2828   27.2312   -5.3816 N   0  0  0  0  0  0  0  0  0  0  0  0
   15.8227   28.3216   -5.5911 O   0  0  0  0  0  0  0  0  0  0  0  0
   14.3528   26.7526   -6.2506 O   0  0  0  0  0  0  0  0  0  0  0  0
   11.8401   21.7497   -1.3155 C   0  0  0  0  0  0  0  0  0  0  0  0
   11.4997   22.5578   -0.0718 C   0  0  0  0  0  0  0  0  0  0  0  0
   11.1365   21.6586    1.0807 C   0  0  0  0  0  0  0  0  0  0  0  0
   10.9954   22.5670    2.3068 C   0  0  0  0  0  0  0  0  0  0  0  0
    9.9713   23.5246    2.1010 N   0  0  0  0  0  0  0  0  0  0  0  0
    9.3682   23.5391    0.8132 C   0  0  0  0  0  0  0  0  0  0  0  0
   10.3509   23.5040   -0.3280 C   0  0  0  0  0  0  0  0  0  0  0  0
    8.9525   23.4057    3.1085 C   0  0  0  0  0  0  0  0  0  0  0  0
    8.3401   24.6688    3.5224 C   0  0  0  0  0  0  0  0  0  0  0  0
    9.1915   25.7548    3.6741 C   0  0  0  0  0  0  0  0  0  0  0  0
    8.7393   27.0021    4.0497 C   0  0  0  0  0  0  0  0  0  0  0  0
    7.3922   27.1398    4.2741 C   0  0  0  0  0  0  0  0  0  0  0  0
    6.5439   26.0716    4.1266 C   0  0  0  0  0  0  0  0  0  0  0  0
    7.0026   24.8378    3.7534 C   0  0  0  0  0  0  0  0  0  0  0  0
  2  3  2  0  0  0
  3  4  1  0  0  0
  4  1  1  0  0  0
  1 15  1  0  0  0
 15 16  1  0  0  0
 16 17  1  0  0  0
 17 18  1  0  0  0
 18 19  1  0  0  0
 19 22  1  0  0  0
 22 23  1  0  0  0
 23 24  2  0  0  0
 24 25  1  0  0  0
 25 26  2  0  0  0
 26 27  1  0  0  0
 27 28  2  0  0  0
 19 20  1  0  0  0
 20 21  1  0  0  0
  3  6  1  0  0  0
  6  7  2  0  0  0
  7  8  1  0  0  0
  8  9  2  0  0  0
  9 10  1  0  0  0
 10 12  1  0  0  0
 12 13  2  0  0  0
 12 14  1  0  0  0
 10 11  2  0  0  0
 21 16  1  0  0  0
 11  6  1  0  0  0
 28 23  1  0  0  0
  4  5  1  0  0  0
M  CHG 1  12   1
M  CHG 1  14  -1
M  END
> <minimizedAffinity>
-9.00292

> <CNNscore>
0.3225213587

> <CNNaffinity>
6.2023978233

> <CNN_VS>
2.0004057884

> <CNNaffinity_variance>
0.2207614481

$$$$
[H]c1c([H])c([H])c(C([H])([H])N2C([H])([H])C([H])([H])C([H])(C([H])([H])C([H])([H])N([H])C(=O)c3c([H])c([H])c([H])c([N+](=O)[O-])c3[H])C([H])([H])C2([H])[H])c([H])c1[H]


 28 30  0  0  0  0  0  0  0  0999 V2000
   12.1585   20.8113    1.0638 C   0  0  0  0  0  0  0  0  0  0  0  0
   10.3592   22.9406    0.8041 O   0  0  0  0  0  0  0  0  0  0  0  0
   10.6184   22.5390    1.9659 C   0  0  0  0  0  0  0  0  0  0  0  0
   11.5152   21.4777    2.1556 N   0  0  0  0  0  0  0  0  0  0  0  0
   11.7446   21.1348    3.1131 H   0  0  0  0  0  0  0  0  0  0  0  0
    9.9392   23.2375    3.0497 C   0  0  0  0  0  0  0  0  0  0  0  0
    9.7207   22.6168    4.2569 C   0  0  0  0  0  0  0  0  0  0  0  0
    9.0675   23.2892    5.2985 C   0  0  0  0  0  0  0  0  0  0  0  0
    8.6380   24.5824    5.1188 C   0  0  0  0  0  0  0  0  0  0  0  0
    8.8405   25.2413    3.9157 C   0  0  0  0  0  0  0  0  0  0  0  0
    9.4929   24.5301    2.9157 C   0  0  0  0  0  0  0  0  0  0  0  0
    8.4102   26.5712    3.6996 N   0  0  0  0  0  0  0  0  0  0  0  0
    9.0488   27.4997    4.2042 O   0  0  0  0  0  0  0  0  0  0  0  0
    7.3084   26.8315    2.9465 O   0  0  0  0  0  0  0  0  0  0  0  0
   13.6488   20.9091    1.2081 C   0  0  0  0  0  0  0  0  0  0  0  0
   14.1323   21.8423    0.1075 C   0  0  0  0  0  0  0  0  0  0  0  0
   14.0574   23.2826    0.5416 C   0  0  0  0  0  0  0  0  0  0  0  0
   14.7327   24.1005   -0.5646 C   0  0  0  0  0  0  0  0  0  0  0  0
   14.0503   23.9316   -1.7950 N   0  0  0  0  0  0  0  0  0  0  0  0
   12.9836   22.9912   -1.8029 C   0  0  0  0  0  0  0  0  0  0  0  0
   13.3184   21.6739   -1.1534 C   0  0  0  0  0  0  0  0  0  0  0  0
   13.5818   25.1954   -2.2956 C   0  0  0  0  0  0  0  0  0  0  0  0
   14.1090   25.5762   -3.6067 C   0  0  0  0  0  0  0  0  0  0  0  0
   15.0633   24.7358   -4.1635 C   0  0  0  0  0  0  0  0  0  0  0  0
   15.6310   24.9764   -5.3969 C   0  0  0  0  0  0  0  0  0  0  0  0
   15.2148   26.0969   -6.0715 C   0  0  0  0  0  0  0  0  0  0  0  0
   14.2721   26.9328   -5.5282 C   0  0  0  0  0  0  0  0  0  0  0  0
   13.7147   26.6852   -4.3034 C   0  0  0  0  0  0  0  0  0  0  0  0
  2  3  2  0  0  0
  3  4  1  0  0  0
  4  1  1  0  0  0
  1 15  1  0  0  0
 15 16  1  0  0  0
 16 17  1  0  0  0
 17 18  1  0  0  0
 18 19  1  0  0  0
 19 22  1  0  0  0
 22 23  1  0  0  0
 23 24  2  0  0  0
 24 25  1  0  0  0
 25 26  2  0  0  0
 26 27  1  0  0  0
 27 28  2  0  0  0
 19 20  1  0  0  0
 20 21  1  0  0  0
  3  6  1  0  0  0
  6  7  2  0  0  0
  7  8  1  0  0  0
  8  9  2  0  0  0
  9 10  1  0  0  0
 10 12  1  0  0  0
 12 13  2  0  0  0
 12 14  1  0  0  0
 10 11  2  0  0  0
 21 16  1  0  0  0
 11  6  1  0  0  0
 28 23  1  0  0  0
  4  5  1  0  0  0
M  CHG 1  12   1
M  CHG 1  14  -1
M  END
> <minimizedAffinity>
-8.38824

> <CNNscore>
0.3196575940

> <CNNaffinity>
6.3280472755

> <CNN_VS>
2.0228083134

> <CNNaffinity_variance>
0.0430946276

$$$$
[H]c1c([H])c([H])c(C([H])([H])N2C([H])([H])C([H])([H])C([H])(C([H])([H])C([H])([H])N([H])C(=O)c3c([H])c([H])c([H])c([N+](=O)[O-])c3[H])C([H])([H])C2([H])[H])c([H])c1[H]


 28 30  0  0  0  0  0  0  0  0999 V2000
   13.8152   22.0405   -1.7906 C   0  0  0  0  0  0  0  0  0  0  0  0
   15.0465   21.9229   -4.3023 O   0  0  0  0  0  0  0  0  0  0  0  0
   14.7720   23.0598   -3.8438 C   0  0  0  0  0  0  0  0  0  0  0  0
   14.1577   23.1787   -2.5887 N   0  0  0  0  0  0  0  0  0  0  0  0
   13.9270   24.1146   -2.1917 H   0  0  0  0  0  0  0  0  0  0  0  0
   15.1297   24.1926   -4.6880 C   0  0  0  0  0  0  0  0  0  0  0  0
   15.8264   24.0039   -5.8582 C   0  0  0  0  0  0  0  0  0  0  0  0
   16.1700   25.0937   -6.6694 C   0  0  0  0  0  0  0  0  0  0  0  0
   15.8104   26.3672   -6.2977 C   0  0  0  0  0  0  0  0  0  0  0  0
   15.1073   26.5970   -5.1249 C   0  0  0  0  0  0  0  0  0  0  0  0
   14.7914   25.4826   -4.3570 C   0  0  0  0  0  0  0  0  0  0  0  0
   14.7233   27.8950   -4.7149 N   0  0  0  0  0  0  0  0  0  0  0  0
   15.2864   28.8745   -5.2129 O   0  0  0  0  0  0  0  0  0  0  0  0
   13.7469   28.0697   -3.7848 O   0  0  0  0  0  0  0  0  0  0  0  0
   14.6344   22.0286   -0.5336 C   0  0  0  0  0  0  0  0  0  0  0  0
   13.6538   22.1245    0.6261 C   0  0  0  0  0  0  0  0  0  0  0  0
   12.5917   21.0606    0.5317 C   0  0  0  0  0  0  0  0  0  0  0  0
   11.7846   21.1426    1.8319 C   0  0  0  0  0  0  0  0  0  0  0  0
   11.1799   22.4174    1.9623 N   0  0  0  0  0  0  0  0  0  0  0  0
   11.5089   23.3785    0.9672 C   0  0  0  0  0  0  0  0  0  0  0  0
   12.9821   23.4764    0.6680 C   0  0  0  0  0  0  0  0  0  0  0  0
    9.7506   22.2958    2.0604 C   0  0  0  0  0  0  0  0  0  0  0  0
    9.1299   23.1103    3.1060 C   0  0  0  0  0  0  0  0  0  0  0  0
    8.1251   23.9803    2.7050 C   0  0  0  0  0  0  0  0  0  0  0  0
    7.4543   24.7945    3.5930 C   0  0  0  0  0  0  0  0  0  0  0  0
    7.8187   24.7169    4.9141 C   0  0  0  0  0  0  0  0  0  0  0  0
    8.8108   23.8597    5.3186 C   0  0  0  0  0  0  0  0  0  0  0  0
    9.4705   23.0557    4.4295 C   0  0  0  0  0  0  0  0  0  0  0  0
  2  3  2  0  0  0
  3  4  1  0  0  0
  4  1  1  0  0  0
  1 15  1  0  0  0
 15 16  1  0  0  0
 16 17  1  0  0  0
 17 18  1  0  0  0
 18 19  1  0  0  0
 19 22  1  0  0  0
 22 23  1  0  0  0
 23 24  2  0  0  0
 24 25  1  0  0  0
 25 26  2  0  0  0
 26 27  1  0  0  0
 27 28  2  0  0  0
 19 20  1  0  0  0
 20 21  1  0  0  0
  3  6  1  0  0  0
  6  7  2  0  0  0
  7  8  1  0  0  0
  8  9  2  0  0  0
  9 10  1  0  0  0
 10 12  1  0  0  0
 12 13  2  0  0  0
 12 14  1  0  0  0
 10 11  2  0  0  0
 21 16  1  0  0  0
 11  6  1  0  0  0
 28 23  1  0  0  0
  4  5  1  0  0  0
M  CHG 1  12   1
M  CHG 1  14  -1
M  END
> <minimizedAffinity>
-4.03895

> <CNNscore>
0.3153542280

> <CNNaffinity>
6.2541704178

> <CNN_VS>
1.9722790718

> <CNNaffinity_variance>
0.2389200181

$$$$
[H]c1c([H])c([H])c(C([H])([H])N2C([H])([H])C([H])([H])C([H])(C([H])([H])C([H])([H])N([H])C(=O)c3c([H])c([H])c([H])c([N+](=O)[O-])c3[H])C([H])([H])C2([H])[H])c([H])c1[H]


 28 30  0  0  0  0  0  0  0  0999 V2000
   10.2792   24.1167    0.6837 C   0  0  0  0  0  0  0  0  0  0  0  0
   12.3939   25.8041   -0.0374 O   0  0  0  0  0  0  0  0  0  0  0  0
   12.2560   24.7375   -0.6866 C   0  0  0  0  0  0  0  0  0  0  0  0
   11.2119   23.8560   -0.3708 N   0  0  0  0  0  0  0  0  0  0  0  0
   11.0807   22.9688   -0.9023 H   0  0  0  0  0  0  0  0  0  0  0  0
   13.2283   24.5046   -1.7468 C   0  0  0  0  0  0  0  0  0  0  0  0
   13.9936   23.3625   -1.7593 C   0  0  0  0  0  0  0  0  0  0  0  0
   14.9285   23.1395   -2.7792 C   0  0  0  0  0  0  0  0  0  0  0  0
   15.0873   24.0675   -3.7805 C   0  0  0  0  0  0  0  0  0  0  0  0
   14.3336   25.2311   -3.8019 C   0  0  0  0  0  0  0  0  0  0  0  0
   13.4212   25.4038   -2.7678 C   0  0  0  0  0  0  0  0  0  0  0  0
   14.4740   26.2051   -4.8178 N   0  0  0  0  0  0  0  0  0  0  0  0
   13.8168   27.2479   -4.7466 O   0  0  0  0  0  0  0  0  0  0  0  0
   15.3205   26.0026   -5.8625 O   0  0  0  0  0  0  0  0  0  0  0  0
   10.3045   22.9961    1.6811 C   0  0  0  0  0  0  0  0  0  0  0  0
    9.4254   23.4297    2.8452 C   0  0  0  0  0  0  0  0  0  0  0  0
    7.9688   23.1870    2.5488 C   0  0  0  0  0  0  0  0  0  0  0  0
    7.2103   23.4872    3.8462 C   0  0  0  0  0  0  0  0  0  0  0  0
    7.4050   24.8358    4.2353 N   0  0  0  0  0  0  0  0  0  0  0  0
    8.3155   25.5956    3.4505 C   0  0  0  0  0  0  0  0  0  0  0  0
    9.6171   24.8934    3.1638 C   0  0  0  0  0  0  0  0  0  0  0  0
    6.1479   25.5284    4.3198 C   0  0  0  0  0  0  0  0  0  0  0  0
    6.1738   26.9176    3.8600 C   0  0  0  0  0  0  0  0  0  0  0  0
    5.7916   27.8859    4.7784 C   0  0  0  0  0  0  0  0  0  0  0  0
    5.7818   29.2308    4.4739 C   0  0  0  0  0  0  0  0  0  0  0  0
    6.1697   29.5903    3.2073 C   0  0  0  0  0  0  0  0  0  0  0  0
    6.5487   28.6395    2.2936 C   0  0  0  0  0  0  0  0  0  0  0  0
    6.5550   27.3073    2.6056 C   0  0  0  0  0  0  0  0  0  0  0  0
  2  3  2  0  0  0
  3  4  1  0  0  0
  4  1  1  0  0  0
  1 15  1  0  0  0
 15 16  1  0  0  0
 16 17  1  0  0  0
 17 18  1  0  0  0
 18 19  1  0  0  0
 19 22  1  0  0  0
 22 23  1  0  0  0
 23 24  2  0  0  0
 24 25  1  0  0  0
 25 26  2  0  0  0
 26 27  1  0  0  0
 27 28  2  0  0  0
 19 20  1  0  0  0
 20 21  1  0  0  0
  3  6  1  0  0  0
  6  7  2  0  0  0
  7  8  1  0  0  0
  8  9  2  0  0  0
  9 10  1  0  0  0
 10 12  1  0  0  0
 12 13  2  0  0  0
 12 14  1  0  0  0
 10 11  2  0  0  0
 21 16  1  0  0  0
 11  6  1  0  0  0
 28 23  1  0  0  0
  4  5  1  0  0  0
M  CHG 1  12   1
M  CHG 1  14  -1
M  END
> <minimizedAffinity>
-8.14518

> <CNNscore>
0.3013911545

> <CNNaffinity>
5.5594854355

> <CNN_VS>
1.6755797863

> <CNNaffinity_variance>
0.2590170503

$$$$
[H]OC(=O)c1c([H])c([H])c(OC2([H])C([H])([H])SC2([H])[H])c([H])c1[H]


 15 16  0  0  0  0  0  0  0  0999 V2000
   14.9590   26.3421   -4.7098 C   0  0  0  0  0  0  0  0  0  0  0  0
   13.8132   26.7453   -4.0390 C   0  0  0  0  0  0  0  0  0  0  0  0
   13.2449   25.9023   -3.0905 C   0  0  0  0  0  0  0  0  0  0  0  0
   13.7757   24.6707   -2.7849 C   0  0  0  0  0  0  0  0  0  0  0  0
   14.9222   24.2785   -3.4628 C   0  0  0  0  0  0  0  0  0  0  0  0
   15.5090   25.1082   -4.4179 C   0  0  0  0  0  0  0  0  0  0  0  0
   15.8159   26.7964   -6.8590 O   0  0  0  0  0  0  0  0  0  0  0  0
   15.5568   27.2315   -5.7089 C   0  0  0  0  0  0  0  0  0  0  0  0
   15.8351   28.5481   -5.3850 O   0  0  0  0  0  0  0  0  0  0  0  0
   16.7934   28.7863   -5.1262 H   0  0  0  0  0  0  0  0  0  0  0  0
   13.2429   23.8606   -1.8842 O   0  0  0  0  0  0  0  0  0  0  0  0
   12.4335   23.8538   -0.8325 C   0  0  0  0  0  0  0  0  0  0  0  0
   12.5368   24.9947    0.1900 C   0  0  0  0  0  0  0  0  0  0  0  0
   11.0244   24.2816    0.9125 S   0  0  0  0  0  0  0  0  0  0  0  0
   10.9788   24.1663   -0.9165 C   0  0  0  0  0  0  0  0  0  0  0  0
  7  8  2  0  0  0
  8  9  1  0  0  0
  8  1  1  0  0  0
  1  2  2  0  0  0
  2  3  1  0  0  0
  3  4  2  0  0  0
  4 11  1  0  0  0
 11 12  1  0  0  0
 12 13  1  0  0  0
 13 14  1  0  0  0
 14 15  1  0  0  0
  4  5  1  0  0  0
  5  6  2  0  0  0
  6  1  1  0  0  0
 15 12  1  0  0  0
  9 10  1  0  0  0
M  END
> <minimizedAffinity>
-7.12146

> <CNNscore>
0.8143826723

> <CNNaffinity>
5.0831990242

> <CNN_VS>
4.1396694183

> <CNNaffinity_variance>
0.2144715339

$$$$
[H]OC(=O)c1c([H])c([H])c(OC2([H])C([H])([H])SC2([H])[H])c([H])c1[H]


 15 16  0  0  0  0  0  0  0  0999 V2000
   14.8785   26.4137   -4.6963 C   0  0  0  0  0  0  0  0  0  0  0  0
   15.4455   25.2018   -4.3284 C   0  0  0  0  0  0  0  0  0  0  0  0
   14.8241   24.4238   -3.3579 C   0  0  0  0  0  0  0  0  0  0  0  0
   13.6574   24.8083   -2.7391 C   0  0  0  0  0  0  0  0  0  0  0  0
   13.0998   26.0227   -3.1157 C   0  0  0  0  0  0  0  0  0  0  0  0
   13.7060   26.8191   -4.0869 C   0  0  0  0  0  0  0  0  0  0  0  0
   15.7762   26.7440   -6.8514 O   0  0  0  0  0  0  0  0  0  0  0  0
   15.5344   27.2324   -5.7190 C   0  0  0  0  0  0  0  0  0  0  0  0
   15.8862   28.5410   -5.4370 O   0  0  0  0  0  0  0  0  0  0  0  0
   16.8548   28.7321   -5.1774 H   0  0  0  0  0  0  0  0  0  0  0  0
   13.0578   24.0756   -1.8144 O   0  0  0  0  0  0  0  0  0  0  0  0
   12.1477   24.1469   -0.8512 C   0  0  0  0  0  0  0  0  0  0  0  0
   12.1146   23.0478    0.2205 C   0  0  0  0  0  0  0  0  0  0  0  0
   10.9090   24.1194    1.0668 S   0  0  0  0  0  0  0  0  0  0  0  0
   12.2158   25.1275    0.2690 C   0  0  0  0  0  0  0  0  0  0  0  0
  7  8  2  0  0  0
  8  9  1  0  0  0
  8  1  1  0  0  0
  1  2  2  0  0  0
  2  3  1  0  0  0
  3  4  2  0  0  0
  4 11  1  0  0  0
 11 12  1  0  0  0
 12 13  1  0  0  0
 13 14  1  0  0  0
 14 15  1  0  0  0
  4  5  1  0  0  0
  5  6  2  0  0  0
  6  1  1  0  0  0
 15 12  1  0  0  0
  9 10  1  0  0  0
M  END
> <minimizedAffinity>
-7.05004

> <CNNscore>
0.7314475775

> <CNNaffinity>
4.9070968628

> <CNN_VS>
3.5892841816

> <CNNaffinity_variance>
0.2688696980

$$$$
[H]OC(=O)c1c([H])c([H])c(OC2([H])C([H])([H])SC2([H])[H])c([H])c1[H]


 15 16  0  0  0  0  0  0  0  0999 V2000
   15.0317   26.2443   -4.8250 C   0  0  0  0  0  0  0  0  0  0  0  0
   13.9722   26.6215   -4.0122 C   0  0  0  0  0  0  0  0  0  0  0  0
   13.4741   25.7205   -3.0776 C   0  0  0  0  0  0  0  0  0  0  0  0
   13.9924   24.4559   -2.9222 C   0  0  0  0  0  0  0  0  0  0  0  0
   15.0522   24.0903   -3.7412 C   0  0  0  0  0  0  0  0  0  0  0  0
   15.5677   24.9780   -4.6853 C   0  0  0  0  0  0  0  0  0  0  0  0
   15.7871   26.8148   -6.9845 O   0  0  0  0  0  0  0  0  0  0  0  0
   15.5556   27.1948   -5.8092 C   0  0  0  0  0  0  0  0  0  0  0  0
   15.7946   28.5082   -5.4437 O   0  0  0  0  0  0  0  0  0  0  0  0
   16.7521   28.7748   -5.2111 H   0  0  0  0  0  0  0  0  0  0  0  0
   13.5259   23.5907   -2.0361 O   0  0  0  0  0  0  0  0  0  0  0  0
   13.9218   22.7027   -1.1329 C   0  0  0  0  0  0  0  0  0  0  0  0
   13.0357   22.4488    0.0952 C   0  0  0  0  0  0  0  0  0  0  0  0
   14.1718   21.0677    0.4413 S   0  0  0  0  0  0  0  0  0  0  0  0
   13.8893   21.2305   -1.3626 C   0  0  0  0  0  0  0  0  0  0  0  0
  7  8  2  0  0  0
  8  9  1  0  0  0
  8  1  1  0  0  0
  1  2  2  0  0  0
  2  3  1  0  0  0
  3  4  2  0  0  0
  4 11  1  0  0  0
 11 12  1  0  0  0
 12 13  1  0  0  0
 13 14  1  0  0  0
 14 15  1  0  0  0
  4  5  1  0  0  0
  5  6  2  0  0  0
  6  1  1  0  0  0
 15 12  1  0  0  0
  9 10  1  0  0  0
M  END
> <minimizedAffinity>
-7.16778

> <CNNscore>
0.7100621462

> <CNNaffinity>
4.9261140823

> <CNN_VS>
3.4978470802

> <CNNaffinity_variance>
0.2683430314

$$$$
[H]OC(=O)c1c([H])c([H])c(OC2([H])C([H])([H])SC2([H])[H])c([H])c1[H]


 15 16  0  0  0  0  0  0  0  0999 V2000
   15.0317   26.2886   -4.8163 C   0  0  0  0  0  0  0  0  0  0  0  0
   15.5992   25.0274   -4.7034 C   0  0  0  0  0  0  0  0  0  0  0  0
   15.0865   24.1285   -3.7747 C   0  0  0  0  0  0  0  0  0  0  0  0
   14.0284   24.4394   -2.9527 C   0  0  0  0  0  0  0  0  0  0  0  0
   13.4691   25.7043   -3.0750 C   0  0  0  0  0  0  0  0  0  0  0  0
   13.9673   26.6216   -3.9999 C   0  0  0  0  0  0  0  0  0  0  0  0
   15.8143   26.8523   -6.9679 O   0  0  0  0  0  0  0  0  0  0  0  0
   15.5728   27.2347   -5.7954 C   0  0  0  0  0  0  0  0  0  0  0  0
   15.8170   28.5466   -5.4281 O   0  0  0  0  0  0  0  0  0  0  0  0
   16.7738   28.8068   -5.1854 H   0  0  0  0  0  0  0  0  0  0  0  0
   13.5328   23.5916   -2.0655 O   0  0  0  0  0  0  0  0  0  0  0  0
   13.8986   22.6990   -1.1542 C   0  0  0  0  0  0  0  0  0  0  0  0
   12.9904   22.4661    0.0619 C   0  0  0  0  0  0  0  0  0  0  0  0
   14.0946   21.0645    0.4282 S   0  0  0  0  0  0  0  0  0  0  0  0
   13.8409   21.2270   -1.3800 C   0  0  0  0  0  0  0  0  0  0  0  0
  7  8  2  0  0  0
  8  9  1  0  0  0
  8  1  1  0  0  0
  1  2  2  0  0  0
  2  3  1  0  0  0
  3  4  2  0  0  0
  4 11  1  0  0  0
 11 12  1  0  0  0
 12 13  1  0  0  0
 13 14  1  0  0  0
 14 15  1  0  0  0
  4  5  1  0  0  0
  5  6  2  0  0  0
  6  1  1  0  0  0
 15 12  1  0  0  0
  9 10  1  0  0  0
M  END
> <minimizedAffinity>
-7.15577

> <CNNscore>
0.7015137672

> <CNNaffinity>
4.9125962257

> <CNN_VS>
3.4462537766

> <CNNaffinity_variance>
0.2751588225

$$$$
[H]OC(=O)c1c([H])c([H])c(OC2([H])C([H])([H])SC2([H])[H])c([H])c1[H]


 15 16  0  0  0  0  0  0  0  0999 V2000
   12.8582   21.9705    0.4101 C   0  0  0  0  0  0  0  0  0  0  0  0
   13.5167   21.2195   -0.5531 C   0  0  0  0  0  0  0  0  0  0  0  0
   14.2067   21.8684   -1.5711 C   0  0  0  0  0  0  0  0  0  0  0  0
   14.2653   23.2393   -1.6658 C   0  0  0  0  0  0  0  0  0  0  0  0
   13.6025   23.9798   -0.6962 C   0  0  0  0  0  0  0  0  0  0  0  0
   12.9043   23.3498    0.3338 C   0  0  0  0  0  0  0  0  0  0  0  0
   11.0837   20.6441    1.2175 O   0  0  0  0  0  0  0  0  0  0  0  0
   12.1316   21.2854    1.4822 C   0  0  0  0  0  0  0  0  0  0  0  0
   12.5996   21.3455    2.7834 O   0  0  0  0  0  0  0  0  0  0  0  0
   12.1716   22.0222    3.4165 H   0  0  0  0  0  0  0  0  0  0  0  0
   14.9189   23.8669   -2.6303 O   0  0  0  0  0  0  0  0  0  0  0  0
   14.7530   24.7642   -3.5939 C   0  0  0  0  0  0  0  0  0  0  0  0
   15.4168   26.1410   -3.4473 C   0  0  0  0  0  0  0  0  0  0  0  0
   14.8928   26.4094   -5.1710 S   0  0  0  0  0  0  0  0  0  0  0  0
   15.4204   24.6714   -4.9232 C   0  0  0  0  0  0  0  0  0  0  0  0
  7  8  2  0  0  0
  8  9  1  0  0  0
  8  1  1  0  0  0
  1  2  2  0  0  0
  2  3  1  0  0  0
  3  4  2  0  0  0
  4 11  1  0  0  0
 11 12  1  0  0  0
 12 13  1  0  0  0
 13 14  1  0  0  0
 14 15  1  0  0  0
  4  5  1  0  0  0
  5  6  2  0  0  0
  6  1  1  0  0  0
 15 12  1  0  0  0
  9 10  1  0  0  0
M  END
> <minimizedAffinity>
-5.35549

> <CNNscore>
0.6796126366

> <CNNaffinity>
5.1212244034

> <CNN_VS>
3.4804487228

> <CNNaffinity_variance>
0.2146827877

$$$$
[H]OC(=O)c1c([H])c([H])c(OC2([H])C([H])([H])SC2([H])[H])c([H])c1[H]


 15 16  0  0  0  0  0  0  0  0999 V2000
   14.7347   25.9457   -4.7044 C   0  0  0  0  0  0  0  0  0  0  0  0
   15.3394   24.7411   -4.3747 C   0  0  0  0  0  0  0  0  0  0  0  0
   14.8714   24.0184   -3.2829 C   0  0  0  0  0  0  0  0  0  0  0  0
   13.8223   24.4514   -2.5059 C   0  0  0  0  0  0  0  0  0  0  0  0
   13.2255   25.6581   -2.8458 C   0  0  0  0  0  0  0  0  0  0  0  0
   13.6786   26.3993   -3.9368 C   0  0  0  0  0  0  0  0  0  0  0  0
   15.3222   26.1509   -6.9788 O   0  0  0  0  0  0  0  0  0  0  0  0
   15.2288   26.7061   -5.8552 C   0  0  0  0  0  0  0  0  0  0  0  0
   15.5917   28.0331   -5.7035 O   0  0  0  0  0  0  0  0  0  0  0  0
   16.5830   28.2497   -5.5919 H   0  0  0  0  0  0  0  0  0  0  0  0
   13.3691   23.7716   -1.4648 O   0  0  0  0  0  0  0  0  0  0  0  0
   12.6486   22.7036   -1.1464 C   0  0  0  0  0  0  0  0  0  0  0  0
   13.3097   21.3189   -1.2048 C   0  0  0  0  0  0  0  0  0  0  0  0
   11.7842   20.7237   -0.4071 S   0  0  0  0  0  0  0  0  0  0  0  0
   12.2536   22.3690    0.2511 C   0  0  0  0  0  0  0  0  0  0  0  0
  7  8  2  0  0  0
  8  9  1  0  0  0
  8  1  1  0  0  0
  1  2  2  0  0  0
  2  3  1  0  0  0
  3  4  2  0  0  0
  4 11  1  0  0  0
 11 12  1  0  0  0
 12 13  1  0  0  0
 13 14  1  0  0  0
 14 15  1  0  0  0
  4  5  1  0  0  0
  5  6  2  0  0  0
  6  1  1  0  0  0
 15 12  1  0  0  0
  9 10  1  0  0  0
M  END
> <minimizedAffinity>
-6.97076

> <CNNscore>
0.6171705723

> <CNNaffinity>
4.7443614006

> <CNN_VS>
2.9280803204

> <CNNaffinity_variance>
0.3567224145

$$$$
[H]OC(=O)c1c([H])c([H])c(OC2([H])C([H])([H])SC2([H])[H])c([H])c1[H]


 15 16  0  0  0  0  0  0  0  0999 V2000
   14.2769   22.4945   -0.3963 C   0  0  0  0  0  0  0  0  0  0  0  0
   14.3085   22.4748   -1.7834 C   0  0  0  0  0  0  0  0  0  0  0  0
   14.9235   23.5175   -2.4673 C   0  0  0  0  0  0  0  0  0  0  0  0
   15.5090   24.5809   -1.8204 C   0  0  0  0  0  0  0  0  0  0  0  0
   15.4709   24.5893   -0.4325 C   0  0  0  0  0  0  0  0  0  0  0  0
   14.8594   23.5538    0.2738 C   0  0  0  0  0  0  0  0  0  0  0  0
   12.5967   20.8582   -0.1528 O   0  0  0  0  0  0  0  0  0  0  0  0
   13.6285   21.3951    0.3231 C   0  0  0  0  0  0  0  0  0  0  0  0
   14.1526   20.9499    1.5243 O   0  0  0  0  0  0  0  0  0  0  0  0
   13.7266   21.2878    2.3882 H   0  0  0  0  0  0  0  0  0  0  0  0
   16.0968   25.5783   -2.4615 O   0  0  0  0  0  0  0  0  0  0  0  0
   16.1138   26.2037   -3.6318 C   0  0  0  0  0  0  0  0  0  0  0  0
   14.8040   26.7897   -4.1784 C   0  0  0  0  0  0  0  0  0  0  0  0
   15.8555   27.5582   -5.4518 S   0  0  0  0  0  0  0  0  0  0  0  0
   16.7091   27.5556   -3.8295 C   0  0  0  0  0  0  0  0  0  0  0  0
  7  8  2  0  0  0
  8  9  1  0  0  0
  8  1  1  0  0  0
  1  2  2  0  0  0
  2  3  1  0  0  0
  3  4  2  0  0  0
  4 11  1  0  0  0
 11 12  1  0  0  0
 12 13  1  0  0  0
 13 14  1  0  0  0
 14 15  1  0  0  0
  4  5  1  0  0  0
  5  6  2  0  0  0
  6  1  1  0  0  0
 15 12  1  0  0  0
  9 10  1  0  0  0
M  END
> <minimizedAffinity>
-5.83997

> <CNNscore>
0.6159305573

> <CNNaffinity>
5.1112117767

> <CNN_VS>
3.1481516361

> <CNNaffinity_variance>
0.2385023832

$$$$
[H]OC(=O)c1c([H])c([H])c(OC2([H])C([H])([H])SC2([H])[H])c([H])c1[H]


 15 16  0  0  0  0  0  0  0  0999 V2000
   10.8363   22.6336   -0.5181 C   0  0  0  0  0  0  0  0  0  0  0  0
   12.0821   22.0716   -0.7578 C   0  0  0  0  0  0  0  0  0  0  0  0
   13.0828   22.8483   -1.3309 C   0  0  0  0  0  0  0  0  0  0  0  0
   12.8888   24.1659   -1.6750 C   0  0  0  0  0  0  0  0  0  0  0  0
   11.6381   24.7169   -1.4303 C   0  0  0  0  0  0  0  0  0  0  0  0
   10.6199   23.9562   -0.8562 C   0  0  0  0  0  0  0  0  0  0  0  0
   10.0735   20.7123    0.6160 O   0  0  0  0  0  0  0  0  0  0  0  0
    9.7828   21.8140    0.0860 C   0  0  0  0  0  0  0  0  0  0  0  0
    8.4704   22.2537    0.0720 O   0  0  0  0  0  0  0  0  0  0  0  0
    7.8477   21.8825   -0.6466 H   0  0  0  0  0  0  0  0  0  0  0  0
   13.8342   24.9139   -2.2210 O   0  0  0  0  0  0  0  0  0  0  0  0
   14.2742   25.3521   -3.3938 C   0  0  0  0  0  0  0  0  0  0  0  0
   13.5373   26.5143   -4.0750 C   0  0  0  0  0  0  0  0  0  0  0  0
   14.9278   26.5076   -5.2515 S   0  0  0  0  0  0  0  0  0  0  0  0
   15.5211   26.1526   -3.5537 C   0  0  0  0  0  0  0  0  0  0  0  0
  7  8  2  0  0  0
  8  9  1  0  0  0
  8  1  1  0  0  0
  1  2  2  0  0  0
  2  3  1  0  0  0
  3  4  2  0  0  0
  4 11  1  0  0  0
 11 12  1  0  0  0
 12 13  1  0  0  0
 13 14  1  0  0  0
 14 15  1  0  0  0
  4  5  1  0  0  0
  5  6  2  0  0  0
  6  1  1  0  0  0
 15 12  1  0  0  0
  9 10  1  0  0  0
M  END
> <minimizedAffinity>
-5.35160

> <CNNscore>
0.6086776257

> <CNNaffinity>
4.8352866173

> <CNN_VS>
2.9431307316

> <CNNaffinity_variance>
0.1146867499

$$$$
[H]OC(=O)c1c([H])c([H])c(OC2([H])C([H])([H])SC2([H])[H])c([H])c1[H]


 15 16  0  0  0  0  0  0  0  0999 V2000
   13.3223   24.6585   -1.1984 C   0  0  0  0  0  0  0  0  0  0  0  0
   14.4596   24.4144   -1.9550 C   0  0  0  0  0  0  0  0  0  0  0  0
   14.6321   25.0808   -3.1631 C   0  0  0  0  0  0  0  0  0  0  0  0
   13.7128   25.9824   -3.6467 C   0  0  0  0  0  0  0  0  0  0  0  0
   12.5791   26.2182   -2.8807 C   0  0  0  0  0  0  0  0  0  0  0  0
   12.3857   25.5610   -1.6659 C   0  0  0  0  0  0  0  0  0  0  0  0
   12.0336   24.0048    0.6648 O   0  0  0  0  0  0  0  0  0  0  0  0
   13.1419   23.9557    0.0744 C   0  0  0  0  0  0  0  0  0  0  0  0
   14.1911   23.2396    0.6242 O   0  0  0  0  0  0  0  0  0  0  0  0
   14.7411   23.6836    1.3606 H   0  0  0  0  0  0  0  0  0  0  0  0
   13.8671   26.6219   -4.7950 O   0  0  0  0  0  0  0  0  0  0  0  0
   14.5407   26.5725   -5.9373 C   0  0  0  0  0  0  0  0  0  0  0  0
   15.8757   27.3235   -6.0439 C   0  0  0  0  0  0  0  0  0  0  0  0
   16.0579   26.4656   -7.6404 S   0  0  0  0  0  0  0  0  0  0  0  0
   15.2746   25.3621   -6.4037 C   0  0  0  0  0  0  0  0  0  0  0  0
  7  8  2  0  0  0
  8  9  1  0  0  0
  8  1  1  0  0  0
  1  2  2  0  0  0
  2  3  1  0  0  0
  3  4  2  0  0  0
  4 11  1  0  0  0
 11 12  1  0  0  0
 12 13  1  0  0  0
 13 14  1  0  0  0
 14 15  1  0  0  0
  4  5  1  0  0  0
  5  6  2  0  0  0
  6  1  1  0  0  0
 15 12  1  0  0  0
  9 10  1  0  0  0
M  END
> <minimizedAffinity>
-5.22812

> <CNNscore>
0.5652884841

> <CNNaffinity>
4.8793921471

> <CNN_VS>
2.7582643032

> <CNNaffinity_variance>
0.0277775340

$$$$
[H]C([H])=C([H])C(=O)N([H])C([H])([H])C([H])([H])C([H])([H])C([H])([H])[C@@]([H])(C(=O)N1C([H])([H])C([H])([H])N(c2c([H])c([H])c([H])c(C([H])([H])[H])c2[H])C([H])([H])C1([H])[H])N([H])C(=O)C([H])([H])c1c([H])c([H])c([H])c([H])c1[H]


 37 39  0  0  0  0  0  0  0  0999 V2000
   12.6902   21.6027    0.7602 C   0  0  0  0  0  0  0  0  0  0  0  0
   12.4002   22.9948    0.3822 C   0  0  0  0  0  0  0  0  0  0  0  0
   11.4844   23.6105    1.0342 O   0  0  0  0  0  0  0  0  0  0  0  0
   13.0710   23.6837   -0.6475 N   0  0  0  0  0  0  0  0  0  0  0  0
   14.1254   23.0842   -1.4122 C   0  0  0  0  0  0  0  0  0  0  0  0
   15.1496   24.1617   -1.7527 C   0  0  0  0  0  0  0  0  0  0  0  0
   14.4688   25.1513   -2.5661 N   0  0  0  0  0  0  0  0  0  0  0  0
   13.0484   25.2883   -2.4495 C   0  0  0  0  0  0  0  0  0  0  0  0
   12.7142   25.0605   -0.9753 C   0  0  0  0  0  0  0  0  0  0  0  0
   15.2012   25.9772   -3.4573 C   0  0  0  0  0  0  0  0  0  0  0  0
   16.1758   26.8138   -2.9206 C   0  0  0  0  0  0  0  0  0  0  0  0
   16.9017   27.6185   -3.7613 C   0  0  0  0  0  0  0  0  0  0  0  0
   16.6962   27.6235   -5.1147 C   0  0  0  0  0  0  0  0  0  0  0  0
   15.7402   26.8072   -5.6701 C   0  0  0  0  0  0  0  0  0  0  0  0
   15.4890   26.7862   -7.1202 C   0  0  0  0  0  0  0  0  0  0  0  0
   15.0101   25.9964   -4.8178 C   0  0  0  0  0  0  0  0  0  0  0  0
   12.4691   21.4257    2.2166 N   0  0  0  0  0  0  0  0  0  0  0  0
   11.6617   20.3789    2.6967 C   0  0  0  0  0  0  0  0  0  0  0  0
   11.1278   19.5930    1.8756 O   0  0  0  0  0  0  0  0  0  0  0  0
   12.9230   22.0879    2.8427 H   0  0  0  0  0  0  0  0  0  0  0  0
   11.4582   20.2230    4.1406 C   0  0  0  0  0  0  0  0  0  0  0  0
   10.1108   20.5772    4.5899 C   0  0  0  0  0  0  0  0  0  0  0  0
    9.7687   21.9209    4.5948 C   0  0  0  0  0  0  0  0  0  0  0  0
    8.5201   22.3483    5.0049 C   0  0  0  0  0  0  0  0  0  0  0  0
    7.5704   21.4529    5.4235 C   0  0  0  0  0  0  0  0  0  0  0  0
    7.8923   20.1167    5.4250 C   0  0  0  0  0  0  0  0  0  0  0  0
    9.1505   19.6893    5.0115 C   0  0  0  0  0  0  0  0  0  0  0  0
   11.7118   20.6132    0.1402 C   0  0  0  0  0  0  0  0  0  0  0  0
   10.7752   21.2234   -0.8487 C   0  0  0  0  0  0  0  0  0  0  0  0
    9.4658   20.4644   -1.0008 C   0  0  0  0  0  0  0  0  0  0  0  0
    8.3746   21.0797   -0.1953 C   0  0  0  0  0  0  0  0  0  0  0  0
    8.0160   23.0569    1.2675 C   0  0  0  0  0  0  0  0  0  0  0  0
    7.0451   22.4641    1.8643 O   0  0  0  0  0  0  0  0  0  0  0  0
    8.7244   22.4159    0.2323 N   0  0  0  0  0  0  0  0  0  0  0  0
    9.5308   22.8990   -0.2579 H   0  0  0  0  0  0  0  0  0  0  0  0
    7.8553   24.9363    2.7814 C   0  0  0  0  0  0  0  0  0  0  0  0
    8.3478   24.3879    1.6936 C   0  0  0  0  0  0  0  0  0  0  0  0
 36 37  2  0  0  0
 37 32  1  0  0  0
 32 33  2  0  0  0
 32 34  1  0  0  0
 34 31  1  0  0  0
 31 30  1  0  0  0
 30 29  1  0  0  0
 29 28  1  0  0  0
 28  1  1  0  0  0
  1 17  1  0  0  0
 17 18  1  0  0  0
 18 19  2  0  0  0
 18 21  1  0  0  0
 21 22  1  0  0  0
 22 23  2  0  0  0
 23 24  1  0  0  0
 24 25  2  0  0  0
 25 26  1  0  0  0
 26 27  2  0  0  0
  1  2  1  0  0  0
  2  3  2  0  0  0
  2  4  1  0  0  0
  4  5  1  0  0  0
  5  6  1  0  0  0
  6  7  1  0  0  0
  7 10  1  0  0  0
 10 11  2  0  0  0
 11 12  1  0  0  0
 12 13  2  0  0  0
 13 14  1  0  0  0
 14 15  1  0  0  0
 14 16  2  0  0  0
  7  8  1  0  0  0
  8  9  1  0  0  0
 27 22  1  0  0  0
  9  4  1  0  0  0
 16 10  1  0  0  0
 34 35  1  0  0  0
 17 20  1  0  0  0
M  END
> <minimizedAffinity>
-8.02794

> <CNNscore>
0.6207668185

> <CNNaffinity>
7.4382858276

> <CNN_VS>
4.6174411774

> <CNNaffinity_variance>
0.2299465239

$$$$
[H]C([H])=C([H])C(=O)N([H])C([H])([H])C([H])([H])C([H])([H])C([H])([H])[C@@]([H])(C(=O)N1C([H])([H])C([H])([H])N(c2c([H])c([H])c([H])c(C([H])([H])[H])c2[H])C([H])([H])C1([H])[H])N([H])C(=O)C([H])([H])c1c([H])c([H])c([H])c([H])c1[H]


 37 39  0  0  0  0  0  0  0  0999 V2000
    9.2298   23.7061    2.5487 C   0  0  0  0  0  0  0  0  0  0  0  0
    9.3392   23.5863    1.0863 C   0  0  0  0  0  0  0  0  0  0  0  0
    8.2961   23.2171    0.4394 O   0  0  0  0  0  0  0  0  0  0  0  0
   10.5180   23.8561    0.3635 N   0  0  0  0  0  0  0  0  0  0  0  0
   11.7244   24.2986    0.9995 C   0  0  0  0  0  0  0  0  0  0  0  0
   12.4383   25.2678    0.0630 C   0  0  0  0  0  0  0  0  0  0  0  0
   12.7724   24.5269   -1.1385 N   0  0  0  0  0  0  0  0  0  0  0  0
   11.9934   23.3765   -1.4846 C   0  0  0  0  0  0  0  0  0  0  0  0
   10.5527   23.6976   -1.0870 C   0  0  0  0  0  0  0  0  0  0  0  0
   13.8497   24.9418   -1.9633 C   0  0  0  0  0  0  0  0  0  0  0  0
   15.1454   24.7280   -1.5018 C   0  0  0  0  0  0  0  0  0  0  0  0
   16.2047   25.1150   -2.2824 C   0  0  0  0  0  0  0  0  0  0  0  0
   16.0255   25.7062   -3.5040 C   0  0  0  0  0  0  0  0  0  0  0  0
   14.7567   25.9288   -3.9830 C   0  0  0  0  0  0  0  0  0  0  0  0
   14.5241   26.5635   -5.2904 C   0  0  0  0  0  0  0  0  0  0  0  0
   13.6905   25.5362   -3.1918 C   0  0  0  0  0  0  0  0  0  0  0  0
    7.9145   24.2941    2.9033 N   0  0  0  0  0  0  0  0  0  0  0  0
    7.8377   25.5441    3.5434 C   0  0  0  0  0  0  0  0  0  0  0  0
    8.8989   26.1592    3.8125 O   0  0  0  0  0  0  0  0  0  0  0  0
    7.0827   23.7578    2.6647 H   0  0  0  0  0  0  0  0  0  0  0  0
    6.5265   26.1060    3.8834 C   0  0  0  0  0  0  0  0  0  0  0  0
    6.3257   27.4735    3.4011 C   0  0  0  0  0  0  0  0  0  0  0  0
    6.2644   27.6675    2.0296 C   0  0  0  0  0  0  0  0  0  0  0  0
    6.0797   28.9237    1.4840 C   0  0  0  0  0  0  0  0  0  0  0  0
    5.9497   30.0285    2.2849 C   0  0  0  0  0  0  0  0  0  0  0  0
    6.0079   29.8545    3.6471 C   0  0  0  0  0  0  0  0  0  0  0  0
    6.1940   28.5883    4.1936 C   0  0  0  0  0  0  0  0  0  0  0  0
    9.2009   22.3514    3.2451 C   0  0  0  0  0  0  0  0  0  0  0  0
   10.1247   22.2486    4.4128 C   0  0  0  0  0  0  0  0  0  0  0  0
   10.9016   20.9419    4.4656 C   0  0  0  0  0  0  0  0  0  0  0  0
   11.1659   20.4018    3.1030 C   0  0  0  0  0  0  0  0  0  0  0  0
   12.7481   20.8223    1.2329 C   0  0  0  0  0  0  0  0  0  0  0  0
   11.8627   20.4594    0.3759 O   0  0  0  0  0  0  0  0  0  0  0  0
   12.4597   20.8205    2.6118 N   0  0  0  0  0  0  0  0  0  0  0  0
   13.1852   21.1261    3.3218 H   0  0  0  0  0  0  0  0  0  0  0  0
   14.5096   20.8300   -0.4245 C   0  0  0  0  0  0  0  0  0  0  0  0
   14.0332   21.2263    0.7342 C   0  0  0  0  0  0  0  0  0  0  0  0
 36 37  2  0  0  0
 37 32  1  0  0  0
 32 33  2  0  0  0
 32 34  1  0  0  0
 34 31  1  0  0  0
 31 30  1  0  0  0
 30 29  1  0  0  0
 29 28  1  0  0  0
 28  1  1  0  0  0
  1 17  1  0  0  0
 17 18  1  0  0  0
 18 19  2  0  0  0
 18 21  1  0  0  0
 21 22  1  0  0  0
 22 23  2  0  0  0
 23 24  1  0  0  0
 24 25  2  0  0  0
 25 26  1  0  0  0
 26 27  2  0  0  0
  1  2  1  0  0  0
  2  3  2  0  0  0
  2  4  1  0  0  0
  4  5  1  0  0  0
  5  6  1  0  0  0
  6  7  1  0  0  0
  7 10  1  0  0  0
 10 11  2  0  0  0
 11 12  1  0  0  0
 12 13  2  0  0  0
 13 14  1  0  0  0
 14 15  1  0  0  0
 14 16  2  0  0  0
  7  8  1  0  0  0
  8  9  1  0  0  0
 27 22  1  0  0  0
  9  4  1  0  0  0
 16 10  1  0  0  0
 34 35  1  0  0  0
 17 20  1  0  0  0
M  END
> <minimizedAffinity>
-8.45980

> <CNNscore>
0.5169714093

> <CNNaffinity>
7.0532188416

> <CNN_VS>
3.6463124752

> <CNNaffinity_variance>
0.4379329085

$$$$
[H]C([H])=C([H])C(=O)N([H])C([H])([H])C([H])([H])C([H])([H])C([H])([H])[C@@]([H])(C(=O)N1C([H])([H])C([H])([H])N(c2c([H])c([H])c([H])c(C([H])([H])[H])c2[H])C([H])([H])C1([H])[H])N([H])C(=O)C([H])([H])c1c([H])c([H])c([H])c([H])c1[H]


 37 39  0  0  0  0  0  0  0  0999 V2000
   13.0890   21.5315    0.4762 C   0  0  0  0  0  0  0  0  0  0  0  0
   13.1552   22.9850    0.2575 C   0  0  0  0  0  0  0  0  0  0  0  0
   12.8624   23.7495    1.2438 O   0  0  0  0  0  0  0  0  0  0  0  0
   13.5230   23.5779   -0.9664 N   0  0  0  0  0  0  0  0  0  0  0  0
   13.8911   22.8028   -2.1151 C   0  0  0  0  0  0  0  0  0  0  0  0
   14.9760   23.5545   -2.8792 C   0  0  0  0  0  0  0  0  0  0  0  0
   14.3950   24.8108   -3.3133 N   0  0  0  0  0  0  0  0  0  0  0  0
   13.2914   25.3555   -2.5816 C   0  0  0  0  0  0  0  0  0  0  0  0
   13.5487   25.0302   -1.1103 C   0  0  0  0  0  0  0  0  0  0  0  0
   14.9188   25.4940   -4.4410 C   0  0  0  0  0  0  0  0  0  0  0  0
   15.1218   24.7655   -5.6097 C   0  0  0  0  0  0  0  0  0  0  0  0
   15.6221   25.4036   -6.7159 C   0  0  0  0  0  0  0  0  0  0  0  0
   15.9283   26.7377   -6.7052 C   0  0  0  0  0  0  0  0  0  0  0  0
   15.7374   27.4800   -5.5644 C   0  0  0  0  0  0  0  0  0  0  0  0
   16.0567   28.9159   -5.5136 C   0  0  0  0  0  0  0  0  0  0  0  0
   15.2319   26.8319   -4.4502 C   0  0  0  0  0  0  0  0  0  0  0  0
   13.0182   21.2494    1.9310 N   0  0  0  0  0  0  0  0  0  0  0  0
   11.8304   20.7679    2.5105 C   0  0  0  0  0  0  0  0  0  0  0  0
   10.8268   20.5790    1.7799 O   0  0  0  0  0  0  0  0  0  0  0  0
   13.8576   21.4181    2.4818 H   0  0  0  0  0  0  0  0  0  0  0  0
   11.7842   20.4951    3.9507 C   0  0  0  0  0  0  0  0  0  0  0  0
   10.4443   20.1833    4.4511 C   0  0  0  0  0  0  0  0  0  0  0  0
   10.1744   18.8644    4.7830 C   0  0  0  0  0  0  0  0  0  0  0  0
    8.9369   18.4772    5.2610 C   0  0  0  0  0  0  0  0  0  0  0  0
    7.9270   19.3894    5.4247 C   0  0  0  0  0  0  0  0  0  0  0  0
    8.1772   20.7015    5.1007 C   0  0  0  0  0  0  0  0  0  0  0  0
    9.4243   21.0884    4.6195 C   0  0  0  0  0  0  0  0  0  0  0  0
   11.8000   20.9188   -0.0570 C   0  0  0  0  0  0  0  0  0  0  0  0
   10.9266   21.8825   -0.7891 C   0  0  0  0  0  0  0  0  0  0  0  0
    9.8745   21.2145   -1.6612 C   0  0  0  0  0  0  0  0  0  0  0  0
    9.3355   19.9794   -1.0271 C   0  0  0  0  0  0  0  0  0  0  0  0
    7.5947   20.5071    0.6666 C   0  0  0  0  0  0  0  0  0  0  0  0
    8.4962   20.7111    1.5587 O   0  0  0  0  0  0  0  0  0  0  0  0
    7.9501   20.1434   -0.6471 N   0  0  0  0  0  0  0  0  0  0  0  0
    7.2095   19.9811   -1.3881 H   0  0  0  0  0  0  0  0  0  0  0  0
    5.8540   21.3025    2.1455 C   0  0  0  0  0  0  0  0  0  0  0  0
    6.2215   20.6629    1.0581 C   0  0  0  0  0  0  0  0  0  0  0  0
 36 37  2  0  0  0
 37 32  1  0  0  0
 32 33  2  0  0  0
 32 34  1  0  0  0
 34 31  1  0  0  0
 31 30  1  0  0  0
 30 29  1  0  0  0
 29 28  1  0  0  0
 28  1  1  0  0  0
  1 17  1  0  0  0
 17 18  1  0  0  0
 18 19  2  0  0  0
 18 21  1  0  0  0
 21 22  1  0  0  0
 22 23  2  0  0  0
 23 24  1  0  0  0
 24 25  2  0  0  0
 25 26  1  0  0  0
 26 27  2  0  0  0
  1  2  1  0  0  0
  2  3  2  0  0  0
  2  4  1  0  0  0
  4  5  1  0  0  0
  5  6  1  0  0  0
  6  7  1  0  0  0
  7 10  1  0  0  0
 10 11  2  0  0  0
 11 12  1  0  0  0
 12 13  2  0  0  0
 13 14  1  0  0  0
 14 15  1  0  0  0
 14 16  2  0  0  0
  7  8  1  0  0  0
  8  9  1  0  0  0
 27 22  1  0  0  0
  9  4  1  0  0  0
 16 10  1  0  0  0
 34 35  1  0  0  0
 17 20  1  0  0  0
M  END
> <minimizedAffinity>
-5.73885

> <CNNscore>
0.4845174551

> <CNNaffinity>
7.4934110641

> <CNN_VS>
3.6306884289

> <CNNaffinity_variance>
0.2166945934

$$$$
[H]C([H])=C([H])C(=O)N([H])C([H])([H])C([H])([H])C([H])([H])C([H])([H])[C@@]([H])(C(=O)N1C([H])([H])C([H])([H])N(c2c([H])c([H])c([H])c(C([H])([H])[H])c2[H])C([H])([H])C1([H])[H])N([H])C(=O)C([H])([H])c1c([H])c([H])c([H])c([H])c1[H]


 37 39  0  0  0  0  0  0  0  0999 V2000
   10.0424   23.2700    0.3180 C   0  0  0  0  0  0  0  0  0  0  0  0
   11.0525   22.7943   -0.6403 C   0  0  0  0  0  0  0  0  0  0  0  0
   11.0827   21.5394   -0.8997 O   0  0  0  0  0  0  0  0  0  0  0  0
   11.9791   23.6366   -1.2856 N   0  0  0  0  0  0  0  0  0  0  0  0
   12.0028   25.0548   -1.0767 C   0  0  0  0  0  0  0  0  0  0  0  0
   12.3977   25.7307   -2.3857 C   0  0  0  0  0  0  0  0  0  0  0  0
   13.7339   25.2709   -2.7134 N   0  0  0  0  0  0  0  0  0  0  0  0
   14.1805   24.0111   -2.2000 C   0  0  0  0  0  0  0  0  0  0  0  0
   12.9635   23.0862   -2.2123 C   0  0  0  0  0  0  0  0  0  0  0  0
   14.5822   26.0541   -3.5379 C   0  0  0  0  0  0  0  0  0  0  0  0
   14.1828   26.2873   -4.8509 C   0  0  0  0  0  0  0  0  0  0  0  0
   14.9823   27.0459   -5.6673 C   0  0  0  0  0  0  0  0  0  0  0  0
   16.1633   27.5815   -5.2289 C   0  0  0  0  0  0  0  0  0  0  0  0
   16.5808   27.3664   -3.9372 C   0  0  0  0  0  0  0  0  0  0  0  0
   17.8450   27.9239   -3.4302 C   0  0  0  0  0  0  0  0  0  0  0  0
   15.7704   26.6003   -3.1166 C   0  0  0  0  0  0  0  0  0  0  0  0
    8.9165   22.3055    0.3750 N   0  0  0  0  0  0  0  0  0  0  0  0
    7.6283   22.7291    0.7482 C   0  0  0  0  0  0  0  0  0  0  0  0
    7.4412   23.9375    1.0340 O   0  0  0  0  0  0  0  0  0  0  0  0
    9.1175   21.3369    0.1345 H   0  0  0  0  0  0  0  0  0  0  0  0
    6.5305   21.7579    0.7966 C   0  0  0  0  0  0  0  0  0  0  0  0
    6.7451   20.5801   -0.0459 C   0  0  0  0  0  0  0  0  0  0  0  0
    7.2931   20.7821   -1.3034 C   0  0  0  0  0  0  0  0  0  0  0  0
    7.5289   19.7297   -2.1675 C   0  0  0  0  0  0  0  0  0  0  0  0
    7.2273   18.4415   -1.8091 C   0  0  0  0  0  0  0  0  0  0  0  0
    6.6834   18.2229   -0.5659 C   0  0  0  0  0  0  0  0  0  0  0  0
    6.4471   19.2847    0.3022 C   0  0  0  0  0  0  0  0  0  0  0  0
   10.5579   23.2833    1.7515 C   0  0  0  0  0  0  0  0  0  0  0  0
   10.0875   22.1324    2.5772 C   0  0  0  0  0  0  0  0  0  0  0  0
   10.8261   20.8333    2.2937 C   0  0  0  0  0  0  0  0  0  0  0  0
   12.1737   20.8152    2.9276 C   0  0  0  0  0  0  0  0  0  0  0  0
   13.8784   21.4154    1.2214 C   0  0  0  0  0  0  0  0  0  0  0  0
   13.6108   22.6637    1.3642 O   0  0  0  0  0  0  0  0  0  0  0  0
   13.1979   20.4413    1.9780 N   0  0  0  0  0  0  0  0  0  0  0  0
   13.4209   19.4107    1.8683 H   0  0  0  0  0  0  0  0  0  0  0  0
   14.6507   20.3022   -0.7822 C   0  0  0  0  0  0  0  0  0  0  0  0
   14.8904   21.0550    0.2677 C   0  0  0  0  0  0  0  0  0  0  0  0
 36 37  2  0  0  0
 37 32  1  0  0  0
 32 33  2  0  0  0
 32 34  1  0  0  0
 34 31  1  0  0  0
 31 30  1  0  0  0
 30 29  1  0  0  0
 29 28  1  0  0  0
 28  1  1  0  0  0
  1 17  1  0  0  0
 17 18  1  0  0  0
 18 19  2  0  0  0
 18 21  1  0  0  0
 21 22  1  0  0  0
 22 23  2  0  0  0
 23 24  1  0  0  0
 24 25  2  0  0  0
 25 26  1  0  0  0
 26 27  2  0  0  0
  1  2  1  0  0  0
  2  3  2  0  0  0
  2  4  1  0  0  0
  4  5  1  0  0  0
  5  6  1  0  0  0
  6  7  1  0  0  0
  7 10  1  0  0  0
 10 11  2  0  0  0
 11 12  1  0  0  0
 12 13  2  0  0  0
 13 14  1  0  0  0
 14 15  1  0  0  0
 14 16  2  0  0  0
  7  8  1  0  0  0
  8  9  1  0  0  0
 27 22  1  0  0  0
  9  4  1  0  0  0
 16 10  1  0  0  0
 34 35  1  0  0  0
 17 20  1  0  0  0
M  END
> <minimizedAffinity>
-6.72539

> <CNNscore>
0.4561763406

> <CNNaffinity>
7.6166815758

> <CNN_VS>
3.4745500088

> <CNNaffinity_variance>
0.2665260434

$$$$
[H]C([H])=C([H])C(=O)N([H])C([H])([H])C([H])([H])C([H])([H])C([H])([H])[C@@]([H])(C(=O)N1C([H])([H])C([H])([H])N(c2c([H])c([H])c([H])c(C([H])([H])[H])c2[H])C([H])([H])C1([H])[H])N([H])C(=O)C([H])([H])c1c([H])c([H])c([H])c([H])c1[H]


 37 39  0  0  0  0  0  0  0  0999 V2000
   15.3459   24.8262   -0.3444 C   0  0  0  0  0  0  0  0  0  0  0  0
   14.1035   24.9617    0.4322 C   0  0  0  0  0  0  0  0  0  0  0  0
   14.0318   25.9223    1.2779 O   0  0  0  0  0  0  0  0  0  0  0  0
   12.9959   24.1019    0.2960 N   0  0  0  0  0  0  0  0  0  0  0  0
   12.9764   23.0174   -0.6417 C   0  0  0  0  0  0  0  0  0  0  0  0
   11.5554   22.8622   -1.1732 C   0  0  0  0  0  0  0  0  0  0  0  0
   10.7129   22.5322   -0.0394 N   0  0  0  0  0  0  0  0  0  0  0  0
   11.1267   22.9293    1.2725 C   0  0  0  0  0  0  0  0  0  0  0  0
   11.8032   24.2911    1.1159 C   0  0  0  0  0  0  0  0  0  0  0  0
    9.4924   21.8341   -0.2290 C   0  0  0  0  0  0  0  0  0  0  0  0
    9.4028   20.9559   -1.3053 C   0  0  0  0  0  0  0  0  0  0  0  0
    8.2356   20.2646   -1.5078 C   0  0  0  0  0  0  0  0  0  0  0  0
    7.1542   20.4127   -0.6816 C   0  0  0  0  0  0  0  0  0  0  0  0
    7.2163   21.2733    0.3882 C   0  0  0  0  0  0  0  0  0  0  0  0
    6.0740   21.4607    1.2972 C   0  0  0  0  0  0  0  0  0  0  0  0
    8.3965   21.9688    0.5889 C   0  0  0  0  0  0  0  0  0  0  0  0
   15.5171   26.0108   -1.2210 N   0  0  0  0  0  0  0  0  0  0  0  0
   16.4476   25.9932   -2.2756 C   0  0  0  0  0  0  0  0  0  0  0  0
   17.1344   24.9597   -2.4674 O   0  0  0  0  0  0  0  0  0  0  0  0
   14.9377   26.8249   -1.0260 H   0  0  0  0  0  0  0  0  0  0  0  0
   16.5988   27.1757   -3.1297 C   0  0  0  0  0  0  0  0  0  0  0  0
   15.9806   27.0355   -4.4492 C   0  0  0  0  0  0  0  0  0  0  0  0
   14.6158   26.7952   -4.4959 C   0  0  0  0  0  0  0  0  0  0  0  0
   13.9479   26.6468   -5.6966 C   0  0  0  0  0  0  0  0  0  0  0  0
   14.6156   26.7327   -6.8906 C   0  0  0  0  0  0  0  0  0  0  0  0
   15.9690   26.9707   -6.8630 C   0  0  0  0  0  0  0  0  0  0  0  0
   16.6390   27.1196   -5.6524 C   0  0  0  0  0  0  0  0  0  0  0  0
   16.5904   24.8640    0.5335 C   0  0  0  0  0  0  0  0  0  0  0  0
   17.1701   23.5197    0.8242 C   0  0  0  0  0  0  0  0  0  0  0  0
   16.2394   22.6087    1.6100 C   0  0  0  0  0  0  0  0  0  0  0  0
   16.4612   21.1740    1.2773 C   0  0  0  0  0  0  0  0  0  0  0  0
   14.3854   20.3772    0.1667 C   0  0  0  0  0  0  0  0  0  0  0  0
   13.7716   20.3426    1.2946 O   0  0  0  0  0  0  0  0  0  0  0  0
   15.7304   20.7890    0.0906 N   0  0  0  0  0  0  0  0  0  0  0  0
   16.2384   20.8258   -0.8391 H   0  0  0  0  0  0  0  0  0  0  0  0
   12.3593   19.7504   -0.9960 C   0  0  0  0  0  0  0  0  0  0  0  0
   13.6525   19.9827   -1.0040 C   0  0  0  0  0  0  0  0  0  0  0  0
 36 37  2  0  0  0
 37 32  1  0  0  0
 32 33  2  0  0  0
 32 34  1  0  0  0
 34 31  1  0  0  0
 31 30  1  0  0  0
 30 29  1  0  0  0
 29 28  1  0  0  0
 28  1  1  0  0  0
  1 17  1  0  0  0
 17 18  1  0  0  0
 18 19  2  0  0  0
 18 21  1  0  0  0
 21 22  1  0  0  0
 22 23  2  0  0  0
 23 24  1  0  0  0
 24 25  2  0  0  0
 25 26  1  0  0  0
 26 27  2  0  0  0
  1  2  1  0  0  0
  2  3  2  0  0  0
  2  4  1  0  0  0
  4  5  1  0  0  0
  5  6  1  0  0  0
  6  7  1  0  0  0
  7 10  1  0  0  0
 10 11  2  0  0  0
 11 12  1  0  0  0
 12 13  2  0  0  0
 13 14  1  0  0  0
 14 15  1  0  0  0
 14 16  2  0  0  0
  7  8  1  0  0  0
  8  9  1  0  0  0
 27 22  1  0  0  0
  9  4  1  0  0  0
 16 10  1  0  0  0
 34 35  1  0  0  0
 17 20  1  0  0  0
M  END
> <minimizedAffinity>
-2.10804

> <CNNscore>
0.3900761306

> <CNNaffinity>
7.2430391312

> <CNN_VS>
2.8253366947

> <CNNaffinity_variance>
0.3751106858

$$$$
[H]C([H])=C([H])C(=O)N([H])C([H])([H])C([H])([H])C([H])([H])C([H])([H])[C@@]([H])(C(=O)N1C([H])([H])C([H])([H])N(c2c([H])c([H])c([H])c(C([H])([H])[H])c2[H])C([H])([H])C1([H])[H])N([H])C(=O)C([H])([H])c1c([H])c([H])c([H])c([H])c1[H]


 37 39  0  0  0  0  0  0  0  0999 V2000
   14.6296   23.2007   -2.1369 C   0  0  0  0  0  0  0  0  0  0  0  0
   13.5674   22.1915   -2.0023 C   0  0  0  0  0  0  0  0  0  0  0  0
   13.5882   21.1941   -2.8071 O   0  0  0  0  0  0  0  0  0  0  0  0
   12.5383   22.2595   -1.0426 N   0  0  0  0  0  0  0  0  0  0  0  0
   12.4497   23.3236   -0.0858 C   0  0  0  0  0  0  0  0  0  0  0  0
   11.8996   22.7572    1.2190 C   0  0  0  0  0  0  0  0  0  0  0  0
   10.5688   22.2546    0.9348 N   0  0  0  0  0  0  0  0  0  0  0  0
   10.2454   21.8630   -0.4039 C   0  0  0  0  0  0  0  0  0  0  0  0
   11.5089   21.2264   -0.9826 C   0  0  0  0  0  0  0  0  0  0  0  0
    9.6051   22.1443    1.9701 C   0  0  0  0  0  0  0  0  0  0  0  0
    8.3510   22.7099    1.7578 C   0  0  0  0  0  0  0  0  0  0  0  0
    7.3994   22.6125    2.7408 C   0  0  0  0  0  0  0  0  0  0  0  0
    7.6466   21.9747    3.9266 C   0  0  0  0  0  0  0  0  0  0  0  0
    8.8763   21.4078    4.1616 C   0  0  0  0  0  0  0  0  0  0  0  0
    9.1802   20.7157    5.4244 C   0  0  0  0  0  0  0  0  0  0  0  0
    9.8337   21.5082    3.1663 C   0  0  0  0  0  0  0  0  0  0  0  0
   14.2780   24.1526   -3.2193 N   0  0  0  0  0  0  0  0  0  0  0  0
   13.4886   25.2849   -2.9492 C   0  0  0  0  0  0  0  0  0  0  0  0
   13.0832   25.4818   -1.7771 O   0  0  0  0  0  0  0  0  0  0  0  0
   14.6300   23.9503   -4.1529 H   0  0  0  0  0  0  0  0  0  0  0  0
   13.1546   26.2125   -4.0349 C   0  0  0  0  0  0  0  0  0  0  0  0
   14.3184   26.6931   -4.7815 C   0  0  0  0  0  0  0  0  0  0  0  0
   14.4101   26.3449   -6.1205 C   0  0  0  0  0  0  0  0  0  0  0  0
   15.4743   26.7516   -6.9027 C   0  0  0  0  0  0  0  0  0  0  0  0
   16.4824   27.5184   -6.3787 C   0  0  0  0  0  0  0  0  0  0  0  0
   16.4076   27.8731   -5.0529 C   0  0  0  0  0  0  0  0  0  0  0  0
   15.3347   27.4620   -4.2676 C   0  0  0  0  0  0  0  0  0  0  0  0
   14.7410   24.0984   -0.9111 C   0  0  0  0  0  0  0  0  0  0  0  0
   16.0749   24.7492   -0.7537 C   0  0  0  0  0  0  0  0  0  0  0  0
   16.4444   25.0467    0.6915 C   0  0  0  0  0  0  0  0  0  0  0  0
   17.5454   24.1663    1.1719 C   0  0  0  0  0  0  0  0  0  0  0  0
   16.2129   22.0682    1.1612 C   0  0  0  0  0  0  0  0  0  0  0  0
   15.3210   22.6074    1.9123 O   0  0  0  0  0  0  0  0  0  0  0  0
   17.3468   22.7970    0.7519 N   0  0  0  0  0  0  0  0  0  0  0  0
   18.0814   22.3581    0.1263 H   0  0  0  0  0  0  0  0  0  0  0  0
   14.8895   20.2732    0.2250 C   0  0  0  0  0  0  0  0  0  0  0  0
   16.0102   20.7043    0.7587 C   0  0  0  0  0  0  0  0  0  0  0  0
 36 37  2  0  0  0
 37 32  1  0  0  0
 32 33  2  0  0  0
 32 34  1  0  0  0
 34 31  1  0  0  0
 31 30  1  0  0  0
 30 29  1  0  0  0
 29 28  1  0  0  0
 28  1  1  0  0  0
  1 17  1  0  0  0
 17 18  1  0  0  0
 18 19  2  0  0  0
 18 21  1  0  0  0
 21 22  1  0  0  0
 22 23  2  0  0  0
 23 24  1  0  0  0
 24 25  2  0  0  0
 25 26  1  0  0  0
 26 27  2  0  0  0
  1  2  1  0  0  0
  2  3  2  0  0  0
  2  4  1  0  0  0
  4  5  1  0  0  0
  5  6  1  0  0  0
  6  7  1  0  0  0
  7 10  1  0  0  0
 10 11  2  0  0  0
 11 12  1  0  0  0
 12 13  2  0  0  0
 13 14  1  0  0  0
 14 15  1  0  0  0
 14 16  2  0  0  0
  7  8  1  0  0  0
  8  9  1  0  0  0
 27 22  1  0  0  0
  9  4  1  0  0  0
 16 10  1  0  0  0
 34 35  1  0  0  0
 17 20  1  0  0  0
M  END
> <minimizedAffinity>
-3.67267

> <CNNscore>
0.3667111397

> <CNNaffinity>
7.4774465561

> <CNN_VS>
2.7420630455

> <CNNaffinity_variance>
0.1542790085

$$$$
[H]C([H])=C([H])C(=O)N([H])C([H])([H])C([H])([H])C([H])([H])C([H])([H])[C@@]([H])(C(=O)N1C([H])([H])C([H])([H])N(c2c([H])c([H])c([H])c(C([H])([H])[H])c2[H])C([H])([H])C1([H])[H])N([H])C(=O)C([H])([H])c1c([H])c([H])c([H])c([H])c1[H]


 37 39  0  0  0  0  0  0  0  0999 V2000
   13.2200   24.7086   -0.6937 C   0  0  0  0  0  0  0  0  0  0  0  0
   12.0524   24.7596    0.2002 C   0  0  0  0  0  0  0  0  0  0  0  0
   11.9024   25.8063    0.9247 O   0  0  0  0  0  0  0  0  0  0  0  0
   11.0960   23.7301    0.3004 N   0  0  0  0  0  0  0  0  0  0  0  0
   11.1683   22.5353   -0.4890 C   0  0  0  0  0  0  0  0  0  0  0  0
    9.7489   22.0921   -0.8279 C   0  0  0  0  0  0  0  0  0  0  0  0
    9.0856   21.7986    0.4283 N   0  0  0  0  0  0  0  0  0  0  0  0
    9.5507   22.4333    1.6245 C   0  0  0  0  0  0  0  0  0  0  0  0
    9.9724   23.8472    1.2247 C   0  0  0  0  0  0  0  0  0  0  0  0
    7.9863   20.9026    0.4693 C   0  0  0  0  0  0  0  0  0  0  0  0
    7.3357   20.7224    1.6866 C   0  0  0  0  0  0  0  0  0  0  0  0
    6.2666   19.8656    1.7520 C   0  0  0  0  0  0  0  0  0  0  0  0
    5.8194   19.1814    0.6540 C   0  0  0  0  0  0  0  0  0  0  0  0
    6.4438   19.3413   -0.5598 C   0  0  0  0  0  0  0  0  0  0  0  0
    5.9933   18.6215   -1.7620 C   0  0  0  0  0  0  0  0  0  0  0  0
    7.5224   20.2072   -0.6212 C   0  0  0  0  0  0  0  0  0  0  0  0
   13.1123   25.7791   -1.7153 N   0  0  0  0  0  0  0  0  0  0  0  0
   13.4534   25.5267   -3.0562 C   0  0  0  0  0  0  0  0  0  0  0  0
   13.8518   24.3808   -3.3803 O   0  0  0  0  0  0  0  0  0  0  0  0
   12.7846   26.6914   -1.4043 H   0  0  0  0  0  0  0  0  0  0  0  0
   13.3381   26.6001   -4.0488 C   0  0  0  0  0  0  0  0  0  0  0  0
   14.3025   26.4980   -5.1454 C   0  0  0  0  0  0  0  0  0  0  0  0
   14.9654   27.6546   -5.5265 C   0  0  0  0  0  0  0  0  0  0  0  0
   15.8908   27.6536   -6.5528 C   0  0  0  0  0  0  0  0  0  0  0  0
   16.1876   26.5016   -7.2338 C   0  0  0  0  0  0  0  0  0  0  0  0
   15.5399   25.3455   -6.8691 C   0  0  0  0  0  0  0  0  0  0  0  0
   14.6084   25.3497   -5.8352 C   0  0  0  0  0  0  0  0  0  0  0  0
   14.5204   25.0466    0.0243 C   0  0  0  0  0  0  0  0  0  0  0  0
   15.6294   24.0838   -0.2418 C   0  0  0  0  0  0  0  0  0  0  0  0
   16.7626   24.6692   -1.0707 C   0  0  0  0  0  0  0  0  0  0  0  0
   16.4592   24.6261   -2.5282 C   0  0  0  0  0  0  0  0  0  0  0  0
   17.0129   27.0430   -2.6988 C   0  0  0  0  0  0  0  0  0  0  0  0
   16.4306   27.2759   -1.5777 O   0  0  0  0  0  0  0  0  0  0  0  0
   17.0658   25.7377   -3.2259 N   0  0  0  0  0  0  0  0  0  0  0  0
   17.5516   25.5402   -4.1472 H   0  0  0  0  0  0  0  0  0  0  0  0
   18.7777   28.0967   -3.9737 C   0  0  0  0  0  0  0  0  0  0  0  0
   17.6030   28.1566   -3.3880 C   0  0  0  0  0  0  0  0  0  0  0  0
 36 37  2  0  0  0
 37 32  1  0  0  0
 32 33  2  0  0  0
 32 34  1  0  0  0
 34 31  1  0  0  0
 31 30  1  0  0  0
 30 29  1  0  0  0
 29 28  1  0  0  0
 28  1  1  0  0  0
  1 17  1  0  0  0
 17 18  1  0  0  0
 18 19  2  0  0  0
 18 21  1  0  0  0
 21 22  1  0  0  0
 22 23  2  0  0  0
 23 24  1  0  0  0
 24 25  2  0  0  0
 25 26  1  0  0  0
 26 27  2  0  0  0
  1  2  1  0  0  0
  2  3  2  0  0  0
  2  4  1  0  0  0
  4  5  1  0  0  0
  5  6  1  0  0  0
  6  7  1  0  0  0
  7 10  1  0  0  0
 10 11  2  0  0  0
 11 12  1  0  0  0
 12 13  2  0  0  0
 13 14  1  0  0  0
 14 15  1  0  0  0
 14 16  2  0  0  0
  7  8  1  0  0  0
  8  9  1  0  0  0
 27 22  1  0  0  0
  9  4  1  0  0  0
 16 10  1  0  0  0
 34 35  1  0  0  0
 17 20  1  0  0  0
M  END
> <minimizedAffinity>
-4.28988

> <CNNscore>
0.3304208517

> <CNNaffinity>
6.9249649048

> <CNN_VS>
2.2881526947

> <CNNaffinity_variance>
0.1836110651

$$$$
[H]C([H])=C([H])C(=O)N([H])C([H])([H])C([H])([H])C([H])([H])C([H])([H])[C@@]([H])(C(=O)N1C([H])([H])C([H])([H])N(c2c([H])c([H])c([H])c(C([H])([H])[H])c2[H])C([H])([H])C1([H])[H])N([H])C(=O)C([H])([H])c1c([H])c([H])c([H])c([H])c1[H]


 37 39  0  0  0  0  0  0  0  0999 V2000
   11.6636   22.1238    1.0742 C   0  0  0  0  0  0  0  0  0  0  0  0
   11.6372   23.5504    0.7151 C   0  0  0  0  0  0  0  0  0  0  0  0
   10.9422   24.3369    1.4509 O   0  0  0  0  0  0  0  0  0  0  0  0
   12.3311   24.0955   -0.3832 N   0  0  0  0  0  0  0  0  0  0  0  0
   13.1529   23.2971   -1.2452 C   0  0  0  0  0  0  0  0  0  0  0  0
   14.3417   24.1388   -1.6970 C   0  0  0  0  0  0  0  0  0  0  0  0
   13.8066   25.2599   -2.4461 N   0  0  0  0  0  0  0  0  0  0  0  0
   12.4661   25.6916   -2.1878 C   0  0  0  0  0  0  0  0  0  0  0  0
   12.2415   25.5206   -0.6854 C   0  0  0  0  0  0  0  0  0  0  0  0
   14.6032   25.9242   -3.4140 C   0  0  0  0  0  0  0  0  0  0  0  0
   14.1772   25.8992   -4.7390 C   0  0  0  0  0  0  0  0  0  0  0  0
   14.9264   26.5384   -5.6936 C   0  0  0  0  0  0  0  0  0  0  0  0
   16.0827   27.2015   -5.3818 C   0  0  0  0  0  0  0  0  0  0  0  0
   16.5256   27.2415   -4.0813 C   0  0  0  0  0  0  0  0  0  0  0  0
   17.7646   27.9425   -3.7076 C   0  0  0  0  0  0  0  0  0  0  0  0
   15.7659   26.5951   -3.1210 C   0  0  0  0  0  0  0  0  0  0  0  0
   11.2683   21.9604    2.4949 N   0  0  0  0  0  0  0  0  0  0  0  0
   11.7532   20.8800    3.2538 C   0  0  0  0  0  0  0  0  0  0  0  0
   12.5273   20.0521    2.7133 O   0  0  0  0  0  0  0  0  0  0  0  0
   10.6389   22.6570    2.8885 H   0  0  0  0  0  0  0  0  0  0  0  0
   11.3496   20.7394    4.6566 C   0  0  0  0  0  0  0  0  0  0  0  0
    9.9459   21.0729    4.9046 C   0  0  0  0  0  0  0  0  0  0  0  0
    9.6394   22.3977    5.1755 C   0  0  0  0  0  0  0  0  0  0  0  0
    8.3422   22.8042    5.4240 C   0  0  0  0  0  0  0  0  0  0  0  0
    7.3068   21.9060    5.4110 C   0  0  0  0  0  0  0  0  0  0  0  0
    7.5925   20.5883    5.1441 C   0  0  0  0  0  0  0  0  0  0  0  0
    8.8998   20.1819    4.8943 C   0  0  0  0  0  0  0  0  0  0  0  0
   10.6108   21.3140    0.3280 C   0  0  0  0  0  0  0  0  0  0  0  0
    9.2752   21.9760    0.2534 C   0  0  0  0  0  0  0  0  0  0  0  0
    8.4489   21.8321    1.5224 C   0  0  0  0  0  0  0  0  0  0  0  0
    7.0425   21.4436    1.2237 C   0  0  0  0  0  0  0  0  0  0  0  0
    6.5995   19.6840   -0.4747 C   0  0  0  0  0  0  0  0  0  0  0  0
    6.4492   18.8031    0.4481 O   0  0  0  0  0  0  0  0  0  0  0  0
    6.8924   21.0235   -0.1516 N   0  0  0  0  0  0  0  0  0  0  0  0
    7.0101   21.7549   -0.9099 H   0  0  0  0  0  0  0  0  0  0  0  0
    7.2014   19.7170   -2.8171 C   0  0  0  0  0  0  0  0  0  0  0  0
    6.4583   19.2530   -1.8377 C   0  0  0  0  0  0  0  0  0  0  0  0
 36 37  2  0  0  0
 37 32  1  0  0  0
 32 33  2  0  0  0
 32 34  1  0  0  0
 34 31  1  0  0  0
 31 30  1  0  0  0
 30 29  1  0  0  0
 29 28  1  0  0  0
 28  1  1  0  0  0
  1 17  1  0  0  0
 17 18  1  0  0  0
 18 19  2  0  0  0
 18 21  1  0  0  0
 21 22  1  0  0  0
 22 23  2  0  0  0
 23 24  1  0  0  0
 24 25  2  0  0  0
 25 26  1  0  0  0
 26 27  2  0  0  0
  1  2  1  0  0  0
  2  3  2  0  0  0
  2  4  1  0  0  0
  4  5  1  0  0  0
  5  6  1  0  0  0
  6  7  1  0  0  0
  7 10  1  0  0  0
 10 11  2  0  0  0
 11 12  1  0  0  0
 12 13  2  0  0  0
 13 14  1  0  0  0
 14 15  1  0  0  0
 14 16  2  0  0  0
  7  8  1  0  0  0
  8  9  1  0  0  0
 27 22  1  0  0  0
  9  4  1  0  0  0
 16 10  1  0  0  0
 34 35  1  0  0  0
 17 20  1  0  0  0
M  END
> <minimizedAffinity>
-7.85506

> <CNNscore>
0.3037047982

> <CNNaffinity>
7.0222902298

> <CNN_VS>
2.1327033043

> <CNNaffinity_variance>
0.0423929021

$$$$
[H]C([H])=C([H])C(=O)N([H])C([H])([H])C([H])([H])C([H])([H])C([H])([H])[C@@]([H])(C(=O)N1C([H])([H])C([H])([H])N(c2c([H])c([H])c([H])c(C([H])([H])[H])c2[H])C([H])([H])C1([H])[H])N([H])C(=O)C([H])([H])c1c([H])c([H])c([H])c([H])c1[H]


 37 39  0  0  0  0  0  0  0  0999 V2000
   13.4047   22.1256    0.6094 C   0  0  0  0  0  0  0  0  0  0  0  0
   14.6487   22.8313    0.2637 C   0  0  0  0  0  0  0  0  0  0  0  0
   15.6667   22.6490    1.0208 O   0  0  0  0  0  0  0  0  0  0  0  0
   14.7817   23.6874   -0.8472 N   0  0  0  0  0  0  0  0  0  0  0  0
   13.7053   23.9306   -1.7625 C   0  0  0  0  0  0  0  0  0  0  0  0
   14.2885   24.1045   -3.1609 C   0  0  0  0  0  0  0  0  0  0  0  0
   15.1541   25.2677   -3.1171 N   0  0  0  0  0  0  0  0  0  0  0  0
   15.7287   25.6594   -1.8655 C   0  0  0  0  0  0  0  0  0  0  0  0
   16.0460   24.3661   -1.1148 C   0  0  0  0  0  0  0  0  0  0  0  0
   15.4342   26.0009   -4.2990 C   0  0  0  0  0  0  0  0  0  0  0  0
   15.8448   27.3242   -4.1646 C   0  0  0  0  0  0  0  0  0  0  0  0
   16.1270   28.0535   -5.2914 C   0  0  0  0  0  0  0  0  0  0  0  0
   16.0168   27.5181   -6.5464 C   0  0  0  0  0  0  0  0  0  0  0  0
   15.6135   26.2141   -6.7070 C   0  0  0  0  0  0  0  0  0  0  0  0
   15.4813   25.6040   -8.0399 C   0  0  0  0  0  0  0  0  0  0  0  0
   15.3300   25.4816   -5.5668 C   0  0  0  0  0  0  0  0  0  0  0  0
   12.2385   22.9825    0.2823 N   0  0  0  0  0  0  0  0  0  0  0  0
   11.4223   23.5019    1.3032 C   0  0  0  0  0  0  0  0  0  0  0  0
   11.6926   23.2310    2.4991 O   0  0  0  0  0  0  0  0  0  0  0  0
   12.0599   23.1740   -0.7015 H   0  0  0  0  0  0  0  0  0  0  0  0
   10.2754   24.3474    0.9559 C   0  0  0  0  0  0  0  0  0  0  0  0
    9.2359   24.3866    1.9859 C   0  0  0  0  0  0  0  0  0  0  0  0
    9.3017   25.4042    2.9253 C   0  0  0  0  0  0  0  0  0  0  0  0
    8.3650   25.5185    3.9350 C   0  0  0  0  0  0  0  0  0  0  0  0
    7.3318   24.6243    4.0434 C   0  0  0  0  0  0  0  0  0  0  0  0
    7.2511   23.6091    3.1203 C   0  0  0  0  0  0  0  0  0  0  0  0
    8.1958   23.4965    2.1047 C   0  0  0  0  0  0  0  0  0  0  0  0
   13.1762   20.8892   -0.2509 C   0  0  0  0  0  0  0  0  0  0  0  0
   11.7555   20.6892   -0.6623 C   0  0  0  0  0  0  0  0  0  0  0  0
   10.7842   20.6168    0.5060 C   0  0  0  0  0  0  0  0  0  0  0  0
   11.2482   19.6622    1.5508 C   0  0  0  0  0  0  0  0  0  0  0  0
   10.3598   20.7118    3.6212 C   0  0  0  0  0  0  0  0  0  0  0  0
    9.1538   20.4732    3.2484 O   0  0  0  0  0  0  0  0  0  0  0  0
   11.4517   20.3265    2.8188 N   0  0  0  0  0  0  0  0  0  0  0  0
   12.4486   20.5152    3.1262 H   0  0  0  0  0  0  0  0  0  0  0  0
    9.6384   22.1562    5.4221 C   0  0  0  0  0  0  0  0  0  0  0  0
   10.5495   21.3815    4.8777 C   0  0  0  0  0  0  0  0  0  0  0  0
 36 37  2  0  0  0
 37 32  1  0  0  0
 32 33  2  0  0  0
 32 34  1  0  0  0
 34 31  1  0  0  0
 31 30  1  0  0  0
 30 29  1  0  0  0
 29 28  1  0  0  0
 28  1  1  0  0  0
  1 17  1  0  0  0
 17 18  1  0  0  0
 18 19  2  0  0  0
 18 21  1  0  0  0
 21 22  1  0  0  0
 22 23  2  0  0  0
 23 24  1  0  0  0
 24 25  2  0  0  0
 25 26  1  0  0  0
 26 27  2  0  0  0
  1  2  1  0  0  0
  2  3  2  0  0  0
  2  4  1  0  0  0
  4  5  1  0  0  0
  5  6  1  0  0  0
  6  7  1  0  0  0
  7 10  1  0  0  0
 10 11  2  0  0  0
 11 12  1  0  0  0
 12 13  2  0  0  0
 13 14  1  0  0  0
 14 15  1  0  0  0
 14 16  2  0  0  0
  7  8  1  0  0  0
  8  9  1  0  0  0
 27 22  1  0  0  0
  9  4  1  0  0  0
 16 10  1  0  0  0
 34 35  1  0  0  0
 17 20  1  0  0  0
M  END
> <minimizedAffinity>
-6.66517

> <CNNscore>
0.2945775688

> <CNNaffinity>
7.4684991837

> <CNN_VS>
2.2000522614

> <CNNaffinity_variance>
0.1216508299

$$$$
[H]c1nc([H])c(N([H])c2c([H])c(-c3c([H])c([H])c4c([H])c(C#N)c([H])nn34)nc([H])c2C(=O)N([H])[C@]2([H])C([H])([H])C([H])([H])[C@@]([H])(N([H])C(=O)C3([H])C([H])([H])C3([H])[H])C([H])([H])C2([H])[H])c([H])c1[H]


 42 47  0  0  0  0  0  0  0  0999 V2000
   12.9425   25.0812   -2.5729 C   0  0  0  0  0  0  0  0  0  0  0  0
   13.3430   23.8297   -2.2114 C   0  0  0  0  0  0  0  0  0  0  0  0
   12.6674   22.9555   -1.3644 C   0  0  0  0  0  0  0  0  0  0  0  0
   11.4575   23.4227   -0.8408 C   0  0  0  0  0  0  0  0  0  0  0  0
   11.0343   24.7101   -1.2027 C   0  0  0  0  0  0  0  0  0  0  0  0
   11.7519   25.4798   -2.0250 N   0  0  0  0  0  0  0  0  0  0  0  0
   17.3847   27.5511   -3.6968 C   0  0  0  0  0  0  0  0  0  0  0  0
   17.0992   26.6828   -2.6753 C   0  0  0  0  0  0  0  0  0  0  0  0
   15.8706   26.1682   -2.5956 N   0  0  0  0  0  0  0  0  0  0  0  0
   14.8971   26.4436   -3.4485 N   0  0  0  0  0  0  0  0  0  0  0  0
   13.6478   25.9942   -3.4623 C   0  0  0  0  0  0  0  0  0  0  0  0
   13.0408   26.5983   -4.5714 C   0  0  0  0  0  0  0  0  0  0  0  0
   13.9655   27.4009   -5.1915 C   0  0  0  0  0  0  0  0  0  0  0  0
   15.1473   27.2900   -4.4600 C   0  0  0  0  0  0  0  0  0  0  0  0
   16.3917   27.8572   -4.6018 C   0  0  0  0  0  0  0  0  0  0  0  0
   19.7603   28.5682   -3.8615 N   0  0  0  0  0  0  0  0  0  0  0  0
   18.6961   28.1147   -3.7912 C   0  0  0  0  0  0  0  0  0  0  0  0
   10.6060   22.5935   -0.0291 C   0  0  0  0  0  0  0  0  0  0  0  0
   10.9812   22.2700    1.1511 O   0  0  0  0  0  0  0  0  0  0  0  0
    9.3566   22.1027   -0.4523 N   0  0  0  0  0  0  0  0  0  0  0  0
    9.0033   22.3439   -1.3959 H   0  0  0  0  0  0  0  0  0  0  0  0
    8.5940   21.2683    0.4639 C   0  0  0  0  0  0  0  0  0  0  0  0
    7.4180   22.1251    0.9429 C   0  0  0  0  0  0  0  0  0  0  0  0
    6.4647   21.2437    1.7419 C   0  0  0  0  0  0  0  0  0  0  0  0
    5.7572   20.3668    0.6981 C   0  0  0  0  0  0  0  0  0  0  0  0
    6.6216   20.1374   -0.4928 C   0  0  0  0  0  0  0  0  0  0  0  0
    8.1004   19.9894   -0.0974 C   0  0  0  0  0  0  0  0  0  0  0  0
    5.4533   19.1026    1.3525 N   0  0  0  0  0  0  0  0  0  0  0  0
    4.3731   18.3223    0.8910 C   0  0  0  0  0  0  0  0  0  0  0  0
    3.6664   18.7288   -0.0887 O   0  0  0  0  0  0  0  0  0  0  0  0
    6.0230   18.7700    2.1489 H   0  0  0  0  0  0  0  0  0  0  0  0
    4.0462   17.0345    1.5294 C   0  0  0  0  0  0  0  0  0  0  0  0
    4.9456   16.4513    2.5266 C   0  0  0  0  0  0  0  0  0  0  0  0
    5.0429   15.9274    1.1314 C   0  0  0  0  0  0  0  0  0  0  0  0
   13.2626   21.7518   -0.9848 N   0  0  0  0  0  0  0  0  0  0  0  0
   12.8579   20.8377   -1.2817 H   0  0  0  0  0  0  0  0  0  0  0  0
   14.3931   21.6601   -0.1474 C   0  0  0  0  0  0  0  0  0  0  0  0
   15.0188   20.4579    0.2080 C   0  0  0  0  0  0  0  0  0  0  0  0
   16.1163   20.4307    1.0292 C   0  0  0  0  0  0  0  0  0  0  0  0
   16.6169   21.6142    1.5177 C   0  0  0  0  0  0  0  0  0  0  0  0
   16.0408   22.7854    1.1979 N   0  0  0  0  0  0  0  0  0  0  0  0
   14.9740   22.8070    0.3983 C   0  0  0  0  0  0  0  0  0  0  0  0
 16 17  3  0  0  0
 17  7  1  0  0  0
  7  8  1  0  0  0
  8  9  2  0  0  0
  9 10  1  0  0  0
 10 11  1  0  0  0
 11  1  1  0  0  0
  1  2  2  0  0  0
  2  3  1  0  0  0
  3 35  1  0  0  0
 35 37  1  0  0  0
 37 38  2  0  0  0
 38 39  1  0  0  0
 39 40  2  0  0  0
 40 41  1  0  0  0
 41 42  2  0  0  0
  3  4  2  0  0  0
  4 18  1  0  0  0
 18 19  2  0  0  0
 18 20  1  0  0  0
 20 22  1  0  0  0
 22 23  1  0  0  0
 23 24  1  0  0  0
 24 25  1  0  0  0
 25 28  1  0  0  0
 28 29  1  0  0  0
 29 30  2  0  0  0
 29 32  1  0  0  0
 32 33  1  0  0  0
 33 34  1  0  0  0
 25 26  1  0  0  0
 26 27  1  0  0  0
  4  5  1  0  0  0
  5  6  2  0  0  0
 11 12  2  0  0  0
 12 13  1  0  0  0
 13 14  2  0  0  0
 14 15  1  0  0  0
 15  7  2  0  0  0
 14 10  1  0  0  0
  6  1  1  0  0  0
 42 37  1  0  0  0
 27 22  1  0  0  0
 34 32  1  0  0  0
 35 36  1  0  0  0
 20 21  1  0  0  0
 28 31  1  0  0  0
M  END
> <minimizedAffinity>
-5.54199

> <CNNscore>
0.5490692854

> <CNNaffinity>
8.1498298645

> <CNN_VS>
4.4748210907

> <CNNaffinity_variance>
1.1320993900

$$$$
[H]c1nc([H])c(N([H])c2c([H])c(-c3c([H])c([H])c4c([H])c(C#N)c([H])nn34)nc([H])c2C(=O)N([H])[C@]2([H])C([H])([H])C([H])([H])[C@@]([H])(N([H])C(=O)C3([H])C([H])([H])C3([H])[H])C([H])([H])C2([H])[H])c([H])c1[H]


 42 47  0  0  0  0  0  0  0  0999 V2000
   14.5120   26.6252   -4.2755 C   0  0  0  0  0  0  0  0  0  0  0  0
   13.3720   27.3116   -3.9812 C   0  0  0  0  0  0  0  0  0  0  0  0
   12.4225   26.9692   -3.0225 C   0  0  0  0  0  0  0  0  0  0  0  0
   12.6790   25.8018   -2.2962 C   0  0  0  0  0  0  0  0  0  0  0  0
   13.8478   25.0841   -2.5903 C   0  0  0  0  0  0  0  0  0  0  0  0
   14.7036   25.4912   -3.5312 N   0  0  0  0  0  0  0  0  0  0  0  0
   16.8114   25.4502   -8.7953 C   0  0  0  0  0  0  0  0  0  0  0  0
   15.8082   24.7977   -8.1270 C   0  0  0  0  0  0  0  0  0  0  0  0
   15.3764   25.3007   -6.9690 N   0  0  0  0  0  0  0  0  0  0  0  0
   15.8581   26.4021   -6.4160 N   0  0  0  0  0  0  0  0  0  0  0  0
   15.5074   26.9859   -5.2762 C   0  0  0  0  0  0  0  0  0  0  0  0
   16.3288   28.1152   -5.1612 C   0  0  0  0  0  0  0  0  0  0  0  0
   17.1552   28.1668   -6.2558 C   0  0  0  0  0  0  0  0  0  0  0  0
   16.8406   27.0634   -7.0480 C   0  0  0  0  0  0  0  0  0  0  0  0
   17.3334   26.6007   -8.2453 C   0  0  0  0  0  0  0  0  0  0  0  0
   17.6695   24.4931  -11.0432 N   0  0  0  0  0  0  0  0  0  0  0  0
   17.2880   24.9191  -10.0351 C   0  0  0  0  0  0  0  0  0  0  0  0
   11.8355   25.3776   -1.2098 C   0  0  0  0  0  0  0  0  0  0  0  0
   11.7991   26.0691   -0.1334 O   0  0  0  0  0  0  0  0  0  0  0  0
   11.0254   24.2273   -1.2503 N   0  0  0  0  0  0  0  0  0  0  0  0
   11.0121   23.6386   -2.1028 H   0  0  0  0  0  0  0  0  0  0  0  0
   10.2217   23.9051   -0.0810 C   0  0  0  0  0  0  0  0  0  0  0  0
    9.8459   22.4261   -0.2159 C   0  0  0  0  0  0  0  0  0  0  0  0
    9.1805   21.9709    1.0779 C   0  0  0  0  0  0  0  0  0  0  0  0
   10.3199   21.8714    2.1030 C   0  0  0  0  0  0  0  0  0  0  0  0
   11.4176   22.8272    1.7879 C   0  0  0  0  0  0  0  0  0  0  0  0
   10.8707   24.1510    1.2277 C   0  0  0  0  0  0  0  0  0  0  0  0
    9.7400   22.1790    3.4022 N   0  0  0  0  0  0  0  0  0  0  0  0
    9.5548   21.1455    4.3436 C   0  0  0  0  0  0  0  0  0  0  0  0
    9.8882   19.9505    4.0516 O   0  0  0  0  0  0  0  0  0  0  0  0
    9.4663   23.1468    3.6424 H   0  0  0  0  0  0  0  0  0  0  0  0
    8.9766   21.4282    5.6698 C   0  0  0  0  0  0  0  0  0  0  0  0
    9.2375   22.7056    6.3358 C   0  0  0  0  0  0  0  0  0  0  0  0
   10.0632   21.5352    6.7585 C   0  0  0  0  0  0  0  0  0  0  0  0
   11.2392   27.7017   -2.9193 N   0  0  0  0  0  0  0  0  0  0  0  0
   10.4069   27.3078   -2.4298 H   0  0  0  0  0  0  0  0  0  0  0  0
   11.0460   28.9739   -3.4954 C   0  0  0  0  0  0  0  0  0  0  0  0
   11.8014   30.1099   -3.1762 C   0  0  0  0  0  0  0  0  0  0  0  0
   11.5659   31.3233   -3.7691 C   0  0  0  0  0  0  0  0  0  0  0  0
   10.5616   31.4295   -4.7019 C   0  0  0  0  0  0  0  0  0  0  0  0
    9.8170   30.3604   -5.0311 N   0  0  0  0  0  0  0  0  0  0  0  0
   10.0501   29.1820   -4.4524 C   0  0  0  0  0  0  0  0  0  0  0  0
 16 17  3  0  0  0
 17  7  1  0  0  0
  7  8  1  0  0  0
  8  9  2  0  0  0
  9 10  1  0  0  0
 10 11  1  0  0  0
 11  1  1  0  0  0
  1  2  2  0  0  0
  2  3  1  0  0  0
  3 35  1  0  0  0
 35 37  1  0  0  0
 37 38  2  0  0  0
 38 39  1  0  0  0
 39 40  2  0  0  0
 40 41  1  0  0  0
 41 42  2  0  0  0
  3  4  2  0  0  0
  4 18  1  0  0  0
 18 19  2  0  0  0
 18 20  1  0  0  0
 20 22  1  0  0  0
 22 23  1  0  0  0
 23 24  1  0  0  0
 24 25  1  0  0  0
 25 28  1  0  0  0
 28 29  1  0  0  0
 29 30  2  0  0  0
 29 32  1  0  0  0
 32 33  1  0  0  0
 33 34  1  0  0  0
 25 26  1  0  0  0
 26 27  1  0  0  0
  4  5  1  0  0  0
  5  6  2  0  0  0
 11 12  2  0  0  0
 12 13  1  0  0  0
 13 14  2  0  0  0
 14 15  1  0  0  0
 15  7  2  0  0  0
 14 10  1  0  0  0
  6  1  1  0  0  0
 42 37  1  0  0  0
 27 22  1  0  0  0
 34 32  1  0  0  0
 35 36  1  0  0  0
 20 21  1  0  0  0
 28 31  1  0  0  0
M  END
> <minimizedAffinity>
27.79169

> <CNNscore>
0.5160608888

> <CNNaffinity>
7.1087751389

> <CNN_VS>
3.6685607433

> <CNNaffinity_variance>
0.8081493378

$$$$
[H]c1nc([H])c(N([H])c2c([H])c(-c3c([H])c([H])c4c([H])c(C#N)c([H])nn34)nc([H])c2C(=O)N([H])[C@]2([H])C([H])([H])C([H])([H])[C@@]([H])(N([H])C(=O)C3([H])C([H])([H])C3([H])[H])C([H])([H])C2([H])[H])c([H])c1[H]


 42 47  0  0  0  0  0  0  0  0999 V2000
   13.9943   26.2316   -3.0733 C   0  0  0  0  0  0  0  0  0  0  0  0
   14.4920   25.4134   -2.1036 C   0  0  0  0  0  0  0  0  0  0  0  0
   13.7764   24.8370   -1.0579 C   0  0  0  0  0  0  0  0  0  0  0  0
   12.4109   25.1363   -1.0121 C   0  0  0  0  0  0  0  0  0  0  0  0
   11.8857   25.9791   -2.0027 C   0  0  0  0  0  0  0  0  0  0  0  0
   12.6524   26.4873   -2.9709 N   0  0  0  0  0  0  0  0  0  0  0  0
   16.3381   25.5517   -7.6713 C   0  0  0  0  0  0  0  0  0  0  0  0
   15.6713   24.6478   -6.8857 C   0  0  0  0  0  0  0  0  0  0  0  0
   15.1446   25.0658   -5.7331 N   0  0  0  0  0  0  0  0  0  0  0  0
   15.2238   26.3111   -5.2927 N   0  0  0  0  0  0  0  0  0  0  0  0
   14.7427   26.8314   -4.1698 C   0  0  0  0  0  0  0  0  0  0  0  0
   15.1068   28.1843   -4.1935 C   0  0  0  0  0  0  0  0  0  0  0  0
   15.8045   28.4281   -5.3500 C   0  0  0  0  0  0  0  0  0  0  0  0
   15.8699   27.2191   -6.0412 C   0  0  0  0  0  0  0  0  0  0  0  0
   16.4370   26.8568   -7.2402 C   0  0  0  0  0  0  0  0  0  0  0  0
   17.3717   24.7605   -9.9098 N   0  0  0  0  0  0  0  0  0  0  0  0
   16.9126   25.1162   -8.9069 C   0  0  0  0  0  0  0  0  0  0  0  0
   11.5298   24.5361   -0.0452 C   0  0  0  0  0  0  0  0  0  0  0  0
   11.3850   25.0855    1.1017 O   0  0  0  0  0  0  0  0  0  0  0  0
   10.7956   23.3583   -0.2795 N   0  0  0  0  0  0  0  0  0  0  0  0
   10.8708   22.8803   -1.1956 H   0  0  0  0  0  0  0  0  0  0  0  0
    9.9427   22.8509    0.7846 C   0  0  0  0  0  0  0  0  0  0  0  0
    9.7782   21.3509    0.5209 C   0  0  0  0  0  0  0  0  0  0  0  0
    9.0686   20.7199    1.7134 C   0  0  0  0  0  0  0  0  0  0  0  0
   10.1177   20.6873    2.8347 C   0  0  0  0  0  0  0  0  0  0  0  0
   11.1032   21.7941    2.6875 C   0  0  0  0  0  0  0  0  0  0  0  0
   10.4374   23.0772    2.1624 C   0  0  0  0  0  0  0  0  0  0  0  0
    9.3916   20.8212    4.0892 N   0  0  0  0  0  0  0  0  0  0  0  0
   10.1066   21.0063    5.2906 C   0  0  0  0  0  0  0  0  0  0  0  0
   11.3804   21.0486    5.2737 O   0  0  0  0  0  0  0  0  0  0  0  0
    8.3584   20.7854    4.1075 H   0  0  0  0  0  0  0  0  0  0  0  0
    9.3981   21.1520    6.5749 C   0  0  0  0  0  0  0  0  0  0  0  0
    8.2457   22.0479    6.6890 C   0  0  0  0  0  0  0  0  0  0  0  0
    9.5629   22.5675    7.1638 C   0  0  0  0  0  0  0  0  0  0  0  0
   14.4463   24.1204   -0.0653 N   0  0  0  0  0  0  0  0  0  0  0  0
   14.8989   24.6110    0.7359 H   0  0  0  0  0  0  0  0  0  0  0  0
   14.6172   22.7210   -0.0817 C   0  0  0  0  0  0  0  0  0  0  0  0
   15.2652   21.9915    0.9238 C   0  0  0  0  0  0  0  0  0  0  0  0
   15.4031   20.6293    0.8523 C   0  0  0  0  0  0  0  0  0  0  0  0
   14.8925   19.9604   -0.2348 C   0  0  0  0  0  0  0  0  0  0  0  0
   14.2659   20.6289   -1.2178 N   0  0  0  0  0  0  0  0  0  0  0  0
   14.1335   21.9536   -1.1437 C   0  0  0  0  0  0  0  0  0  0  0  0
 16 17  3  0  0  0
 17  7  1  0  0  0
  7  8  1  0  0  0
  8  9  2  0  0  0
  9 10  1  0  0  0
 10 11  1  0  0  0
 11  1  1  0  0  0
  1  2  2  0  0  0
  2  3  1  0  0  0
  3 35  1  0  0  0
 35 37  1  0  0  0
 37 38  2  0  0  0
 38 39  1  0  0  0
 39 40  2  0  0  0
 40 41  1  0  0  0
 41 42  2  0  0  0
  3  4  2  0  0  0
  4 18  1  0  0  0
 18 19  2  0  0  0
 18 20  1  0  0  0
 20 22  1  0  0  0
 22 23  1  0  0  0
 23 24  1  0  0  0
 24 25  1  0  0  0
 25 28  1  0  0  0
 28 29  1  0  0  0
 29 30  2  0  0  0
 29 32  1  0  0  0
 32 33  1  0  0  0
 33 34  1  0  0  0
 25 26  1  0  0  0
 26 27  1  0  0  0
  4  5  1  0  0  0
  5  6  2  0  0  0
 11 12  2  0  0  0
 12 13  1  0  0  0
 13 14  2  0  0  0
 14 15  1  0  0  0
 15  7  2  0  0  0
 14 10  1  0  0  0
  6  1  1  0  0  0
 42 37  1  0  0  0
 27 22  1  0  0  0
 34 32  1  0  0  0
 35 36  1  0  0  0
 20 21  1  0  0  0
 28 31  1  0  0  0
M  END
> <minimizedAffinity>
0.04587

> <CNNscore>
0.5030510426

> <CNNaffinity>
7.9245519638

> <CNN_VS>
3.9864540100

> <CNNaffinity_variance>
0.2250855416

$$$$
[H]c1nc([H])c(N([H])c2c([H])c(-c3c([H])c([H])c4c([H])c(C#N)c([H])nn34)nc([H])c2C(=O)N([H])[C@]2([H])C([H])([H])C([H])([H])[C@@]([H])(N([H])C(=O)C3([H])C([H])([H])C3([H])[H])C([H])([H])C2([H])[H])c([H])c1[H]


 42 47  0  0  0  0  0  0  0  0999 V2000
   12.6902   25.4091   -2.0314 C   0  0  0  0  0  0  0  0  0  0  0  0
   13.5443   24.7435   -1.2038 C   0  0  0  0  0  0  0  0  0  0  0  0
   13.1984   24.0067   -0.0745 C   0  0  0  0  0  0  0  0  0  0  0  0
   11.8338   23.9529    0.2272 C   0  0  0  0  0  0  0  0  0  0  0  0
   10.9435   24.6353   -0.6148 C   0  0  0  0  0  0  0  0  0  0  0  0
   11.3692   25.3190   -1.6802 N   0  0  0  0  0  0  0  0  0  0  0  0
   15.4637   25.6377   -6.4305 C   0  0  0  0  0  0  0  0  0  0  0  0
   15.3804   24.6362   -5.4983 C   0  0  0  0  0  0  0  0  0  0  0  0
   14.5873   24.8102   -4.4394 N   0  0  0  0  0  0  0  0  0  0  0  0
   13.8661   25.8991   -4.2270 N   0  0  0  0  0  0  0  0  0  0  0  0
   13.0522   26.1768   -3.2153 C   0  0  0  0  0  0  0  0  0  0  0  0
   12.5453   27.4564   -3.4780 C   0  0  0  0  0  0  0  0  0  0  0  0
   13.0840   27.9053   -4.6579 C   0  0  0  0  0  0  0  0  0  0  0  0
   13.9264   26.8966   -5.1234 C   0  0  0  0  0  0  0  0  0  0  0  0
   14.7239   26.7841   -6.2378 C   0  0  0  0  0  0  0  0  0  0  0  0
   16.9979   25.3260   -8.4931 N   0  0  0  0  0  0  0  0  0  0  0  0
   16.3143   25.4670   -7.5679 C   0  0  0  0  0  0  0  0  0  0  0  0
   11.3217   23.1512    1.3075 C   0  0  0  0  0  0  0  0  0  0  0  0
   11.8775   22.0306    1.5788 O   0  0  0  0  0  0  0  0  0  0  0  0
   10.2260   23.5240    2.1083 N   0  0  0  0  0  0  0  0  0  0  0  0
    9.7472   24.4264    1.9353 H   0  0  0  0  0  0  0  0  0  0  0  0
    9.8029   22.6201    3.1671 C   0  0  0  0  0  0  0  0  0  0  0  0
    9.3679   23.5077    4.3374 C   0  0  0  0  0  0  0  0  0  0  0  0
    8.7177   22.6301    5.4010 C   0  0  0  0  0  0  0  0  0  0  0  0
    7.3469   22.2472    4.8236 C   0  0  0  0  0  0  0  0  0  0  0  0
    7.3756   22.2146    3.3350 C   0  0  0  0  0  0  0  0  0  0  0  0
    8.7171   21.6788    2.8074 C   0  0  0  0  0  0  0  0  0  0  0  0
    7.0256   20.9292    5.3515 N   0  0  0  0  0  0  0  0  0  0  0  0
    5.6779   20.5786    5.5743 C   0  0  0  0  0  0  0  0  0  0  0  0
    4.7514   21.4161    5.3199 O   0  0  0  0  0  0  0  0  0  0  0  0
    7.7743   20.2475    5.5610 H   0  0  0  0  0  0  0  0  0  0  0  0
    5.3220   19.2488    6.1012 C   0  0  0  0  0  0  0  0  0  0  0  0
    6.2498   18.1244    5.9658 C   0  0  0  0  0  0  0  0  0  0  0  0
    5.1383   18.2146    4.9724 C   0  0  0  0  0  0  0  0  0  0  0  0
   14.1954   23.4827    0.7494 N   0  0  0  0  0  0  0  0  0  0  0  0
   14.5789   24.0377    1.5447 H   0  0  0  0  0  0  0  0  0  0  0  0
   14.7967   22.2221    0.5566 C   0  0  0  0  0  0  0  0  0  0  0  0
   15.8892   21.7459    1.2932 C   0  0  0  0  0  0  0  0  0  0  0  0
   16.4338   20.5097    1.0591 C   0  0  0  0  0  0  0  0  0  0  0  0
   15.8942   19.7153    0.0753 C   0  0  0  0  0  0  0  0  0  0  0  0
   14.8467   20.1411   -0.6508 N   0  0  0  0  0  0  0  0  0  0  0  0
   14.3199   21.3439   -0.4192 C   0  0  0  0  0  0  0  0  0  0  0  0
 16 17  3  0  0  0
 17  7  1  0  0  0
  7  8  1  0  0  0
  8  9  2  0  0  0
  9 10  1  0  0  0
 10 11  1  0  0  0
 11  1  1  0  0  0
  1  2  2  0  0  0
  2  3  1  0  0  0
  3 35  1  0  0  0
 35 37  1  0  0  0
 37 38  2  0  0  0
 38 39  1  0  0  0
 39 40  2  0  0  0
 40 41  1  0  0  0
 41 42  2  0  0  0
  3  4  2  0  0  0
  4 18  1  0  0  0
 18 19  2  0  0  0
 18 20  1  0  0  0
 20 22  1  0  0  0
 22 23  1  0  0  0
 23 24  1  0  0  0
 24 25  1  0  0  0
 25 28  1  0  0  0
 28 29  1  0  0  0
 29 30  2  0  0  0
 29 32  1  0  0  0
 32 33  1  0  0  0
 33 34  1  0  0  0
 25 26  1  0  0  0
 26 27  1  0  0  0
  4  5  1  0  0  0
  5  6  2  0  0  0
 11 12  2  0  0  0
 12 13  1  0  0  0
 13 14  2  0  0  0
 14 15  1  0  0  0
 15  7  2  0  0  0
 14 10  1  0  0  0
  6  1  1  0  0  0
 42 37  1  0  0  0
 27 22  1  0  0  0
 34 32  1  0  0  0
 35 36  1  0  0  0
 20 21  1  0  0  0
 28 31  1  0  0  0
M  END
> <minimizedAffinity>
-2.02005

> <CNNscore>
0.4497255385

> <CNNaffinity>
7.6238570213

> <CNN_VS>
3.4286432266

> <CNNaffinity_variance>
0.5946544409

$$$$
[H]c1nc([H])c(N([H])c2c([H])c(-c3c([H])c([H])c4c([H])c(C#N)c([H])nn34)nc([H])c2C(=O)N([H])[C@]2([H])C([H])([H])C([H])([H])[C@@]([H])(N([H])C(=O)C3([H])C([H])([H])C3([H])[H])C([H])([H])C2([H])[H])c([H])c1[H]


 42 47  0  0  0  0  0  0  0  0999 V2000
   12.7075   23.5359    0.7711 C   0  0  0  0  0  0  0  0  0  0  0  0
   11.4846   24.1208    0.9121 C   0  0  0  0  0  0  0  0  0  0  0  0
   10.4393   23.6727    1.7148 C   0  0  0  0  0  0  0  0  0  0  0  0
   10.6843   22.5046    2.4439 C   0  0  0  0  0  0  0  0  0  0  0  0
   11.9380   21.8907    2.3065 C   0  0  0  0  0  0  0  0  0  0  0  0
   12.8832   22.3954    1.5093 N   0  0  0  0  0  0  0  0  0  0  0  0
   14.1553   25.9043   -3.6325 C   0  0  0  0  0  0  0  0  0  0  0  0
   12.8992   25.6321   -3.1562 C   0  0  0  0  0  0  0  0  0  0  0  0
   12.7796   25.0086   -1.9826 N   0  0  0  0  0  0  0  0  0  0  0  0
   13.8064   24.6310   -1.2381 N   0  0  0  0  0  0  0  0  0  0  0  0
   13.8027   24.0073   -0.0660 C   0  0  0  0  0  0  0  0  0  0  0  0
   15.1507   23.8444    0.2800 C   0  0  0  0  0  0  0  0  0  0  0  0
   15.9251   24.3863   -0.7152 C   0  0  0  0  0  0  0  0  0  0  0  0
   15.0489   24.8849   -1.6783 C   0  0  0  0  0  0  0  0  0  0  0  0
   15.2450   25.5242   -2.8797 C   0  0  0  0  0  0  0  0  0  0  0  0
   14.4072   27.1047   -5.9130 N   0  0  0  0  0  0  0  0  0  0  0  0
   14.2984   26.5674   -4.8919 C   0  0  0  0  0  0  0  0  0  0  0  0
    9.7319   21.9789    3.3863 C   0  0  0  0  0  0  0  0  0  0  0  0
   10.0917   21.7731    4.5973 O   0  0  0  0  0  0  0  0  0  0  0  0
    8.3978   21.6695    3.0616 N   0  0  0  0  0  0  0  0  0  0  0  0
    8.0546   21.8269    2.0968 H   0  0  0  0  0  0  0  0  0  0  0  0
    7.5362   21.1380    4.1068 C   0  0  0  0  0  0  0  0  0  0  0  0
    6.3031   22.0461    4.1461 C   0  0  0  0  0  0  0  0  0  0  0  0
    5.2670   21.4235    5.0749 C   0  0  0  0  0  0  0  0  0  0  0  0
    4.6998   20.2253    4.2993 C   0  0  0  0  0  0  0  0  0  0  0  0
    5.7051   19.6672    3.3529 C   0  0  0  0  0  0  0  0  0  0  0  0
    7.1258   19.7246    3.9390 C   0  0  0  0  0  0  0  0  0  0  0  0
    4.3291   19.2251    5.2899 N   0  0  0  0  0  0  0  0  0  0  0  0
    3.5702   18.1037    4.8959 C   0  0  0  0  0  0  0  0  0  0  0  0
    3.2080   17.9747    3.6807 O   0  0  0  0  0  0  0  0  0  0  0  0
    4.6193   19.3270    6.2771 H   0  0  0  0  0  0  0  0  0  0  0  0
    3.1863   17.0712    5.8754 C   0  0  0  0  0  0  0  0  0  0  0  0
    3.5013   17.2416    7.2950 C   0  0  0  0  0  0  0  0  0  0  0  0
    4.4183   16.3788    6.4919 C   0  0  0  0  0  0  0  0  0  0  0  0
    9.1973   24.3068    1.6617 N   0  0  0  0  0  0  0  0  0  0  0  0
    8.6022   24.2474    0.8073 H   0  0  0  0  0  0  0  0  0  0  0  0
    8.6741   25.1055    2.6989 C   0  0  0  0  0  0  0  0  0  0  0  0
    7.3278   25.1166    3.0866 C   0  0  0  0  0  0  0  0  0  0  0  0
    6.8761   25.9175    4.1035 C   0  0  0  0  0  0  0  0  0  0  0  0
    7.7671   26.7322    4.7609 C   0  0  0  0  0  0  0  0  0  0  0  0
    9.0654   26.7474    4.4142 N   0  0  0  0  0  0  0  0  0  0  0  0
    9.5004   25.9663    3.4251 C   0  0  0  0  0  0  0  0  0  0  0  0
 16 17  3  0  0  0
 17  7  1  0  0  0
  7  8  1  0  0  0
  8  9  2  0  0  0
  9 10  1  0  0  0
 10 11  1  0  0  0
 11  1  1  0  0  0
  1  2  2  0  0  0
  2  3  1  0  0  0
  3 35  1  0  0  0
 35 37  1  0  0  0
 37 38  2  0  0  0
 38 39  1  0  0  0
 39 40  2  0  0  0
 40 41  1  0  0  0
 41 42  2  0  0  0
  3  4  2  0  0  0
  4 18  1  0  0  0
 18 19  2  0  0  0
 18 20  1  0  0  0
 20 22  1  0  0  0
 22 23  1  0  0  0
 23 24  1  0  0  0
 24 25  1  0  0  0
 25 28  1  0  0  0
 28 29  1  0  0  0
 29 30  2  0  0  0
 29 32  1  0  0  0
 32 33  1  0  0  0
 33 34  1  0  0  0
 25 26  1  0  0  0
 26 27  1  0  0  0
  4  5  1  0  0  0
  5  6  2  0  0  0
 11 12  2  0  0  0
 12 13  1  0  0  0
 13 14  2  0  0  0
 14 15  1  0  0  0
 15  7  2  0  0  0
 14 10  1  0  0  0
  6  1  1  0  0  0
 42 37  1  0  0  0
 27 22  1  0  0  0
 34 32  1  0  0  0
 35 36  1  0  0  0
 20 21  1  0  0  0
 28 31  1  0  0  0
M  END
> <minimizedAffinity>
-7.09542

> <CNNscore>
0.4310646951

> <CNNaffinity>
7.4272031784

> <CNN_VS>
3.2016050816

> <CNNaffinity_variance>
0.6296522021

$$$$
[H]c1nc([H])c(N([H])c2c([H])c(-c3c([H])c([H])c4c([H])c(C#N)c([H])nn34)nc([H])c2C(=O)N([H])[C@]2([H])C([H])([H])C([H])([H])[C@@]([H])(N([H])C(=O)C3([H])C([H])([H])C3([H])[H])C([H])([H])C2([H])[H])c([H])c1[H]


 42 47  0  0  0  0  0  0  0  0999 V2000
   12.8484   25.0253   -2.3705 C   0  0  0  0  0  0  0  0  0  0  0  0
   13.2514   23.7746   -2.0091 C   0  0  0  0  0  0  0  0  0  0  0  0
   12.5916   22.9099   -1.1403 C   0  0  0  0  0  0  0  0  0  0  0  0
   11.3963   23.3867   -0.5924 C   0  0  0  0  0  0  0  0  0  0  0  0
   10.9707   24.6734   -0.9539 C   0  0  0  0  0  0  0  0  0  0  0  0
   11.6726   25.4337   -1.7982 N   0  0  0  0  0  0  0  0  0  0  0  0
   17.2845   27.4368   -3.6362 C   0  0  0  0  0  0  0  0  0  0  0  0
   17.0202   26.5731   -2.6052 C   0  0  0  0  0  0  0  0  0  0  0  0
   15.7882   26.0744   -2.4864 N   0  0  0  0  0  0  0  0  0  0  0  0
   14.7920   26.3617   -3.3086 N   0  0  0  0  0  0  0  0  0  0  0  0
   13.5371   25.9285   -3.2827 C   0  0  0  0  0  0  0  0  0  0  0  0
   12.9035   26.5394   -4.3730 C   0  0  0  0  0  0  0  0  0  0  0  0
   13.8185   27.3295   -5.0227 C   0  0  0  0  0  0  0  0  0  0  0  0
   15.0212   27.2039   -4.3285 C   0  0  0  0  0  0  0  0  0  0  0  0
   16.2677   27.7549   -4.5100 C   0  0  0  0  0  0  0  0  0  0  0  0
   19.6623   28.4325   -3.8807 N   0  0  0  0  0  0  0  0  0  0  0  0
   18.5995   27.9833   -3.7724 C   0  0  0  0  0  0  0  0  0  0  0  0
   10.5600   22.5674    0.2449 C   0  0  0  0  0  0  0  0  0  0  0  0
   10.5146   21.3038    0.0462 O   0  0  0  0  0  0  0  0  0  0  0  0
    9.7701   23.0713    1.2954 N   0  0  0  0  0  0  0  0  0  0  0  0
    9.7791   24.0863    1.5030 H   0  0  0  0  0  0  0  0  0  0  0  0
    8.9635   22.1364    2.0650 C   0  0  0  0  0  0  0  0  0  0  0  0
    9.7956   21.7690    3.2976 C   0  0  0  0  0  0  0  0  0  0  0  0
    8.9259   20.9563    4.2499 C   0  0  0  0  0  0  0  0  0  0  0  0
    7.9520   21.9697    4.8693 C   0  0  0  0  0  0  0  0  0  0  0  0
    7.6850   23.1025    3.9403 C   0  0  0  0  0  0  0  0  0  0  0  0
    7.6298   22.6322    2.4770 C   0  0  0  0  0  0  0  0  0  0  0  0
    6.7206   21.2463    5.1506 N   0  0  0  0  0  0  0  0  0  0  0  0
    6.0970   21.3963    6.4066 C   0  0  0  0  0  0  0  0  0  0  0  0
    6.6158   22.1561    7.2887 O   0  0  0  0  0  0  0  0  0  0  0  0
    6.2975   20.6274    4.4385 H   0  0  0  0  0  0  0  0  0  0  0  0
    4.8456   20.6820    6.7172 C   0  0  0  0  0  0  0  0  0  0  0  0
    3.8611   20.4187    5.6661 C   0  0  0  0  0  0  0  0  0  0  0  0
    3.6108   21.5914    6.5564 C   0  0  0  0  0  0  0  0  0  0  0  0
   13.1898   21.7061   -0.7657 N   0  0  0  0  0  0  0  0  0  0  0  0
   12.7477   20.7920   -1.0034 H   0  0  0  0  0  0  0  0  0  0  0  0
   14.3758   21.6164   -0.0086 C   0  0  0  0  0  0  0  0  0  0  0  0
   15.0367   20.4169    0.2869 C   0  0  0  0  0  0  0  0  0  0  0  0
   16.1880   20.3915    1.0310 C   0  0  0  0  0  0  0  0  0  0  0  0
   16.7085   21.5742    1.5003 C   0  0  0  0  0  0  0  0  0  0  0  0
   16.0997   22.7428    1.2364 N   0  0  0  0  0  0  0  0  0  0  0  0
   14.9806   22.7627    0.5118 C   0  0  0  0  0  0  0  0  0  0  0  0
 16 17  3  0  0  0
 17  7  1  0  0  0
  7  8  1  0  0  0
  8  9  2  0  0  0
  9 10  1  0  0  0
 10 11  1  0  0  0
 11  1  1  0  0  0
  1  2  2  0  0  0
  2  3  1  0  0  0
  3 35  1  0  0  0
 35 37  1  0  0  0
 37 38  2  0  0  0
 38 39  1  0  0  0
 39 40  2  0  0  0
 40 41  1  0  0  0
 41 42  2  0  0  0
  3  4  2  0  0  0
  4 18  1  0  0  0
 18 19  2  0  0  0
 18 20  1  0  0  0
 20 22  1  0  0  0
 22 23  1  0  0  0
 23 24  1  0  0  0
 24 25  1  0  0  0
 25 28  1  0  0  0
 28 29  1  0  0  0
 29 30  2  0  0  0
 29 32  1  0  0  0
 32 33  1  0  0  0
 33 34  1  0  0  0
 25 26  1  0  0  0
 26 27  1  0  0  0
  4  5  1  0  0  0
  5  6  2  0  0  0
 11 12  2  0  0  0
 12 13  1  0  0  0
 13 14  2  0  0  0
 14 15  1  0  0  0
 15  7  2  0  0  0
 14 10  1  0  0  0
  6  1  1  0  0  0
 42 37  1  0  0  0
 27 22  1  0  0  0
 34 32  1  0  0  0
 35 36  1  0  0  0
 20 21  1  0  0  0
 28 31  1  0  0  0
M  END
> <minimizedAffinity>
-4.98961

> <CNNscore>
0.3828128278

> <CNNaffinity>
7.7642960548

> <CNN_VS>
2.9722721577

> <CNNaffinity_variance>
0.6447341442

$$$$
[H]c1nc([H])c(N([H])c2c([H])c(-c3c([H])c([H])c4c([H])c(C#N)c([H])nn34)nc([H])c2C(=O)N([H])[C@]2([H])C([H])([H])C([H])([H])[C@@]([H])(N([H])C(=O)C3([H])C([H])([H])C3([H])[H])C([H])([H])C2([H])[H])c([H])c1[H]


 42 47  0  0  0  0  0  0  0  0999 V2000
   12.5427   24.8876   -2.3425 C   0  0  0  0  0  0  0  0  0  0  0  0
   13.0838   23.9186   -1.5516 C   0  0  0  0  0  0  0  0  0  0  0  0
   12.3881   22.9443   -0.8412 C   0  0  0  0  0  0  0  0  0  0  0  0
   10.9951   22.9758   -0.9623 C   0  0  0  0  0  0  0  0  0  0  0  0
   10.4245   23.9694   -1.7714 C   0  0  0  0  0  0  0  0  0  0  0  0
   11.1750   24.8655   -2.4173 N   0  0  0  0  0  0  0  0  0  0  0  0
   17.1157   27.1727   -3.3236 C   0  0  0  0  0  0  0  0  0  0  0  0
   16.8172   26.1386   -2.4748 C   0  0  0  0  0  0  0  0  0  0  0  0
   15.5532   25.7185   -2.3957 N   0  0  0  0  0  0  0  0  0  0  0  0
   14.5559   26.2402   -3.0915 N   0  0  0  0  0  0  0  0  0  0  0  0
   13.2712   25.9046   -3.0889 C   0  0  0  0  0  0  0  0  0  0  0  0
   12.6524   26.7703   -4.0005 C   0  0  0  0  0  0  0  0  0  0  0  0
   13.6062   27.6067   -4.5243 C   0  0  0  0  0  0  0  0  0  0  0  0
   14.8179   27.2537   -3.9319 C   0  0  0  0  0  0  0  0  0  0  0  0
   16.0986   27.7366   -4.0626 C   0  0  0  0  0  0  0  0  0  0  0  0
   19.5594   28.0118   -3.4950 N   0  0  0  0  0  0  0  0  0  0  0  0
   18.4657   27.6369   -3.4144 C   0  0  0  0  0  0  0  0  0  0  0  0
   10.1537   21.9737   -0.3625 C   0  0  0  0  0  0  0  0  0  0  0  0
   10.4554   20.7368   -0.4940 O   0  0  0  0  0  0  0  0  0  0  0  0
    8.9940   22.2665    0.3795 N   0  0  0  0  0  0  0  0  0  0  0  0
    8.7119   23.2530    0.5228 H   0  0  0  0  0  0  0  0  0  0  0  0
    8.2265   21.1598    0.9300 C   0  0  0  0  0  0  0  0  0  0  0  0
    7.5102   21.7108    2.1669 C   0  0  0  0  0  0  0  0  0  0  0  0
    6.5262   20.6608    2.6701 C   0  0  0  0  0  0  0  0  0  0  0  0
    5.3718   20.6731    1.6571 C   0  0  0  0  0  0  0  0  0  0  0  0
    5.8416   21.0829    0.3046 C   0  0  0  0  0  0  0  0  0  0  0  0
    7.2488   20.5388    0.0065 C   0  0  0  0  0  0  0  0  0  0  0  0
    4.8374   19.3196    1.6173 N   0  0  0  0  0  0  0  0  0  0  0  0
    5.2974   18.3625    2.5453 C   0  0  0  0  0  0  0  0  0  0  0  0
    6.1802   18.6835    3.4067 O   0  0  0  0  0  0  0  0  0  0  0  0
    4.1226   19.0546    0.9188 H   0  0  0  0  0  0  0  0  0  0  0  0
    4.7693   16.9863    2.5335 C   0  0  0  0  0  0  0  0  0  0  0  0
    5.5205   15.8981    3.1619 C   0  0  0  0  0  0  0  0  0  0  0  0
    5.6423   16.0441    1.6806 C   0  0  0  0  0  0  0  0  0  0  0  0
   13.0712   22.0937    0.0290 N   0  0  0  0  0  0  0  0  0  0  0  0
   14.0046   21.7047   -0.2258 H   0  0  0  0  0  0  0  0  0  0  0  0
   12.5573   21.6508    1.2649 C   0  0  0  0  0  0  0  0  0  0  0  0
   11.7862   22.4392    2.1291 C   0  0  0  0  0  0  0  0  0  0  0  0
   11.3145   21.9537    3.3213 C   0  0  0  0  0  0  0  0  0  0  0  0
   11.6057   20.6587    3.6796 C   0  0  0  0  0  0  0  0  0  0  0  0
   12.3436   19.8751    2.8749 N   0  0  0  0  0  0  0  0  0  0  0  0
   12.7996   20.3514    1.7160 C   0  0  0  0  0  0  0  0  0  0  0  0
 16 17  3  0  0  0
 17  7  1  0  0  0
  7  8  1  0  0  0
  8  9  2  0  0  0
  9 10  1  0  0  0
 10 11  1  0  0  0
 11  1  1  0  0  0
  1  2  2  0  0  0
  2  3  1  0  0  0
  3 35  1  0  0  0
 35 37  1  0  0  0
 37 38  2  0  0  0
 38 39  1  0  0  0
 39 40  2  0  0  0
 40 41  1  0  0  0
 41 42  2  0  0  0
  3  4  2  0  0  0
  4 18  1  0  0  0
 18 19  2  0  0  0
 18 20  1  0  0  0
 20 22  1  0  0  0
 22 23  1  0  0  0
 23 24  1  0  0  0
 24 25  1  0  0  0
 25 28  1  0  0  0
 28 29  1  0  0  0
 29 30  2  0  0  0
 29 32  1  0  0  0
 32 33  1  0  0  0
 33 34  1  0  0  0
 25 26  1  0  0  0
 26 27  1  0  0  0
  4  5  1  0  0  0
  5  6  2  0  0  0
 11 12  2  0  0  0
 12 13  1  0  0  0
 13 14  2  0  0  0
 14 15  1  0  0  0
 15  7  2  0  0  0
 14 10  1  0  0  0
  6  1  1  0  0  0
 42 37  1  0  0  0
 27 22  1  0  0  0
 34 32  1  0  0  0
 35 36  1  0  0  0
 20 21  1  0  0  0
 28 31  1  0  0  0
M  END
> <minimizedAffinity>
-4.80413

> <CNNscore>
0.3774260283

> <CNNaffinity>
7.4956903458

> <CNN_VS>
2.8290686607

> <CNNaffinity_variance>
0.7946439981

$$$$
[H]c1nc([H])c(N([H])c2c([H])c(-c3c([H])c([H])c4c([H])c(C#N)c([H])nn34)nc([H])c2C(=O)N([H])[C@]2([H])C([H])([H])C([H])([H])[C@@]([H])(N([H])C(=O)C3([H])C([H])([H])C3([H])[H])C([H])([H])C2([H])[H])c([H])c1[H]


 42 47  0  0  0  0  0  0  0  0999 V2000
   13.8997   25.0537   -2.2717 C   0  0  0  0  0  0  0  0  0  0  0  0
   12.5425   24.9326   -2.2431 C   0  0  0  0  0  0  0  0  0  0  0  0
   11.8017   24.1052   -1.4037 C   0  0  0  0  0  0  0  0  0  0  0  0
   12.5384   23.3274   -0.5047 C   0  0  0  0  0  0  0  0  0  0  0  0
   13.9364   23.4403   -0.5247 C   0  0  0  0  0  0  0  0  0  0  0  0
   14.5621   24.2643   -1.3691 N   0  0  0  0  0  0  0  0  0  0  0  0
   16.1873   25.6972   -6.9030 C   0  0  0  0  0  0  0  0  0  0  0  0
   15.4769   24.6303   -6.4174 C   0  0  0  0  0  0  0  0  0  0  0  0
   14.9771   24.7014   -5.1822 N   0  0  0  0  0  0  0  0  0  0  0  0
   15.1233   25.7472   -4.3848 N   0  0  0  0  0  0  0  0  0  0  0  0
   14.6744   25.9225   -3.1475 C   0  0  0  0  0  0  0  0  0  0  0  0
   15.1090   27.1984   -2.7647 C   0  0  0  0  0  0  0  0  0  0  0  0
   15.8142   27.7495   -3.8053 C   0  0  0  0  0  0  0  0  0  0  0  0
   15.8135   26.8077   -4.8333 C   0  0  0  0  0  0  0  0  0  0  0  0
   16.3562   26.8017   -6.0966 C   0  0  0  0  0  0  0  0  0  0  0  0
   17.1702   25.5832   -9.2960 N   0  0  0  0  0  0  0  0  0  0  0  0
   16.7335   25.6324   -8.2235 C   0  0  0  0  0  0  0  0  0  0  0  0
   11.9036   22.4987    0.4863 C   0  0  0  0  0  0  0  0  0  0  0  0
   11.1278   23.0341    1.3520 O   0  0  0  0  0  0  0  0  0  0  0  0
   12.0791   21.1047    0.5706 N   0  0  0  0  0  0  0  0  0  0  0  0
   12.6900   20.6220   -0.1130 H   0  0  0  0  0  0  0  0  0  0  0  0
   11.3835   20.3818    1.6244 C   0  0  0  0  0  0  0  0  0  0  0  0
   12.4614   19.9279    2.6137 C   0  0  0  0  0  0  0  0  0  0  0  0
   11.7795   19.3464    3.8468 C   0  0  0  0  0  0  0  0  0  0  0  0
   11.2093   20.5574    4.6000 C   0  0  0  0  0  0  0  0  0  0  0  0
   10.8798   21.6702    3.6668 C   0  0  0  0  0  0  0  0  0  0  0  0
   10.3277   21.1431    2.3316 C   0  0  0  0  0  0  0  0  0  0  0  0
   10.0080   20.0972    5.2811 N   0  0  0  0  0  0  0  0  0  0  0  0
    9.8537   18.7252    5.5687 C   0  0  0  0  0  0  0  0  0  0  0  0
   10.7597   17.8968    5.2263 O   0  0  0  0  0  0  0  0  0  0  0  0
    9.2696   20.7657    5.5588 H   0  0  0  0  0  0  0  0  0  0  0  0
    8.6513   18.2311    6.2636 C   0  0  0  0  0  0  0  0  0  0  0  0
    7.3521   18.8691    6.0432 C   0  0  0  0  0  0  0  0  0  0  0  0
    8.1058   19.2633    7.2708 C   0  0  0  0  0  0  0  0  0  0  0  0
   10.4213   23.9932   -1.5749 N   0  0  0  0  0  0  0  0  0  0  0  0
    9.8663   24.7794   -1.9767 H   0  0  0  0  0  0  0  0  0  0  0  0
    9.6661   22.8693   -1.1822 C   0  0  0  0  0  0  0  0  0  0  0  0
    9.7718   21.6012   -1.7684 C   0  0  0  0  0  0  0  0  0  0  0  0
    9.0083   20.5442   -1.3447 C   0  0  0  0  0  0  0  0  0  0  0  0
    8.1146   20.7327   -0.3172 C   0  0  0  0  0  0  0  0  0  0  0  0
    7.9869   21.9361    0.2671 N   0  0  0  0  0  0  0  0  0  0  0  0
    8.7320   22.9610   -0.1479 C   0  0  0  0  0  0  0  0  0  0  0  0
 16 17  3  0  0  0
 17  7  1  0  0  0
  7  8  1  0  0  0
  8  9  2  0  0  0
  9 10  1  0  0  0
 10 11  1  0  0  0
 11  1  1  0  0  0
  1  2  2  0  0  0
  2  3  1  0  0  0
  3 35  1  0  0  0
 35 37  1  0  0  0
 37 38  2  0  0  0
 38 39  1  0  0  0
 39 40  2  0  0  0
 40 41  1  0  0  0
 41 42  2  0  0  0
  3  4  2  0  0  0
  4 18  1  0  0  0
 18 19  2  0  0  0
 18 20  1  0  0  0
 20 22  1  0  0  0
 22 23  1  0  0  0
 23 24  1  0  0  0
 24 25  1  0  0  0
 25 28  1  0  0  0
 28 29  1  0  0  0
 29 30  2  0  0  0
 29 32  1  0  0  0
 32 33  1  0  0  0
 33 34  1  0  0  0
 25 26  1  0  0  0
 26 27  1  0  0  0
  4  5  1  0  0  0
  5  6  2  0  0  0
 11 12  2  0  0  0
 12 13  1  0  0  0
 13 14  2  0  0  0
 14 15  1  0  0  0
 15  7  2  0  0  0
 14 10  1  0  0  0
  6  1  1  0  0  0
 42 37  1  0  0  0
 27 22  1  0  0  0
 34 32  1  0  0  0
 35 36  1  0  0  0
 20 21  1  0  0  0
 28 31  1  0  0  0
M  END
> <minimizedAffinity>
-0.71537

> <CNNscore>
0.3386720717

> <CNNaffinity>
7.3671240807

> <CNN_VS>
2.4950392246

> <CNNaffinity_variance>
0.2304177582

$$$$
[H]c1nc([H])c(N([H])c2c([H])c(-c3c([H])c([H])c4c([H])c(C#N)c([H])nn34)nc([H])c2C(=O)N([H])[C@]2([H])C([H])([H])C([H])([H])[C@@]([H])(N([H])C(=O)C3([H])C([H])([H])C3([H])[H])C([H])([H])C2([H])[H])c([H])c1[H]


 42 47  0  0  0  0  0  0  0  0999 V2000
   14.1381   23.9920   -0.9055 C   0  0  0  0  0  0  0  0  0  0  0  0
   12.8180   24.2889   -0.7426 C   0  0  0  0  0  0  0  0  0  0  0  0
   11.8629   23.4992   -0.1086 C   0  0  0  0  0  0  0  0  0  0  0  0
   12.3196   22.2827    0.4087 C   0  0  0  0  0  0  0  0  0  0  0  0
   13.6757   21.9631    0.2462 C   0  0  0  0  0  0  0  0  0  0  0  0
   14.5210   22.7866   -0.3789 N   0  0  0  0  0  0  0  0  0  0  0  0
   15.6988   26.3257   -5.2889 C   0  0  0  0  0  0  0  0  0  0  0  0
   14.5818   25.5683   -5.0495 C   0  0  0  0  0  0  0  0  0  0  0  0
   14.3939   25.0719   -3.8251 N   0  0  0  0  0  0  0  0  0  0  0  0
   15.2249   25.2652   -2.8136 N   0  0  0  0  0  0  0  0  0  0  0  0
   15.1382   24.8204   -1.5656 C   0  0  0  0  0  0  0  0  0  0  0  0
   16.2754   25.3101   -0.9096 C   0  0  0  0  0  0  0  0  0  0  0  0
   17.0137   26.0430   -1.8049 C   0  0  0  0  0  0  0  0  0  0  0  0
   16.3271   26.0038   -3.0178 C   0  0  0  0  0  0  0  0  0  0  0  0
   16.5831   26.5456   -4.2553 C   0  0  0  0  0  0  0  0  0  0  0  0
   16.0846   27.2906   -7.6607 N   0  0  0  0  0  0  0  0  0  0  0  0
   15.9157   26.8595   -6.5982 C   0  0  0  0  0  0  0  0  0  0  0  0
   11.4672   21.4094    1.1719 C   0  0  0  0  0  0  0  0  0  0  0  0
   10.6268   20.6598    0.5636 O   0  0  0  0  0  0  0  0  0  0  0  0
   11.4956   21.3180    2.5761 N   0  0  0  0  0  0  0  0  0  0  0  0
   12.1648   21.8972    3.1147 H   0  0  0  0  0  0  0  0  0  0  0  0
   10.5764   20.3982    3.2288 C   0  0  0  0  0  0  0  0  0  0  0  0
   11.4160   19.5892    4.2224 C   0  0  0  0  0  0  0  0  0  0  0  0
   10.4792   18.7534    5.0870 C   0  0  0  0  0  0  0  0  0  0  0  0
    9.8134   19.7545    6.0428 C   0  0  0  0  0  0  0  0  0  0  0  0
    9.7190   21.1085    5.4299 C   0  0  0  0  0  0  0  0  0  0  0  0
    9.4282   21.0271    3.9220 C   0  0  0  0  0  0  0  0  0  0  0  0
    8.4837   19.2363    6.3296 N   0  0  0  0  0  0  0  0  0  0  0  0
    8.3471   17.9904    6.9761 C   0  0  0  0  0  0  0  0  0  0  0  0
    9.3840   17.3233    7.2991 O   0  0  0  0  0  0  0  0  0  0  0  0
    7.6399   19.7734    6.0675 H   0  0  0  0  0  0  0  0  0  0  0  0
    7.0136   17.4438    7.2857 C   0  0  0  0  0  0  0  0  0  0  0  0
    6.7675   16.0024    7.2129 C   0  0  0  0  0  0  0  0  0  0  0  0
    6.3436   16.8265    6.0418 C   0  0  0  0  0  0  0  0  0  0  0  0
   10.5197   23.8774   -0.1284 N   0  0  0  0  0  0  0  0  0  0  0  0
   10.0417   24.1071   -1.0263 H   0  0  0  0  0  0  0  0  0  0  0  0
    9.7270   24.0341    1.0268 C   0  0  0  0  0  0  0  0  0  0  0  0
    8.4354   23.5121    1.1767 C   0  0  0  0  0  0  0  0  0  0  0  0
    7.7103   23.6989    2.3251 C   0  0  0  0  0  0  0  0  0  0  0  0
    8.2642   24.4176    3.3578 C   0  0  0  0  0  0  0  0  0  0  0  0
    9.5003   24.9332    3.2475 N   0  0  0  0  0  0  0  0  0  0  0  0
   10.2022   24.7485    2.1289 C   0  0  0  0  0  0  0  0  0  0  0  0
 16 17  3  0  0  0
 17  7  1  0  0  0
  7  8  1  0  0  0
  8  9  2  0  0  0
  9 10  1  0  0  0
 10 11  1  0  0  0
 11  1  1  0  0  0
  1  2  2  0  0  0
  2  3  1  0  0  0
  3 35  1  0  0  0
 35 37  1  0  0  0
 37 38  2  0  0  0
 38 39  1  0  0  0
 39 40  2  0  0  0
 40 41  1  0  0  0
 41 42  2  0  0  0
  3  4  2  0  0  0
  4 18  1  0  0  0
 18 19  2  0  0  0
 18 20  1  0  0  0
 20 22  1  0  0  0
 22 23  1  0  0  0
 23 24  1  0  0  0
 24 25  1  0  0  0
 25 28  1  0  0  0
 28 29  1  0  0  0
 29 30  2  0  0  0
 29 32  1  0  0  0
 32 33  1  0  0  0
 33 34  1  0  0  0
 25 26  1  0  0  0
 26 27  1  0  0  0
  4  5  1  0  0  0
  5  6  2  0  0  0
 11 12  2  0  0  0
 12 13  1  0  0  0
 13 14  2  0  0  0
 14 15  1  0  0  0
 15  7  2  0  0  0
 14 10  1  0  0  0
  6  1  1  0  0  0
 42 37  1  0  0  0
 27 22  1  0  0  0
 34 32  1  0  0  0
 35 36  1  0  0  0
 20 21  1  0  0  0
 28 31  1  0  0  0
M  END
> <minimizedAffinity>
-7.68626

> <CNNscore>
0.3116817176

> <CNNaffinity>
7.5978660583

> <CNN_VS>
2.3681159019

> <CNNaffinity_variance>
0.2634421289

$$$$
[H]c1c([H])c([H])c(N2C(N3C([H])([H])C([H])([H])C([H])([H])C([H])([H])C3([H])[H])=Nc3c([H])c([H])c([H])c([H])c3C2([H])C([H])([H])C(=O)N([H])C([H])([H])c2c([H])c([H])c([H])c([H])c2[H])c([H])c1[H]


 34 38  0  0  0  0  0  0  0  0999 V2000
   12.9677   21.0442    1.9626 C   0  0  0  0  0  0  0  0  0  0  0  0
   11.8691   20.6430    2.8471 C   0  0  0  0  0  0  0  0  0  0  0  0
   11.8945   19.5346    3.6688 C   0  0  0  0  0  0  0  0  0  0  0  0
   10.8510   19.3330    4.5681 C   0  0  0  0  0  0  0  0  0  0  0  0
    9.7928   20.2035    4.6632 C   0  0  0  0  0  0  0  0  0  0  0  0
    9.7531   21.3040    3.8503 C   0  0  0  0  0  0  0  0  0  0  0  0
   10.8018   21.5214    2.9312 C   0  0  0  0  0  0  0  0  0  0  0  0
   10.6297   22.5587    1.9708 N   0  0  0  0  0  0  0  0  0  0  0  0
   11.4682   22.6881    0.9837 C   0  0  0  0  0  0  0  0  0  0  0  0
   12.5211   21.7528    0.8094 N   0  0  0  0  0  0  0  0  0  0  0  0
   11.2426   23.7533    0.0612 N   0  0  0  0  0  0  0  0  0  0  0  0
   11.9384   24.9891    0.2587 C   0  0  0  0  0  0  0  0  0  0  0  0
   12.3755   25.5878   -1.0916 C   0  0  0  0  0  0  0  0  0  0  0  0
   11.1096   25.7187   -1.9084 C   0  0  0  0  0  0  0  0  0  0  0  0
   10.6077   24.3555   -2.2326 C   0  0  0  0  0  0  0  0  0  0  0  0
   10.3247   23.5015   -1.0237 C   0  0  0  0  0  0  0  0  0  0  0  0
   13.0884   21.5459   -0.4681 C   0  0  0  0  0  0  0  0  0  0  0  0
   12.8914   20.3959   -1.1991 C   0  0  0  0  0  0  0  0  0  0  0  0
   13.4650   20.2321   -2.4371 C   0  0  0  0  0  0  0  0  0  0  0  0
   14.2595   21.1972   -3.0092 C   0  0  0  0  0  0  0  0  0  0  0  0
   14.4538   22.3464   -2.2738 C   0  0  0  0  0  0  0  0  0  0  0  0
   13.8919   22.5273   -1.0413 C   0  0  0  0  0  0  0  0  0  0  0  0
   14.1302   20.1568    1.8112 C   0  0  0  0  0  0  0  0  0  0  0  0
   16.0334   20.2217    0.3814 O   0  0  0  0  0  0  0  0  0  0  0  0
   15.3453   20.7960    1.2645 C   0  0  0  0  0  0  0  0  0  0  0  0
   15.7881   22.0777    1.7077 N   0  0  0  0  0  0  0  0  0  0  0  0
   15.2652   22.6164    2.4413 H   0  0  0  0  0  0  0  0  0  0  0  0
   16.9798   22.6660    1.1497 C   0  0  0  0  0  0  0  0  0  0  0  0
   16.6965   23.8357    0.2856 C   0  0  0  0  0  0  0  0  0  0  0  0
   17.4720   24.0550   -0.8246 C   0  0  0  0  0  0  0  0  0  0  0  0
   17.2448   25.1388   -1.6705 C   0  0  0  0  0  0  0  0  0  0  0  0
   16.2169   26.0183   -1.3927 C   0  0  0  0  0  0  0  0  0  0  0  0
   15.4321   25.7919   -0.2644 C   0  0  0  0  0  0  0  0  0  0  0  0
   15.6732   24.7038    0.5700 C   0  0  0  0  0  0  0  0  0  0  0  0
 24 25  2  0  0  0
 25 23  1  0  0  0
 23  1  1  0  0  0
  1  2  1  0  0  0
  2  3  2  0  0  0
  3  4  1  0  0  0
  4  5  2  0  0  0
  5  6  1  0  0  0
  6  7  2  0  0  0
  7  8  1  0  0  0
  8  9  2  0  0  0
  9 11  1  0  0  0
 11 12  1  0  0  0
 12 13  1  0  0  0
 13 14  1  0  0  0
 14 15  1  0  0  0
 15 16  1  0  0  0
  9 10  1  0  0  0
 10 17  1  0  0  0
 17 18  2  0  0  0
 18 19  1  0  0  0
 19 20  2  0  0  0
 20 21  1  0  0  0
 21 22  2  0  0  0
 25 26  1  0  0  0
 26 28  1  0  0  0
 28 29  1  0  0  0
 29 30  2  0  0  0
 30 31  1  0  0  0
 31 32  2  0  0  0
 32 33  1  0  0  0
 33 34  2  0  0  0
 10  1  1  0  0  0
 22 17  1  0  0  0
 34 29  1  0  0  0
  7  2  1  0  0  0
 16 11  1  0  0  0
 26 27  1  0  0  0
M  END
> <minimizedAffinity>
4.42758

> <CNNscore>
0.5905912519

> <CNNaffinity>
7.1754798889

> <CNN_VS>
4.2377758026

> <CNNaffinity_variance>
0.5270489454

$$$$
[H]c1c([H])c([H])c(N2C(N3C([H])([H])C([H])([H])C([H])([H])C([H])([H])C3([H])[H])=Nc3c([H])c([H])c([H])c([H])c3C2([H])C([H])([H])C(=O)N([H])C([H])([H])c2c([H])c([H])c([H])c([H])c2[H])c([H])c1[H]


 34 38  0  0  0  0  0  0  0  0999 V2000
   12.8177   24.8286   -0.7926 C   0  0  0  0  0  0  0  0  0  0  0  0
   13.0985   25.8839    0.1861 C   0  0  0  0  0  0  0  0  0  0  0  0
   12.7509   27.2096    0.0248 C   0  0  0  0  0  0  0  0  0  0  0  0
   12.9428   28.0945    1.0823 C   0  0  0  0  0  0  0  0  0  0  0  0
   13.4702   27.6898    2.2843 C   0  0  0  0  0  0  0  0  0  0  0  0
   13.8238   26.3787    2.4554 C   0  0  0  0  0  0  0  0  0  0  0  0
   13.6381   25.4693    1.3922 C   0  0  0  0  0  0  0  0  0  0  0  0
   14.1976   24.1676    1.5353 N   0  0  0  0  0  0  0  0  0  0  0  0
   14.2258   23.3481    0.5245 C   0  0  0  0  0  0  0  0  0  0  0  0
   13.7677   23.7669   -0.7517 N   0  0  0  0  0  0  0  0  0  0  0  0
   14.7930   22.0561    0.7376 N   0  0  0  0  0  0  0  0  0  0  0  0
   13.9516   20.9065    0.5935 C   0  0  0  0  0  0  0  0  0  0  0  0
   14.7200   19.7519   -0.0766 C   0  0  0  0  0  0  0  0  0  0  0  0
   15.9386   19.5173    0.7875 C   0  0  0  0  0  0  0  0  0  0  0  0
   16.8375   20.6984    0.6755 C   0  0  0  0  0  0  0  0  0  0  0  0
   16.1944   22.0003    1.0782 C   0  0  0  0  0  0  0  0  0  0  0  0
   14.2505   23.1429   -1.9240 C   0  0  0  0  0  0  0  0  0  0  0  0
   15.2841   23.6555   -2.6754 C   0  0  0  0  0  0  0  0  0  0  0  0
   15.7215   23.0195   -3.8124 C   0  0  0  0  0  0  0  0  0  0  0  0
   15.1574   21.8480   -4.2588 C   0  0  0  0  0  0  0  0  0  0  0  0
   14.1232   21.3389   -3.5034 C   0  0  0  0  0  0  0  0  0  0  0  0
   13.6746   21.9570   -2.3702 C   0  0  0  0  0  0  0  0  0  0  0  0
   12.2561   25.1925   -2.1018 C   0  0  0  0  0  0  0  0  0  0  0  0
   14.2709   26.3773   -2.5574 O   0  0  0  0  0  0  0  0  0  0  0  0
   13.1208   26.0444   -2.9447 C   0  0  0  0  0  0  0  0  0  0  0  0
   12.6964   26.5224   -4.2200 N   0  0  0  0  0  0  0  0  0  0  0  0
   11.7505   26.2858   -4.6086 H   0  0  0  0  0  0  0  0  0  0  0  0
   13.5701   27.3526   -5.0107 C   0  0  0  0  0  0  0  0  0  0  0  0
   14.4589   26.5711   -5.9020 C   0  0  0  0  0  0  0  0  0  0  0  0
   14.4571   26.8309   -7.2491 C   0  0  0  0  0  0  0  0  0  0  0  0
   15.2761   26.1259   -8.1289 C   0  0  0  0  0  0  0  0  0  0  0  0
   16.1126   25.1406   -7.6425 C   0  0  0  0  0  0  0  0  0  0  0  0
   16.1111   24.8800   -6.2741 C   0  0  0  0  0  0  0  0  0  0  0  0
   15.2863   25.5941   -5.4094 C   0  0  0  0  0  0  0  0  0  0  0  0
 24 25  2  0  0  0
 25 23  1  0  0  0
 23  1  1  0  0  0
  1  2  1  0  0  0
  2  3  2  0  0  0
  3  4  1  0  0  0
  4  5  2  0  0  0
  5  6  1  0  0  0
  6  7  2  0  0  0
  7  8  1  0  0  0
  8  9  2  0  0  0
  9 11  1  0  0  0
 11 12  1  0  0  0
 12 13  1  0  0  0
 13 14  1  0  0  0
 14 15  1  0  0  0
 15 16  1  0  0  0
  9 10  1  0  0  0
 10 17  1  0  0  0
 17 18  2  0  0  0
 18 19  1  0  0  0
 19 20  2  0  0  0
 20 21  1  0  0  0
 21 22  2  0  0  0
 25 26  1  0  0  0
 26 28  1  0  0  0
 28 29  1  0  0  0
 29 30  2  0  0  0
 30 31  1  0  0  0
 31 32  2  0  0  0
 32 33  1  0  0  0
 33 34  2  0  0  0
 10  1  1  0  0  0
 22 17  1  0  0  0
 34 29  1  0  0  0
  7  2  1  0  0  0
 16 11  1  0  0  0
 26 27  1  0  0  0
M  END
> <minimizedAffinity>
18.54919

> <CNNscore>
0.5866845250

> <CNNaffinity>
7.3572998047

> <CNN_VS>
4.3164138794

> <CNNaffinity_variance>
1.2671215534

$$$$
[H]c1c([H])c([H])c(N2C(N3C([H])([H])C([H])([H])C([H])([H])C([H])([H])C3([H])[H])=Nc3c([H])c([H])c([H])c([H])c3C2([H])C([H])([H])C(=O)N([H])C([H])([H])c2c([H])c([H])c([H])c([H])c2[H])c([H])c1[H]


 34 38  0  0  0  0  0  0  0  0999 V2000
   13.8486   25.1939   -4.7335 C   0  0  0  0  0  0  0  0  0  0  0  0
   14.9664   25.7136   -5.5277 C   0  0  0  0  0  0  0  0  0  0  0  0
   16.0737   24.9751   -5.8923 C   0  0  0  0  0  0  0  0  0  0  0  0
   17.0034   25.5330   -6.7657 C   0  0  0  0  0  0  0  0  0  0  0  0
   16.8544   26.7992   -7.2767 C   0  0  0  0  0  0  0  0  0  0  0  0
   15.7632   27.5440   -6.9191 C   0  0  0  0  0  0  0  0  0  0  0  0
   14.8128   26.9940   -6.0323 C   0  0  0  0  0  0  0  0  0  0  0  0
   13.8031   27.8632   -5.5293 N   0  0  0  0  0  0  0  0  0  0  0  0
   13.0148   27.4715   -4.5704 C   0  0  0  0  0  0  0  0  0  0  0  0
   13.1992   26.2022   -3.9633 N   0  0  0  0  0  0  0  0  0  0  0  0
   12.0193   28.3885   -4.1181 N   0  0  0  0  0  0  0  0  0  0  0  0
   12.3975   29.4020   -3.1800 C   0  0  0  0  0  0  0  0  0  0  0  0
   11.6831   30.7293   -3.4972 C   0  0  0  0  0  0  0  0  0  0  0  0
   10.2054   30.4081   -3.4928 C   0  0  0  0  0  0  0  0  0  0  0  0
    9.9065   29.5203   -4.6495 C   0  0  0  0  0  0  0  0  0  0  0  0
   10.6881   28.2319   -4.6530 C   0  0  0  0  0  0  0  0  0  0  0  0
   12.7508   25.9697   -2.6437 C   0  0  0  0  0  0  0  0  0  0  0  0
   13.3193   26.5685   -1.5418 C   0  0  0  0  0  0  0  0  0  0  0  0
   12.8558   26.3122   -0.2737 C   0  0  0  0  0  0  0  0  0  0  0  0
   11.8095   25.4525   -0.0366 C   0  0  0  0  0  0  0  0  0  0  0  0
   11.2440   24.8556   -1.1425 C   0  0  0  0  0  0  0  0  0  0  0  0
   11.6910   25.0980   -2.4109 C   0  0  0  0  0  0  0  0  0  0  0  0
   13.9437   23.8464   -4.1531 C   0  0  0  0  0  0  0  0  0  0  0  0
   15.7883   22.8078   -3.0624 O   0  0  0  0  0  0  0  0  0  0  0  0
   14.9061   23.7049   -3.0406 C   0  0  0  0  0  0  0  0  0  0  0  0
   14.8792   24.5681   -1.9052 N   0  0  0  0  0  0  0  0  0  0  0  0
   14.1721   25.3389   -1.8174 H   0  0  0  0  0  0  0  0  0  0  0  0
   15.8353   24.3956   -0.8403 C   0  0  0  0  0  0  0  0  0  0  0  0
   15.6324   23.1406   -0.0796 C   0  0  0  0  0  0  0  0  0  0  0  0
   16.5910   22.7332    0.8133 C   0  0  0  0  0  0  0  0  0  0  0  0
   16.4464   21.5623    1.5549 C   0  0  0  0  0  0  0  0  0  0  0  0
   15.3149   20.7872    1.3939 C   0  0  0  0  0  0  0  0  0  0  0  0
   14.3442   21.2045    0.4862 C   0  0  0  0  0  0  0  0  0  0  0  0
   14.5050   22.3772   -0.2466 C   0  0  0  0  0  0  0  0  0  0  0  0
 24 25  2  0  0  0
 25 23  1  0  0  0
 23  1  1  0  0  0
  1  2  1  0  0  0
  2  3  2  0  0  0
  3  4  1  0  0  0
  4  5  2  0  0  0
  5  6  1  0  0  0
  6  7  2  0  0  0
  7  8  1  0  0  0
  8  9  2  0  0  0
  9 11  1  0  0  0
 11 12  1  0  0  0
 12 13  1  0  0  0
 13 14  1  0  0  0
 14 15  1  0  0  0
 15 16  1  0  0  0
  9 10  1  0  0  0
 10 17  1  0  0  0
 17 18  2  0  0  0
 18 19  1  0  0  0
 19 20  2  0  0  0
 20 21  1  0  0  0
 21 22  2  0  0  0
 25 26  1  0  0  0
 26 28  1  0  0  0
 28 29  1  0  0  0
 29 30  2  0  0  0
 30 31  1  0  0  0
 31 32  2  0  0  0
 32 33  1  0  0  0
 33 34  2  0  0  0
 10  1  1  0  0  0
 22 17  1  0  0  0
 34 29  1  0  0  0
  7  2  1  0  0  0
 16 11  1  0  0  0
 26 27  1  0  0  0
M  END
> <minimizedAffinity>
21.18045

> <CNNscore>
0.5684312582

> <CNNaffinity>
7.3249654770

> <CNN_VS>
4.1637392044

> <CNNaffinity_variance>
1.2931435108

$$$$
[H]c1c([H])c([H])c(N2C(N3C([H])([H])C([H])([H])C([H])([H])C([H])([H])C3([H])[H])=Nc3c([H])c([H])c([H])c([H])c3C2([H])C([H])([H])C(=O)N([H])C([H])([H])c2c([H])c([H])c([H])c([H])c2[H])c([H])c1[H]


 34 38  0  0  0  0  0  0  0  0999 V2000
   11.9474   25.0224    0.3652 C   0  0  0  0  0  0  0  0  0  0  0  0
   10.8308   24.0719    0.3555 C   0  0  0  0  0  0  0  0  0  0  0  0
   10.4143   23.3468    1.4533 C   0  0  0  0  0  0  0  0  0  0  0  0
    9.2548   22.5818    1.3605 C   0  0  0  0  0  0  0  0  0  0  0  0
    8.5104   22.5240    0.2076 C   0  0  0  0  0  0  0  0  0  0  0  0
    8.9154   23.2345   -0.8899 C   0  0  0  0  0  0  0  0  0  0  0  0
   10.0903   24.0128   -0.8132 C   0  0  0  0  0  0  0  0  0  0  0  0
   10.5867   24.5747   -2.0240 N   0  0  0  0  0  0  0  0  0  0  0  0
   11.7581   25.1413   -2.0554 C   0  0  0  0  0  0  0  0  0  0  0  0
   12.5866   25.1406   -0.9032 N   0  0  0  0  0  0  0  0  0  0  0  0
   12.1923   25.6913   -3.2985 N   0  0  0  0  0  0  0  0  0  0  0  0
   11.8623   27.0521   -3.5977 C   0  0  0  0  0  0  0  0  0  0  0  0
   13.0330   27.7494   -4.3160 C   0  0  0  0  0  0  0  0  0  0  0  0
   13.3238   26.9048   -5.5362 C   0  0  0  0  0  0  0  0  0  0  0  0
   13.8680   25.5932   -5.0900 C   0  0  0  0  0  0  0  0  0  0  0  0
   12.9507   24.8279   -4.1716 C   0  0  0  0  0  0  0  0  0  0  0  0
   13.9894   25.2511   -1.0322 C   0  0  0  0  0  0  0  0  0  0  0  0
   14.6537   25.0280   -2.2173 C   0  0  0  0  0  0  0  0  0  0  0  0
   16.0207   25.1419   -2.2998 C   0  0  0  0  0  0  0  0  0  0  0  0
   16.7937   25.4815   -1.2147 C   0  0  0  0  0  0  0  0  0  0  0  0
   16.1243   25.7037   -0.0308 C   0  0  0  0  0  0  0  0  0  0  0  0
   14.7658   25.5952    0.0705 C   0  0  0  0  0  0  0  0  0  0  0  0
   12.7881   25.1324    1.5665 C   0  0  0  0  0  0  0  0  0  0  0  0
   15.0542   24.8937    2.2583 O   0  0  0  0  0  0  0  0  0  0  0  0
   14.1558   24.5892    1.4315 C   0  0  0  0  0  0  0  0  0  0  0  0
   14.5156   23.7057    0.3708 N   0  0  0  0  0  0  0  0  0  0  0  0
   13.8195   23.4075   -0.3560 H   0  0  0  0  0  0  0  0  0  0  0  0
   15.8616   23.1990    0.2742 C   0  0  0  0  0  0  0  0  0  0  0  0
   15.9131   21.7348    0.0533 C   0  0  0  0  0  0  0  0  0  0  0  0
   15.4952   21.2211   -1.1481 C   0  0  0  0  0  0  0  0  0  0  0  0
   15.5262   19.8521   -1.4063 C   0  0  0  0  0  0  0  0  0  0  0  0
   15.9868   18.9843   -0.4358 C   0  0  0  0  0  0  0  0  0  0  0  0
   16.4100   19.5102    0.7827 C   0  0  0  0  0  0  0  0  0  0  0  0
   16.3721   20.8808    1.0237 C   0  0  0  0  0  0  0  0  0  0  0  0
 24 25  2  0  0  0
 25 23  1  0  0  0
 23  1  1  0  0  0
  1  2  1  0  0  0
  2  3  2  0  0  0
  3  4  1  0  0  0
  4  5  2  0  0  0
  5  6  1  0  0  0
  6  7  2  0  0  0
  7  8  1  0  0  0
  8  9  2  0  0  0
  9 11  1  0  0  0
 11 12  1  0  0  0
 12 13  1  0  0  0
 13 14  1  0  0  0
 14 15  1  0  0  0
 15 16  1  0  0  0
  9 10  1  0  0  0
 10 17  1  0  0  0
 17 18  2  0  0  0
 18 19  1  0  0  0
 19 20  2  0  0  0
 20 21  1  0  0  0
 21 22  2  0  0  0
 25 26  1  0  0  0
 26 28  1  0  0  0
 28 29  1  0  0  0
 29 30  2  0  0  0
 30 31  1  0  0  0
 31 32  2  0  0  0
 32 33  1  0  0  0
 33 34  2  0  0  0
 10  1  1  0  0  0
 22 17  1  0  0  0
 34 29  1  0  0  0
  7  2  1  0  0  0
 16 11  1  0  0  0
 26 27  1  0  0  0
M  END
> <minimizedAffinity>
23.52205

> <CNNscore>
0.5566414595

> <CNNaffinity>
7.1603493690

> <CNN_VS>
3.9857473373

> <CNNaffinity_variance>
1.1291749477

$$$$
[H]c1c([H])c([H])c(N2C(N3C([H])([H])C([H])([H])C([H])([H])C([H])([H])C3([H])[H])=Nc3c([H])c([H])c([H])c([H])c3C2([H])C([H])([H])C(=O)N([H])C([H])([H])c2c([H])c([H])c([H])c([H])c2[H])c([H])c1[H]


 34 38  0  0  0  0  0  0  0  0999 V2000
   13.5338   25.1365   -0.5025 C   0  0  0  0  0  0  0  0  0  0  0  0
   12.1764   24.6197   -0.7040 C   0  0  0  0  0  0  0  0  0  0  0  0
   11.4879   23.8563    0.2167 C   0  0  0  0  0  0  0  0  0  0  0  0
   10.1535   23.5419   -0.0254 C   0  0  0  0  0  0  0  0  0  0  0  0
    9.4983   23.9669   -1.1553 C   0  0  0  0  0  0  0  0  0  0  0  0
   10.1712   24.7204   -2.0788 C   0  0  0  0  0  0  0  0  0  0  0  0
   11.5253   25.0455   -1.8497 C   0  0  0  0  0  0  0  0  0  0  0  0
   12.2445   25.6558   -2.9167 N   0  0  0  0  0  0  0  0  0  0  0  0
   13.5347   25.8088   -2.8386 C   0  0  0  0  0  0  0  0  0  0  0  0
   14.2510   25.3029   -1.7229 N   0  0  0  0  0  0  0  0  0  0  0  0
   14.1930   26.4349   -3.9391 N   0  0  0  0  0  0  0  0  0  0  0  0
   14.9087   27.6529   -3.7059 C   0  0  0  0  0  0  0  0  0  0  0  0
   16.2087   27.6854   -4.5316 C   0  0  0  0  0  0  0  0  0  0  0  0
   15.7836   27.4877   -5.9693 C   0  0  0  0  0  0  0  0  0  0  0  0
   15.2588   26.1036   -6.1258 C   0  0  0  0  0  0  0  0  0  0  0  0
   14.0965   25.7816   -5.2224 C   0  0  0  0  0  0  0  0  0  0  0  0
   15.6217   24.9803   -1.8408 C   0  0  0  0  0  0  0  0  0  0  0  0
   16.1515   24.3482   -2.9433 C   0  0  0  0  0  0  0  0  0  0  0  0
   17.4906   24.0483   -3.0170 C   0  0  0  0  0  0  0  0  0  0  0  0
   18.3672   24.3592   -2.0046 C   0  0  0  0  0  0  0  0  0  0  0  0
   17.8322   24.9916   -0.9033 C   0  0  0  0  0  0  0  0  0  0  0  0
   16.5035   25.2980   -0.8119 C   0  0  0  0  0  0  0  0  0  0  0  0
   14.2938   24.7187    0.6848 C   0  0  0  0  0  0  0  0  0  0  0  0
   13.3963   22.9791    2.0409 O   0  0  0  0  0  0  0  0  0  0  0  0
   14.1313   23.3018    1.0718 C   0  0  0  0  0  0  0  0  0  0  0  0
   14.7919   22.2481    0.3729 N   0  0  0  0  0  0  0  0  0  0  0  0
   15.4205   22.4408   -0.4453 H   0  0  0  0  0  0  0  0  0  0  0  0
   14.6076   20.8787    0.7834 C   0  0  0  0  0  0  0  0  0  0  0  0
   13.1819   20.4802    0.8421 C   0  0  0  0  0  0  0  0  0  0  0  0
   12.4477   20.4370   -0.3161 C   0  0  0  0  0  0  0  0  0  0  0  0
   11.1044   20.0661   -0.3147 C   0  0  0  0  0  0  0  0  0  0  0  0
   10.4892   19.7325    0.8759 C   0  0  0  0  0  0  0  0  0  0  0  0
   11.2384   19.7778    2.0494 C   0  0  0  0  0  0  0  0  0  0  0  0
   12.5796   20.1506    2.0296 C   0  0  0  0  0  0  0  0  0  0  0  0
 24 25  2  0  0  0
 25 23  1  0  0  0
 23  1  1  0  0  0
  1  2  1  0  0  0
  2  3  2  0  0  0
  3  4  1  0  0  0
  4  5  2  0  0  0
  5  6  1  0  0  0
  6  7  2  0  0  0
  7  8  1  0  0  0
  8  9  2  0  0  0
  9 11  1  0  0  0
 11 12  1  0  0  0
 12 13  1  0  0  0
 13 14  1  0  0  0
 14 15  1  0  0  0
 15 16  1  0  0  0
  9 10  1  0  0  0
 10 17  1  0  0  0
 17 18  2  0  0  0
 18 19  1  0  0  0
 19 20  2  0  0  0
 20 21  1  0  0  0
 21 22  2  0  0  0
 25 26  1  0  0  0
 26 28  1  0  0  0
 28 29  1  0  0  0
 29 30  2  0  0  0
 30 31  1  0  0  0
 31 32  2  0  0  0
 32 33  1  0  0  0
 33 34  2  0  0  0
 10  1  1  0  0  0
 22 17  1  0  0  0
 34 29  1  0  0  0
  7  2  1  0  0  0
 16 11  1  0  0  0
 26 27  1  0  0  0
M  END
> <minimizedAffinity>
5.04843

> <CNNscore>
0.5297700167

> <CNNaffinity>
7.4934396744

> <CNN_VS>
3.9697997570

> <CNNaffinity_variance>
0.6705228686

$$$$
[H]c1c([H])c([H])c(N2C(N3C([H])([H])C([H])([H])C([H])([H])C([H])([H])C3([H])[H])=Nc3c([H])c([H])c([H])c([H])c3C2([H])C([H])([H])C(=O)N([H])C([H])([H])c2c([H])c([H])c([H])c([H])c2[H])c([H])c1[H]


 34 38  0  0  0  0  0  0  0  0999 V2000
   10.6255   22.2462    2.8878 C   0  0  0  0  0  0  0  0  0  0  0  0
    9.5510   22.8954    3.6456 C   0  0  0  0  0  0  0  0  0  0  0  0
    8.8644   22.3049    4.6869 C   0  0  0  0  0  0  0  0  0  0  0  0
    7.9624   23.0679    5.4235 C   0  0  0  0  0  0  0  0  0  0  0  0
    7.7318   24.3931    5.1455 C   0  0  0  0  0  0  0  0  0  0  0  0
    8.4027   24.9893    4.1121 C   0  0  0  0  0  0  0  0  0  0  0  0
    9.3185   24.2290    3.3538 C   0  0  0  0  0  0  0  0  0  0  0  0
    9.8447   24.8224    2.1710 N   0  0  0  0  0  0  0  0  0  0  0  0
   10.5425   24.1125    1.3324 C   0  0  0  0  0  0  0  0  0  0  0  0
   10.7250   22.7218    1.5479 N   0  0  0  0  0  0  0  0  0  0  0  0
   11.0472   24.7702    0.1709 N   0  0  0  0  0  0  0  0  0  0  0  0
   12.2122   25.5925    0.3014 C   0  0  0  0  0  0  0  0  0  0  0  0
   13.1286   25.4344   -0.9265 C   0  0  0  0  0  0  0  0  0  0  0  0
   12.2686   25.7725   -2.1235 C   0  0  0  0  0  0  0  0  0  0  0  0
   11.2287   24.7186   -2.2769 C   0  0  0  0  0  0  0  0  0  0  0  0
   10.3433   24.5488   -1.0695 C   0  0  0  0  0  0  0  0  0  0  0  0
   10.9916   21.8595    0.4606 C   0  0  0  0  0  0  0  0  0  0  0  0
   12.1019   21.9873   -0.3435 C   0  0  0  0  0  0  0  0  0  0  0  0
   12.3225   21.1297   -1.3944 C   0  0  0  0  0  0  0  0  0  0  0  0
   11.4559   20.1067   -1.6986 C   0  0  0  0  0  0  0  0  0  0  0  0
   10.3462   19.9829   -0.8910 C   0  0  0  0  0  0  0  0  0  0  0  0
   10.1099   20.8259    0.1582 C   0  0  0  0  0  0  0  0  0  0  0  0
   10.9227   20.8272    3.1327 C   0  0  0  0  0  0  0  0  0  0  0  0
   12.6223   19.1831    2.8511 O   0  0  0  0  0  0  0  0  0  0  0  0
   12.2504   20.3716    2.6705 C   0  0  0  0  0  0  0  0  0  0  0  0
   13.1599   21.2476    2.0068 N   0  0  0  0  0  0  0  0  0  0  0  0
   12.9189   22.2523    1.8213 H   0  0  0  0  0  0  0  0  0  0  0  0
   14.4466   20.7638    1.5728 C   0  0  0  0  0  0  0  0  0  0  0  0
   15.3760   21.8539    1.1948 C   0  0  0  0  0  0  0  0  0  0  0  0
   14.9060   22.9141    0.4618 C   0  0  0  0  0  0  0  0  0  0  0  0
   15.7388   23.9654    0.0834 C   0  0  0  0  0  0  0  0  0  0  0  0
   17.0701   23.9482    0.4503 C   0  0  0  0  0  0  0  0  0  0  0  0
   17.5430   22.8698    1.1944 C   0  0  0  0  0  0  0  0  0  0  0  0
   16.6969   21.8278    1.5638 C   0  0  0  0  0  0  0  0  0  0  0  0
 24 25  2  0  0  0
 25 23  1  0  0  0
 23  1  1  0  0  0
  1  2  1  0  0  0
  2  3  2  0  0  0
  3  4  1  0  0  0
  4  5  2  0  0  0
  5  6  1  0  0  0
  6  7  2  0  0  0
  7  8  1  0  0  0
  8  9  2  0  0  0
  9 11  1  0  0  0
 11 12  1  0  0  0
 12 13  1  0  0  0
 13 14  1  0  0  0
 14 15  1  0  0  0
 15 16  1  0  0  0
  9 10  1  0  0  0
 10 17  1  0  0  0
 17 18  2  0  0  0
 18 19  1  0  0  0
 19 20  2  0  0  0
 20 21  1  0  0  0
 21 22  2  0  0  0
 25 26  1  0  0  0
 26 28  1  0  0  0
 28 29  1  0  0  0
 29 30  2  0  0  0
 30 31  1  0  0  0
 31 32  2  0  0  0
 32 33  1  0  0  0
 33 34  2  0  0  0
 10  1  1  0  0  0
 22 17  1  0  0  0
 34 29  1  0  0  0
  7  2  1  0  0  0
 16 11  1  0  0  0
 26 27  1  0  0  0
M  END
> <minimizedAffinity>
-0.54943

> <CNNscore>
0.5149953365

> <CNNaffinity>
6.9647536278

> <CNN_VS>
3.5868155956

> <CNNaffinity_variance>
0.2683934271

$$$$
[H]c1c([H])c([H])c(N2C(N3C([H])([H])C([H])([H])C([H])([H])C([H])([H])C3([H])[H])=Nc3c([H])c([H])c([H])c([H])c3C2([H])C([H])([H])C(=O)N([H])C([H])([H])c2c([H])c([H])c([H])c([H])c2[H])c([H])c1[H]


 34 38  0  0  0  0  0  0  0  0999 V2000
   12.7998   24.0041   -1.8103 C   0  0  0  0  0  0  0  0  0  0  0  0
   13.6013   23.3061   -0.8000 C   0  0  0  0  0  0  0  0  0  0  0  0
   13.1143   22.8651    0.4136 C   0  0  0  0  0  0  0  0  0  0  0  0
   13.9324   22.0906    1.2315 C   0  0  0  0  0  0  0  0  0  0  0  0
   15.2132   21.7513    0.8693 C   0  0  0  0  0  0  0  0  0  0  0  0
   15.7099   22.1866   -0.3295 C   0  0  0  0  0  0  0  0  0  0  0  0
   14.8943   22.9751   -1.1692 C   0  0  0  0  0  0  0  0  0  0  0  0
   15.5065   23.5725   -2.3077 N   0  0  0  0  0  0  0  0  0  0  0  0
   14.8629   24.4565   -3.0137 C   0  0  0  0  0  0  0  0  0  0  0  0
   13.5720   24.8911   -2.6155 N   0  0  0  0  0  0  0  0  0  0  0  0
   15.5310   25.0103   -4.1465 N   0  0  0  0  0  0  0  0  0  0  0  0
   15.4518   24.3150   -5.3958 C   0  0  0  0  0  0  0  0  0  0  0  0
   15.3180   25.3105   -6.5636 C   0  0  0  0  0  0  0  0  0  0  0  0
   16.5087   26.2356   -6.4494 C   0  0  0  0  0  0  0  0  0  0  0  0
   16.3572   27.0586   -5.2184 C   0  0  0  0  0  0  0  0  0  0  0  0
   16.2397   26.2522   -3.9509 C   0  0  0  0  0  0  0  0  0  0  0  0
   13.0919   26.1598   -3.0113 C   0  0  0  0  0  0  0  0  0  0  0  0
   12.7144   26.4494   -4.3033 C   0  0  0  0  0  0  0  0  0  0  0  0
   12.2562   27.6982   -4.6483 C   0  0  0  0  0  0  0  0  0  0  0  0
   12.1503   28.7179   -3.7322 C   0  0  0  0  0  0  0  0  0  0  0  0
   12.5294   28.4232   -2.4405 C   0  0  0  0  0  0  0  0  0  0  0  0
   12.9874   27.1876   -2.0786 C   0  0  0  0  0  0  0  0  0  0  0  0
   11.4212   24.4002   -1.4872 C   0  0  0  0  0  0  0  0  0  0  0  0
    9.6742   23.7650    0.0012 O   0  0  0  0  0  0  0  0  0  0  0  0
   10.6432   23.4072   -0.7175 C   0  0  0  0  0  0  0  0  0  0  0  0
   10.9513   22.0147   -0.7538 N   0  0  0  0  0  0  0  0  0  0  0  0
   11.7452   21.6424   -1.3307 H   0  0  0  0  0  0  0  0  0  0  0  0
   10.1682   21.0786    0.0131 C   0  0  0  0  0  0  0  0  0  0  0  0
    9.1032   20.4269   -0.7844 C   0  0  0  0  0  0  0  0  0  0  0  0
    9.0592   20.6299   -2.1405 C   0  0  0  0  0  0  0  0  0  0  0  0
    8.0796   20.0378   -2.9352 C   0  0  0  0  0  0  0  0  0  0  0  0
    7.1263   19.2258   -2.3528 C   0  0  0  0  0  0  0  0  0  0  0  0
    7.1747   19.0225   -0.9756 C   0  0  0  0  0  0  0  0  0  0  0  0
    8.1605   19.6221   -0.1967 C   0  0  0  0  0  0  0  0  0  0  0  0
 24 25  2  0  0  0
 25 23  1  0  0  0
 23  1  1  0  0  0
  1  2  1  0  0  0
  2  3  2  0  0  0
  3  4  1  0  0  0
  4  5  2  0  0  0
  5  6  1  0  0  0
  6  7  2  0  0  0
  7  8  1  0  0  0
  8  9  2  0  0  0
  9 11  1  0  0  0
 11 12  1  0  0  0
 12 13  1  0  0  0
 13 14  1  0  0  0
 14 15  1  0  0  0
 15 16  1  0  0  0
  9 10  1  0  0  0
 10 17  1  0  0  0
 17 18  2  0  0  0
 18 19  1  0  0  0
 19 20  2  0  0  0
 20 21  1  0  0  0
 21 22  2  0  0  0
 25 26  1  0  0  0
 26 28  1  0  0  0
 28 29  1  0  0  0
 29 30  2  0  0  0
 30 31  1  0  0  0
 31 32  2  0  0  0
 32 33  1  0  0  0
 33 34  2  0  0  0
 10  1  1  0  0  0
 22 17  1  0  0  0
 34 29  1  0  0  0
  7  2  1  0  0  0
 16 11  1  0  0  0
 26 27  1  0  0  0
M  END
> <minimizedAffinity>
6.88189

> <CNNscore>
0.5066024065

> <CNNaffinity>
7.4404172897

> <CNN_VS>
3.7693333626

> <CNNaffinity_variance>
0.7283421755

$$$$
[H]c1c([H])c([H])c(N2C(N3C([H])([H])C([H])([H])C([H])([H])C([H])([H])C3([H])[H])=Nc3c([H])c([H])c([H])c([H])c3C2([H])C([H])([H])C(=O)N([H])C([H])([H])c2c([H])c([H])c([H])c([H])c2[H])c([H])c1[H]


 34 38  0  0  0  0  0  0  0  0999 V2000
   12.4340   23.0569   -1.5088 C   0  0  0  0  0  0  0  0  0  0  0  0
   13.0766   22.2248   -0.4866 C   0  0  0  0  0  0  0  0  0  0  0  0
   12.4438   21.7519    0.6450 C   0  0  0  0  0  0  0  0  0  0  0  0
   13.1141   20.8547    1.4719 C   0  0  0  0  0  0  0  0  0  0  0  0
   14.3895   20.4246    1.1980 C   0  0  0  0  0  0  0  0  0  0  0  0
   15.0302   20.8900    0.0815 C   0  0  0  0  0  0  0  0  0  0  0  0
   14.3655   21.8022   -0.7658 C   0  0  0  0  0  0  0  0  0  0  0  0
   15.1288   22.4142   -1.8006 N   0  0  0  0  0  0  0  0  0  0  0  0
   14.6304   23.3971   -2.4932 C   0  0  0  0  0  0  0  0  0  0  0  0
   13.3498   23.9205   -2.1774 N   0  0  0  0  0  0  0  0  0  0  0  0
   15.4450   23.9603   -3.5207 N   0  0  0  0  0  0  0  0  0  0  0  0
   15.4299   23.3524   -4.8170 C   0  0  0  0  0  0  0  0  0  0  0  0
   15.4870   24.4255   -5.9206 C   0  0  0  0  0  0  0  0  0  0  0  0
   16.7312   25.2367   -5.6365 C   0  0  0  0  0  0  0  0  0  0  0  0
   16.5293   25.9925   -4.3702 C   0  0  0  0  0  0  0  0  0  0  0  0
   16.2283   25.1228   -3.1770 C   0  0  0  0  0  0  0  0  0  0  0  0
   13.0175   25.2506   -2.5197 C   0  0  0  0  0  0  0  0  0  0  0  0
   12.9868   25.7055   -3.8188 C   0  0  0  0  0  0  0  0  0  0  0  0
   12.6624   27.0090   -4.1093 C   0  0  0  0  0  0  0  0  0  0  0  0
   12.3538   27.9223   -3.1292 C   0  0  0  0  0  0  0  0  0  0  0  0
   12.3860   27.4622   -1.8305 C   0  0  0  0  0  0  0  0  0  0  0  0
   12.7061   26.1700   -1.5223 C   0  0  0  0  0  0  0  0  0  0  0  0
   11.0699   23.5549   -1.2780 C   0  0  0  0  0  0  0  0  0  0  0  0
   11.5695   25.1070    0.4576 O   0  0  0  0  0  0  0  0  0  0  0  0
   10.8381   24.1695    0.0458 C   0  0  0  0  0  0  0  0  0  0  0  0
    9.7874   23.7334    0.9066 N   0  0  0  0  0  0  0  0  0  0  0  0
    9.1375   22.9568    0.6307 H   0  0  0  0  0  0  0  0  0  0  0  0
    9.5958   24.3588    2.1912 C   0  0  0  0  0  0  0  0  0  0  0  0
    8.8248   23.5159    3.1346 C   0  0  0  0  0  0  0  0  0  0  0  0
    7.9312   22.5993    2.6412 C   0  0  0  0  0  0  0  0  0  0  0  0
    7.1840   21.7812    3.4863 C   0  0  0  0  0  0  0  0  0  0  0  0
    7.3398   21.8886    4.8543 C   0  0  0  0  0  0  0  0  0  0  0  0
    8.2481   22.8206    5.3510 C   0  0  0  0  0  0  0  0  0  0  0  0
    8.9865   23.6300    4.4920 C   0  0  0  0  0  0  0  0  0  0  0  0
 24 25  2  0  0  0
 25 23  1  0  0  0
 23  1  1  0  0  0
  1  2  1  0  0  0
  2  3  2  0  0  0
  3  4  1  0  0  0
  4  5  2  0  0  0
  5  6  1  0  0  0
  6  7  2  0  0  0
  7  8  1  0  0  0
  8  9  2  0  0  0
  9 11  1  0  0  0
 11 12  1  0  0  0
 12 13  1  0  0  0
 13 14  1  0  0  0
 14 15  1  0  0  0
 15 16  1  0  0  0
  9 10  1  0  0  0
 10 17  1  0  0  0
 17 18  2  0  0  0
 18 19  1  0  0  0
 19 20  2  0  0  0
 20 21  1  0  0  0
 21 22  2  0  0  0
 25 26  1  0  0  0
 26 28  1  0  0  0
 28 29  1  0  0  0
 29 30  2  0  0  0
 30 31  1  0  0  0
 31 32  2  0  0  0
 32 33  1  0  0  0
 33 34  2  0  0  0
 10  1  1  0  0  0
 22 17  1  0  0  0
 34 29  1  0  0  0
  7  2  1  0  0  0
 16 11  1  0  0  0
 26 27  1  0  0  0
M  END
> <minimizedAffinity>
3.20506

> <CNNscore>
0.5058017373

> <CNNaffinity>
7.4477500916

> <CNN_VS>
3.7670848370

> <CNNaffinity_variance>
0.5963376760

$$$$
[H]c1c([H])c([H])c(N2C(N3C([H])([H])C([H])([H])C([H])([H])C([H])([H])C3([H])[H])=Nc3c([H])c([H])c([H])c([H])c3C2([H])C([H])([H])C(=O)N([H])C([H])([H])c2c([H])c([H])c([H])c([H])c2[H])c([H])c1[H]


 34 38  0  0  0  0  0  0  0  0999 V2000
   12.8739   24.0977   -0.9422 C   0  0  0  0  0  0  0  0  0  0  0  0
   14.2977   24.1654   -0.5978 C   0  0  0  0  0  0  0  0  0  0  0  0
   15.3067   24.4307   -1.5011 C   0  0  0  0  0  0  0  0  0  0  0  0
   16.6058   24.6097   -1.0334 C   0  0  0  0  0  0  0  0  0  0  0  0
   16.9169   24.5290    0.3020 C   0  0  0  0  0  0  0  0  0  0  0  0
   15.9261   24.2614    1.2077 C   0  0  0  0  0  0  0  0  0  0  0  0
   14.6043   24.0746    0.7496 C   0  0  0  0  0  0  0  0  0  0  0  0
   13.6433   23.6040    1.6892 N   0  0  0  0  0  0  0  0  0  0  0  0
   12.4603   23.2340    1.2921 C   0  0  0  0  0  0  0  0  0  0  0  0
   12.1378   23.2241   -0.0898 N   0  0  0  0  0  0  0  0  0  0  0  0
   11.5423   22.7801    2.2859 N   0  0  0  0  0  0  0  0  0  0  0  0
   10.4999   23.6653    2.7107 C   0  0  0  0  0  0  0  0  0  0  0  0
    9.1894   22.8894    2.9417 C   0  0  0  0  0  0  0  0  0  0  0  0
    9.5262   21.8099    3.9456 C   0  0  0  0  0  0  0  0  0  0  0  0
   10.4479   20.8327    3.3044 C   0  0  0  0  0  0  0  0  0  0  0  0
   11.7275   21.4408    2.7909 C   0  0  0  0  0  0  0  0  0  0  0  0
   11.1241   22.3708   -0.5806 C   0  0  0  0  0  0  0  0  0  0  0  0
    9.8218   22.7797   -0.7614 C   0  0  0  0  0  0  0  0  0  0  0  0
    8.8641   21.9167   -1.2375 C   0  0  0  0  0  0  0  0  0  0  0  0
    9.1497   20.6103   -1.5567 C   0  0  0  0  0  0  0  0  0  0  0  0
   10.4544   20.2058   -1.3740 C   0  0  0  0  0  0  0  0  0  0  0  0
   11.4202   21.0493   -0.9017 C   0  0  0  0  0  0  0  0  0  0  0  0
   12.4708   24.1739   -2.3542 C   0  0  0  0  0  0  0  0  0  0  0  0
   12.5759   26.5354   -2.6425 O   0  0  0  0  0  0  0  0  0  0  0  0
   12.8982   25.3956   -3.0674 C   0  0  0  0  0  0  0  0  0  0  0  0
   13.6858   25.3393   -4.2555 N   0  0  0  0  0  0  0  0  0  0  0  0
   13.9922   24.4244   -4.6689 H   0  0  0  0  0  0  0  0  0  0  0  0
   14.0808   26.5549   -4.9219 C   0  0  0  0  0  0  0  0  0  0  0  0
   15.3853   27.0748   -4.4497 C   0  0  0  0  0  0  0  0  0  0  0  0
   15.9431   28.1602   -5.0764 C   0  0  0  0  0  0  0  0  0  0  0  0
   17.1664   28.6887   -4.6688 C   0  0  0  0  0  0  0  0  0  0  0  0
   17.8404   28.1128   -3.6100 C   0  0  0  0  0  0  0  0  0  0  0  0
   17.2705   27.0109   -2.9766 C   0  0  0  0  0  0  0  0  0  0  0  0
   16.0473   26.4958   -3.3970 C   0  0  0  0  0  0  0  0  0  0  0  0
 24 25  2  0  0  0
 25 23  1  0  0  0
 23  1  1  0  0  0
  1  2  1  0  0  0
  2  3  2  0  0  0
  3  4  1  0  0  0
  4  5  2  0  0  0
  5  6  1  0  0  0
  6  7  2  0  0  0
  7  8  1  0  0  0
  8  9  2  0  0  0
  9 11  1  0  0  0
 11 12  1  0  0  0
 12 13  1  0  0  0
 13 14  1  0  0  0
 14 15  1  0  0  0
 15 16  1  0  0  0
  9 10  1  0  0  0
 10 17  1  0  0  0
 17 18  2  0  0  0
 18 19  1  0  0  0
 19 20  2  0  0  0
 20 21  1  0  0  0
 21 22  2  0  0  0
 25 26  1  0  0  0
 26 28  1  0  0  0
 28 29  1  0  0  0
 29 30  2  0  0  0
 30 31  1  0  0  0
 31 32  2  0  0  0
 32 33  1  0  0  0
 33 34  2  0  0  0
 10  1  1  0  0  0
 22 17  1  0  0  0
 34 29  1  0  0  0
  7  2  1  0  0  0
 16 11  1  0  0  0
 26 27  1  0  0  0
M  END
> <minimizedAffinity>
-1.89284

> <CNNscore>
0.4992439449

> <CNNaffinity>
7.4793763161

> <CNN_VS>
3.7340333462

> <CNNaffinity_variance>
0.6266306043

$$$$
[H]c1c([H])c([H])c(C([H])(N2C([H])([H])C([H])([H])N(C([H])([H])C#N)C([H])([H])C2([H])[H])C([H])([H])OC([H])([H])c2c([H])c(C(F)(F)F)c([H])c(C(F)(F)F)c2[H])c([H])c1[H]


 33 35  0  0  0  0  0  0  0  0999 V2000
   14.9179   25.1210   -5.5679 C   0  0  0  0  0  0  0  0  0  0  0  0
   14.2431   24.1187   -4.6935 C   0  0  0  0  0  0  0  0  0  0  0  0
   13.6245   25.3753   -0.7248 N   0  0  0  0  0  0  0  0  0  0  0  0
   14.5005   24.2880   -0.9722 C   0  0  0  0  0  0  0  0  0  0  0  0
   14.1968   23.6155   -2.3082 C   0  0  0  0  0  0  0  0  0  0  0  0
   14.1659   24.5615   -3.3608 N   0  0  0  0  0  0  0  0  0  0  0  0
   13.4641   25.7776   -3.1442 C   0  0  0  0  0  0  0  0  0  0  0  0
   12.7689   25.7124   -1.8109 C   0  0  0  0  0  0  0  0  0  0  0  0
   13.1135   25.5330    0.5851 C   0  0  0  0  0  0  0  0  0  0  0  0
   10.9195   24.0662    0.8214 N   0  0  0  0  0  0  0  0  0  0  0  0
   11.8913   24.7251    0.7241 C   0  0  0  0  0  0  0  0  0  0  0  0
   14.8788   22.7915   -4.8873 C   0  0  0  0  0  0  0  0  0  0  0  0
   14.1863   21.6011   -4.9104 C   0  0  0  0  0  0  0  0  0  0  0  0
   14.8216   20.3826   -5.0548 C   0  0  0  0  0  0  0  0  0  0  0  0
   16.1880   20.3000   -5.1829 C   0  0  0  0  0  0  0  0  0  0  0  0
   16.9008   21.4852   -5.1649 C   0  0  0  0  0  0  0  0  0  0  0  0
   16.2503   22.6972   -5.0185 C   0  0  0  0  0  0  0  0  0  0  0  0
   15.3454   24.6430   -6.8040 O   0  0  0  0  0  0  0  0  0  0  0  0
   15.6883   25.8253   -7.5082 C   0  0  0  0  0  0  0  0  0  0  0  0
   16.0260   26.9479   -6.6558 C   0  0  0  0  0  0  0  0  0  0  0  0
   15.8846   28.2661   -7.1430 C   0  0  0  0  0  0  0  0  0  0  0  0
   16.1788   29.3644   -6.3943 C   0  0  0  0  0  0  0  0  0  0  0  0
   16.6334   29.2024   -5.1090 C   0  0  0  0  0  0  0  0  0  0  0  0
   16.7776   27.9262   -4.6188 C   0  0  0  0  0  0  0  0  0  0  0  0
   16.4795   26.7895   -5.3738 C   0  0  0  0  0  0  0  0  0  0  0  0
   16.0313   30.7587   -6.9097 C   0  0  0  0  0  0  0  0  0  0  0  0
   14.9459   31.3799   -6.3928 F   0  0  0  0  0  0  0  0  0  0  0  0
   15.9780   30.6496   -8.2922 F   0  0  0  0  0  0  0  0  0  0  0  0
   17.2180   31.4163   -6.6250 F   0  0  0  0  0  0  0  0  0  0  0  0
   17.2658   27.8076   -3.2078 C   0  0  0  0  0  0  0  0  0  0  0  0
   16.8862   28.9408   -2.4762 F   0  0  0  0  0  0  0  0  0  0  0  0
   16.6399   26.7174   -2.6613 F   0  0  0  0  0  0  0  0  0  0  0  0
   18.6379   27.6987   -3.1192 F   0  0  0  0  0  0  0  0  0  0  0  0
 10 11  3  0  0  0
 11  9  1  0  0  0
  9  3  1  0  0  0
  3  4  1  0  0  0
  4  5  1  0  0  0
  5  6  1  0  0  0
  6  2  1  0  0  0
  2  1  1  0  0  0
  1 18  1  0  0  0
 18 19  1  0  0  0
 19 20  1  0  0  0
 20 21  2  0  0  0
 21 22  1  0  0  0
 22 26  1  0  0  0
 26 27  1  0  0  0
 26 28  1  0  0  0
 26 29  1  0  0  0
 22 23  2  0  0  0
 23 24  1  0  0  0
 24 30  1  0  0  0
 30 31  1  0  0  0
 30 32  1  0  0  0
 30 33  1  0  0  0
 24 25  2  0  0  0
  2 12  1  0  0  0
 12 13  2  0  0  0
 13 14  1  0  0  0
 14 15  2  0  0  0
 15 16  1  0  0  0
 16 17  2  0  0  0
  6  7  1  0  0  0
  7  8  1  0  0  0
  8  3  1  0  0  0
 25 20  1  0  0  0
 17 12  1  0  0  0
M  END
> <minimizedAffinity>
20.43533

> <CNNscore>
0.4962357879

> <CNNaffinity>
6.8571562767

> <CNN_VS>
3.4027664661

> <CNNaffinity_variance>
0.6373079419

$$$$
[H]c1c([H])c([H])c(C([H])(N2C([H])([H])C([H])([H])N(C([H])([H])C#N)C([H])([H])C2([H])[H])C([H])([H])OC([H])([H])c2c([H])c(C(F)(F)F)c([H])c(C(F)(F)F)c2[H])c([H])c1[H]


 33 35  0  0  0  0  0  0  0  0999 V2000
   14.4643   24.1971   -1.2799 C   0  0  0  0  0  0  0  0  0  0  0  0
   14.7644   24.6032   -2.6833 C   0  0  0  0  0  0  0  0  0  0  0  0
   18.4677   26.5647   -3.0709 N   0  0  0  0  0  0  0  0  0  0  0  0
   18.2101   25.8093   -1.8988 C   0  0  0  0  0  0  0  0  0  0  0  0
   16.7125   25.6472   -1.6536 C   0  0  0  0  0  0  0  0  0  0  0  0
   16.0588   25.1404   -2.8023 N   0  0  0  0  0  0  0  0  0  0  0  0
   16.3880   25.7085   -4.0622 C   0  0  0  0  0  0  0  0  0  0  0  0
   17.3161   26.8738   -3.8476 C   0  0  0  0  0  0  0  0  0  0  0  0
   19.5065   27.5245   -3.0287 C   0  0  0  0  0  0  0  0  0  0  0  0
   18.7505   29.6612   -4.4013 N   0  0  0  0  0  0  0  0  0  0  0  0
   19.0957   28.7105   -3.7971 C   0  0  0  0  0  0  0  0  0  0  0  0
   13.6681   25.4666   -3.1893 C   0  0  0  0  0  0  0  0  0  0  0  0
   13.8081   26.3615   -4.2269 C   0  0  0  0  0  0  0  0  0  0  0  0
   12.7714   27.1752   -4.6422 C   0  0  0  0  0  0  0  0  0  0  0  0
   11.5396   27.1299   -4.0331 C   0  0  0  0  0  0  0  0  0  0  0  0
   11.3786   26.2352   -2.9907 C   0  0  0  0  0  0  0  0  0  0  0  0
   12.4266   25.4280   -2.5859 C   0  0  0  0  0  0  0  0  0  0  0  0
   15.3967   23.3456   -0.6926 O   0  0  0  0  0  0  0  0  0  0  0  0
   14.8853   23.1581    0.6168 C   0  0  0  0  0  0  0  0  0  0  0  0
   13.4664   22.8662    0.6645 C   0  0  0  0  0  0  0  0  0  0  0  0
   12.9752   21.6760    0.0837 C   0  0  0  0  0  0  0  0  0  0  0  0
   11.6564   21.3385    0.0975 C   0  0  0  0  0  0  0  0  0  0  0  0
   10.7514   22.1789    0.6972 C   0  0  0  0  0  0  0  0  0  0  0  0
   11.2121   23.3420    1.2672 C   0  0  0  0  0  0  0  0  0  0  0  0
   12.5616   23.7021    1.2618 C   0  0  0  0  0  0  0  0  0  0  0  0
   11.1360   20.0809   -0.5183 C   0  0  0  0  0  0  0  0  0  0  0  0
   12.0467   19.4982   -1.3320 F   0  0  0  0  0  0  0  0  0  0  0  0
    9.9724   20.4373   -1.1854 F   0  0  0  0  0  0  0  0  0  0  0  0
   10.7399   19.2602    0.5263 F   0  0  0  0  0  0  0  0  0  0  0  0
   10.1841   24.2159    1.9174 C   0  0  0  0  0  0  0  0  0  0  0  0
   10.6740   25.5239    2.0296 F   0  0  0  0  0  0  0  0  0  0  0  0
    9.0964   24.2376    1.0836 F   0  0  0  0  0  0  0  0  0  0  0  0
    9.8403   23.7931    3.1844 F   0  0  0  0  0  0  0  0  0  0  0  0
 10 11  3  0  0  0
 11  9  1  0  0  0
  9  3  1  0  0  0
  3  4  1  0  0  0
  4  5  1  0  0  0
  5  6  1  0  0  0
  6  2  1  0  0  0
  2  1  1  0  0  0
  1 18  1  0  0  0
 18 19  1  0  0  0
 19 20  1  0  0  0
 20 21  2  0  0  0
 21 22  1  0  0  0
 22 26  1  0  0  0
 26 27  1  0  0  0
 26 28  1  0  0  0
 26 29  1  0  0  0
 22 23  2  0  0  0
 23 24  1  0  0  0
 24 30  1  0  0  0
 30 31  1  0  0  0
 30 32  1  0  0  0
 30 33  1  0  0  0
 24 25  2  0  0  0
  2 12  1  0  0  0
 12 13  2  0  0  0
 13 14  1  0  0  0
 14 15  2  0  0  0
 15 16  1  0  0  0
 16 17  2  0  0  0
  6  7  1  0  0  0
  7  8  1  0  0  0
  8  3  1  0  0  0
 25 20  1  0  0  0
 17 12  1  0  0  0
M  END
> <minimizedAffinity>
8.02540

> <CNNscore>
0.3895613253

> <CNNaffinity>
6.9267721176

> <CNN_VS>
2.6984026432

> <CNNaffinity_variance>
2.0145061016

$$$$
[H]c1c([H])c([H])c(C([H])(N2C([H])([H])C([H])([H])N(C([H])([H])C#N)C([H])([H])C2([H])[H])C([H])([H])OC([H])([H])c2c([H])c(C(F)(F)F)c([H])c(C(F)(F)F)c2[H])c([H])c1[H]


 33 35  0  0  0  0  0  0  0  0999 V2000
   14.3734   24.5490   -5.9310 C   0  0  0  0  0  0  0  0  0  0  0  0
   14.4829   23.5447   -4.8339 C   0  0  0  0  0  0  0  0  0  0  0  0
   15.0900   25.0279   -0.9424 N   0  0  0  0  0  0  0  0  0  0  0  0
   16.1166   25.1904   -1.9071 C   0  0  0  0  0  0  0  0  0  0  0  0
   16.0010   24.1612   -3.0282 C   0  0  0  0  0  0  0  0  0  0  0  0
   14.7007   24.1594   -3.5878 N   0  0  0  0  0  0  0  0  0  0  0  0
   13.5923   24.1849   -2.6994 C   0  0  0  0  0  0  0  0  0  0  0  0
   14.0941   24.0709   -1.2850 C   0  0  0  0  0  0  0  0  0  0  0  0
   15.4355   25.1535    0.4239 C   0  0  0  0  0  0  0  0  0  0  0  0
   17.7793   23.9920    0.8461 N   0  0  0  0  0  0  0  0  0  0  0  0
   16.7413   24.5136    0.6497 C   0  0  0  0  0  0  0  0  0  0  0  0
   15.4753   22.5085   -5.2145 C   0  0  0  0  0  0  0  0  0  0  0  0
   15.2353   21.1534   -5.1575 C   0  0  0  0  0  0  0  0  0  0  0  0
   16.2008   20.2205   -5.4844 C   0  0  0  0  0  0  0  0  0  0  0  0
   17.4587   20.6044   -5.8852 C   0  0  0  0  0  0  0  0  0  0  0  0
   17.7180   21.9614   -5.9514 C   0  0  0  0  0  0  0  0  0  0  0  0
   16.7412   22.8832   -5.6199 C   0  0  0  0  0  0  0  0  0  0  0  0
   15.3085   24.4191   -6.9547 O   0  0  0  0  0  0  0  0  0  0  0  0
   15.8131   25.7363   -7.1023 C   0  0  0  0  0  0  0  0  0  0  0  0
   15.6820   26.5593   -5.9164 C   0  0  0  0  0  0  0  0  0  0  0  0
   14.4014   26.8150   -5.3781 C   0  0  0  0  0  0  0  0  0  0  0  0
   14.2077   27.5745   -4.2650 C   0  0  0  0  0  0  0  0  0  0  0  0
   15.2919   28.1228   -3.6256 C   0  0  0  0  0  0  0  0  0  0  0  0
   16.5459   27.8846   -4.1363 C   0  0  0  0  0  0  0  0  0  0  0  0
   16.7612   27.1074   -5.2767 C   0  0  0  0  0  0  0  0  0  0  0  0
   12.8535   27.8469   -3.6963 C   0  0  0  0  0  0  0  0  0  0  0  0
   12.6584   27.2089   -2.5190 F   0  0  0  0  0  0  0  0  0  0  0  0
   11.9462   27.4591   -4.6723 F   0  0  0  0  0  0  0  0  0  0  0  0
   12.7350   29.2241   -3.5918 F   0  0  0  0  0  0  0  0  0  0  0  0
   17.6932   28.4970   -3.3934 C   0  0  0  0  0  0  0  0  0  0  0  0
   17.2115   29.3816   -2.4194 F   0  0  0  0  0  0  0  0  0  0  0  0
   18.3450   27.4736   -2.7556 F   0  0  0  0  0  0  0  0  0  0  0  0
   18.5473   29.2073   -4.2109 F   0  0  0  0  0  0  0  0  0  0  0  0
 10 11  3  0  0  0
 11  9  1  0  0  0
  9  3  1  0  0  0
  3  4  1  0  0  0
  4  5  1  0  0  0
  5  6  1  0  0  0
  6  2  1  0  0  0
  2  1  1  0  0  0
  1 18  1  0  0  0
 18 19  1  0  0  0
 19 20  1  0  0  0
 20 21  2  0  0  0
 21 22  1  0  0  0
 22 26  1  0  0  0
 26 27  1  0  0  0
 26 28  1  0  0  0
 26 29  1  0  0  0
 22 23  2  0  0  0
 23 24  1  0  0  0
 24 30  1  0  0  0
 30 31  1  0  0  0
 30 32  1  0  0  0
 30 33  1  0  0  0
 24 25  2  0  0  0
  2 12  1  0  0  0
 12 13  2  0  0  0
 13 14  1  0  0  0
 14 15  2  0  0  0
 15 16  1  0  0  0
 16 17  2  0  0  0
  6  7  1  0  0  0
  7  8  1  0  0  0
  8  3  1  0  0  0
 25 20  1  0  0  0
 17 12  1  0  0  0
M  END
> <minimizedAffinity>
19.98231

> <CNNscore>
0.3558178842

> <CNNaffinity>
6.7007422447

> <CNN_VS>
2.3842439651

> <CNNaffinity_variance>
0.6288412809

$$$$
[H]c1c([H])c([H])c(C([H])(N2C([H])([H])C([H])([H])N(C([H])([H])C#N)C([H])([H])C2([H])[H])C([H])([H])OC([H])([H])c2c([H])c(C(F)(F)F)c([H])c(C(F)(F)F)c2[H])c([H])c1[H]


 33 35  0  0  0  0  0  0  0  0999 V2000
   10.2837   23.3546   -0.5133 C   0  0  0  0  0  0  0  0  0  0  0  0
   10.4911   22.2199    0.4321 C   0  0  0  0  0  0  0  0  0  0  0  0
    9.3986   23.5224    4.2820 N   0  0  0  0  0  0  0  0  0  0  0  0
    9.5818   22.1351    4.0527 C   0  0  0  0  0  0  0  0  0  0  0  0
    9.4162   21.7837    2.5768 C   0  0  0  0  0  0  0  0  0  0  0  0
   10.2373   22.5999    1.7622 N   0  0  0  0  0  0  0  0  0  0  0  0
   10.2690   23.9943    2.0325 C   0  0  0  0  0  0  0  0  0  0  0  0
    9.2608   24.3096    3.1046 C   0  0  0  0  0  0  0  0  0  0  0  0
    8.6610   23.9162    5.4234 C   0  0  0  0  0  0  0  0  0  0  0  0
    8.3727   26.5502    5.4225 N   0  0  0  0  0  0  0  0  0  0  0  0
    8.5051   25.3796    5.4129 C   0  0  0  0  0  0  0  0  0  0  0  0
   11.8237   21.6139    0.1866 C   0  0  0  0  0  0  0  0  0  0  0  0
   12.8519   21.6155    1.1032 C   0  0  0  0  0  0  0  0  0  0  0  0
   14.0911   21.0739    0.8202 C   0  0  0  0  0  0  0  0  0  0  0  0
   14.3592   20.5029   -0.4015 C   0  0  0  0  0  0  0  0  0  0  0  0
   13.3382   20.4893   -1.3344 C   0  0  0  0  0  0  0  0  0  0  0  0
   12.1031   21.0365   -1.0363 C   0  0  0  0  0  0  0  0  0  0  0  0
   11.0966   23.3456   -1.6439 O   0  0  0  0  0  0  0  0  0  0  0  0
   11.4624   24.7079   -1.7914 C   0  0  0  0  0  0  0  0  0  0  0  0
   12.8863   24.9269   -1.9508 C   0  0  0  0  0  0  0  0  0  0  0  0
   13.7622   24.6572   -0.8759 C   0  0  0  0  0  0  0  0  0  0  0  0
   15.1091   24.8360   -0.9598 C   0  0  0  0  0  0  0  0  0  0  0  0
   15.6566   25.2971   -2.1313 C   0  0  0  0  0  0  0  0  0  0  0  0
   14.8187   25.5653   -3.1876 C   0  0  0  0  0  0  0  0  0  0  0  0
   13.4351   25.3866   -3.1177 C   0  0  0  0  0  0  0  0  0  0  0  0
   16.0357   24.5528    0.1772 C   0  0  0  0  0  0  0  0  0  0  0  0
   15.9171   23.2817    0.6257 F   0  0  0  0  0  0  0  0  0  0  0  0
   15.7397   25.4946    1.1526 F   0  0  0  0  0  0  0  0  0  0  0  0
   17.3142   24.8532   -0.2665 F   0  0  0  0  0  0  0  0  0  0  0  0
   15.4697   26.0547   -4.4446 C   0  0  0  0  0  0  0  0  0  0  0  0
   16.7165   26.6198   -4.1456 F   0  0  0  0  0  0  0  0  0  0  0  0
   15.6780   24.9564   -5.2377 F   0  0  0  0  0  0  0  0  0  0  0  0
   14.7263   27.0154   -5.0981 F   0  0  0  0  0  0  0  0  0  0  0  0
 10 11  3  0  0  0
 11  9  1  0  0  0
  9  3  1  0  0  0
  3  4  1  0  0  0
  4  5  1  0  0  0
  5  6  1  0  0  0
  6  2  1  0  0  0
  2  1  1  0  0  0
  1 18  1  0  0  0
 18 19  1  0  0  0
 19 20  1  0  0  0
 20 21  2  0  0  0
 21 22  1  0  0  0
 22 26  1  0  0  0
 26 27  1  0  0  0
 26 28  1  0  0  0
 26 29  1  0  0  0
 22 23  2  0  0  0
 23 24  1  0  0  0
 24 30  1  0  0  0
 30 31  1  0  0  0
 30 32  1  0  0  0
 30 33  1  0  0  0
 24 25  2  0  0  0
  2 12  1  0  0  0
 12 13  2  0  0  0
 13 14  1  0  0  0
 14 15  2  0  0  0
 15 16  1  0  0  0
 16 17  2  0  0  0
  6  7  1  0  0  0
  7  8  1  0  0  0
  8  3  1  0  0  0
 25 20  1  0  0  0
 17 12  1  0  0  0
M  END
> <minimizedAffinity>
-8.23331

> <CNNscore>
0.3315190971

> <CNNaffinity>
6.6931624413

> <CNN_VS>
2.2189111710

> <CNNaffinity_variance>
0.5897886157

$$$$
[H]c1c([H])c([H])c(C([H])(N2C([H])([H])C([H])([H])N(C([H])([H])C#N)C([H])([H])C2([H])[H])C([H])([H])OC([H])([H])c2c([H])c(C(F)(F)F)c([H])c(C(F)(F)F)c2[H])c([H])c1[H]


 33 35  0  0  0  0  0  0  0  0999 V2000
   12.0691   24.7447    0.1182 C   0  0  0  0  0  0  0  0  0  0  0  0
   11.4836   23.3983   -0.1442 C   0  0  0  0  0  0  0  0  0  0  0  0
    8.4588   22.8469    2.7296 N   0  0  0  0  0  0  0  0  0  0  0  0
    8.1170   22.7954    1.3544 C   0  0  0  0  0  0  0  0  0  0  0  0
    9.1349   23.5402    0.4949 C   0  0  0  0  0  0  0  0  0  0  0  0
   10.4519   23.0956    0.7625 N   0  0  0  0  0  0  0  0  0  0  0  0
   10.8383   22.9336    2.1200 C   0  0  0  0  0  0  0  0  0  0  0  0
    9.7281   23.4268    3.0086 C   0  0  0  0  0  0  0  0  0  0  0  0
    7.4199   23.0629    3.6655 C   0  0  0  0  0  0  0  0  0  0  0  0
    6.7495   25.6257    3.6084 N   0  0  0  0  0  0  0  0  0  0  0  0
    7.0395   24.4843    3.6409 C   0  0  0  0  0  0  0  0  0  0  0  0
   12.5752   22.3956   -0.2240 C   0  0  0  0  0  0  0  0  0  0  0  0
   13.7702   22.5015    0.4527 C   0  0  0  0  0  0  0  0  0  0  0  0
   14.7766   21.5641    0.3204 C   0  0  0  0  0  0  0  0  0  0  0  0
   14.6316   20.4712   -0.5012 C   0  0  0  0  0  0  0  0  0  0  0  0
   13.4371   20.3459   -1.1871 C   0  0  0  0  0  0  0  0  0  0  0  0
   12.4394   21.2934   -1.0449 C   0  0  0  0  0  0  0  0  0  0  0  0
   11.7064   25.7398   -0.7860 O   0  0  0  0  0  0  0  0  0  0  0  0
   11.9540   25.1388   -2.0465 C   0  0  0  0  0  0  0  0  0  0  0  0
   13.2769   25.3981   -2.5789 C   0  0  0  0  0  0  0  0  0  0  0  0
   13.4204   25.8687   -3.9030 C   0  0  0  0  0  0  0  0  0  0  0  0
   14.6319   26.1369   -4.4630 C   0  0  0  0  0  0  0  0  0  0  0  0
   15.7732   25.9478   -3.7238 C   0  0  0  0  0  0  0  0  0  0  0  0
   15.6522   25.4897   -2.4333 C   0  0  0  0  0  0  0  0  0  0  0  0
   14.4168   25.2106   -1.8443 C   0  0  0  0  0  0  0  0  0  0  0  0
   14.7843   26.6327   -5.8639 C   0  0  0  0  0  0  0  0  0  0  0  0
   13.6105   27.0623   -6.3820 F   0  0  0  0  0  0  0  0  0  0  0  0
   15.3333   25.5798   -6.5823 F   0  0  0  0  0  0  0  0  0  0  0  0
   15.7563   27.6205   -5.8332 F   0  0  0  0  0  0  0  0  0  0  0  0
   16.9278   25.3121   -1.6688 C   0  0  0  0  0  0  0  0  0  0  0  0
   17.6619   24.2479   -2.2090 F   0  0  0  0  0  0  0  0  0  0  0  0
   17.6553   26.4615   -1.8376 F   0  0  0  0  0  0  0  0  0  0  0  0
   16.7221   25.0367   -0.3331 F   0  0  0  0  0  0  0  0  0  0  0  0
 10 11  3  0  0  0
 11  9  1  0  0  0
  9  3  1  0  0  0
  3  4  1  0  0  0
  4  5  1  0  0  0
  5  6  1  0  0  0
  6  2  1  0  0  0
  2  1  1  0  0  0
  1 18  1  0  0  0
 18 19  1  0  0  0
 19 20  1  0  0  0
 20 21  2  0  0  0
 21 22  1  0  0  0
 22 26  1  0  0  0
 26 27  1  0  0  0
 26 28  1  0  0  0
 26 29  1  0  0  0
 22 23  2  0  0  0
 23 24  1  0  0  0
 24 30  1  0  0  0
 30 31  1  0  0  0
 30 32  1  0  0  0
 30 33  1  0  0  0
 24 25  2  0  0  0
  2 12  1  0  0  0
 12 13  2  0  0  0
 13 14  1  0  0  0
 14 15  2  0  0  0
 15 16  1  0  0  0
 16 17  2  0  0  0
  6  7  1  0  0  0
  7  8  1  0  0  0
  8  3  1  0  0  0
 25 20  1  0  0  0
 17 12  1  0  0  0
M  END
> <minimizedAffinity>
-7.58916

> <CNNscore>
0.2912978828

> <CNNaffinity>
6.8236985207

> <CNN_VS>
1.9877289534

> <CNNaffinity_variance>
0.2324884385

$$$$
[H]c1c([H])c([H])c(C([H])(N2C([H])([H])C([H])([H])N(C([H])([H])C#N)C([H])([H])C2([H])[H])C([H])([H])OC([H])([H])c2c([H])c(C(F)(F)F)c([H])c(C(F)(F)F)c2[H])c([H])c1[H]


 33 35  0  0  0  0  0  0  0  0999 V2000
   11.9234   24.6938    0.0419 C   0  0  0  0  0  0  0  0  0  0  0  0
   11.5781   23.4245   -0.6608 C   0  0  0  0  0  0  0  0  0  0  0  0
    7.8608   21.8667    0.5504 N   0  0  0  0  0  0  0  0  0  0  0  0
    8.1258   23.2453    0.7507 C   0  0  0  0  0  0  0  0  0  0  0  0
    9.6250   23.5278    0.7952 C   0  0  0  0  0  0  0  0  0  0  0  0
   10.2799   22.9898   -0.3386 N   0  0  0  0  0  0  0  0  0  0  0  0
    9.9443   21.6684   -0.7381 C   0  0  0  0  0  0  0  0  0  0  0  0
    9.0087   21.0709    0.2783 C   0  0  0  0  0  0  0  0  0  0  0  0
    6.8156   21.2748    1.2982 C   0  0  0  0  0  0  0  0  0  0  0  0
    7.7130   20.7248    3.7299 N   0  0  0  0  0  0  0  0  0  0  0  0
    7.3053   20.9744    2.6531 C   0  0  0  0  0  0  0  0  0  0  0  0
   12.6565   22.4297   -0.4352 C   0  0  0  0  0  0  0  0  0  0  0  0
   13.4734   21.9395   -1.4299 C   0  0  0  0  0  0  0  0  0  0  0  0
   14.4410   20.9842   -1.1838 C   0  0  0  0  0  0  0  0  0  0  0  0
   14.6354   20.4726    0.0774 C   0  0  0  0  0  0  0  0  0  0  0  0
   13.8265   20.9547    1.0904 C   0  0  0  0  0  0  0  0  0  0  0  0
   12.8615   21.9105    0.8279 C   0  0  0  0  0  0  0  0  0  0  0  0
   11.9545   25.8311   -0.7610 O   0  0  0  0  0  0  0  0  0  0  0  0
   12.0644   25.3003   -2.0715 C   0  0  0  0  0  0  0  0  0  0  0  0
   13.3431   25.5477   -2.7076 C   0  0  0  0  0  0  0  0  0  0  0  0
   14.5385   25.3342   -1.9861 C   0  0  0  0  0  0  0  0  0  0  0  0
   15.7716   25.5420   -2.5242 C   0  0  0  0  0  0  0  0  0  0  0  0
   15.8764   25.9774   -3.8220 C   0  0  0  0  0  0  0  0  0  0  0  0
   14.7230   26.1909   -4.5389 C   0  0  0  0  0  0  0  0  0  0  0  0
   13.4508   25.9818   -4.0015 C   0  0  0  0  0  0  0  0  0  0  0  0
   17.0361   25.3183   -1.7611 C   0  0  0  0  0  0  0  0  0  0  0  0
   16.8095   25.1593   -0.4365 F   0  0  0  0  0  0  0  0  0  0  0  0
   17.8460   26.4107   -2.0384 F   0  0  0  0  0  0  0  0  0  0  0  0
   17.6616   24.2242   -2.3384 F   0  0  0  0  0  0  0  0  0  0  0  0
   14.8955   26.6543   -5.9527 C   0  0  0  0  0  0  0  0  0  0  0  0
   15.7261   27.7822   -5.9856 F   0  0  0  0  0  0  0  0  0  0  0  0
   15.5244   25.6412   -6.6288 F   0  0  0  0  0  0  0  0  0  0  0  0
   13.7043   27.0002   -6.5559 F   0  0  0  0  0  0  0  0  0  0  0  0
 10 11  3  0  0  0
 11  9  1  0  0  0
  9  3  1  0  0  0
  3  4  1  0  0  0
  4  5  1  0  0  0
  5  6  1  0  0  0
  6  2  1  0  0  0
  2  1  1  0  0  0
  1 18  1  0  0  0
 18 19  1  0  0  0
 19 20  1  0  0  0
 20 21  2  0  0  0
 21 22  1  0  0  0
 22 26  1  0  0  0
 26 27  1  0  0  0
 26 28  1  0  0  0
 26 29  1  0  0  0
 22 23  2  0  0  0
 23 24  1  0  0  0
 24 30  1  0  0  0
 30 31  1  0  0  0
 30 32  1  0  0  0
 30 33  1  0  0  0
 24 25  2  0  0  0
  2 12  1  0  0  0
 12 13  2  0  0  0
 13 14  1  0  0  0
 14 15  2  0  0  0
 15 16  1  0  0  0
 16 17  2  0  0  0
  6  7  1  0  0  0
  7  8  1  0  0  0
  8  3  1  0  0  0
 25 20  1  0  0  0
 17 12  1  0  0  0
M  END
> <minimizedAffinity>
-7.65895

> <CNNscore>
0.2437830418

> <CNNaffinity>
6.8377981186

> <CNN_VS>
1.6669392586

> <CNNaffinity_variance>
0.0730934143

$$$$
[H]c1c([H])c([H])c(C([H])(N2C([H])([H])C([H])([H])N(C([H])([H])C#N)C([H])([H])C2([H])[H])C([H])([H])OC([H])([H])c2c([H])c(C(F)(F)F)c([H])c(C(F)(F)F)c2[H])c([H])c1[H]


 33 35  0  0  0  0  0  0  0  0999 V2000
   13.6449   21.2824   -2.3404 C   0  0  0  0  0  0  0  0  0  0  0  0
   13.3632   21.1577   -0.8811 C   0  0  0  0  0  0  0  0  0  0  0  0
    9.5669   22.5008    0.3423 N   0  0  0  0  0  0  0  0  0  0  0  0
   10.0204   22.8197   -0.9629 C   0  0  0  0  0  0  0  0  0  0  0  0
   11.5430   22.7708   -1.0554 C   0  0  0  0  0  0  0  0  0  0  0  0
   12.0446   21.5381   -0.5731 N   0  0  0  0  0  0  0  0  0  0  0  0
   11.5152   21.0333    0.6448 C   0  0  0  0  0  0  0  0  0  0  0  0
   10.5815   22.0556    1.2353 C   0  0  0  0  0  0  0  0  0  0  0  0
    8.5073   23.2663    0.8838 C   0  0  0  0  0  0  0  0  0  0  0  0
    9.4749   24.9296    2.7054 N   0  0  0  0  0  0  0  0  0  0  0  0
    9.0478   24.1816    1.9016 C   0  0  0  0  0  0  0  0  0  0  0  0
   14.4233   21.8594   -0.1150 C   0  0  0  0  0  0  0  0  0  0  0  0
   14.5563   23.2292   -0.0599 C   0  0  0  0  0  0  0  0  0  0  0  0
   15.5818   23.8419    0.6344 C   0  0  0  0  0  0  0  0  0  0  0  0
   16.5273   23.1062    1.3091 C   0  0  0  0  0  0  0  0  0  0  0  0
   16.4089   21.7288    1.2679 C   0  0  0  0  0  0  0  0  0  0  0  0
   15.3770   21.1301    0.5675 C   0  0  0  0  0  0  0  0  0  0  0  0
   14.9612   21.5961   -2.6695 O   0  0  0  0  0  0  0  0  0  0  0  0
   14.8511   22.1212   -3.9823 C   0  0  0  0  0  0  0  0  0  0  0  0
   15.2388   23.5128   -4.1002 C   0  0  0  0  0  0  0  0  0  0  0  0
   15.8339   24.1708   -3.0010 C   0  0  0  0  0  0  0  0  0  0  0  0
   16.2259   25.4737   -3.0457 C   0  0  0  0  0  0  0  0  0  0  0  0
   16.0429   26.1939   -4.2002 C   0  0  0  0  0  0  0  0  0  0  0  0
   15.4647   25.5693   -5.2798 C   0  0  0  0  0  0  0  0  0  0  0  0
   15.0577   24.2334   -5.2501 C   0  0  0  0  0  0  0  0  0  0  0  0
   16.8534   26.1707   -1.8830 C   0  0  0  0  0  0  0  0  0  0  0  0
   15.9366   26.5548   -0.9649 F   0  0  0  0  0  0  0  0  0  0  0  0
   17.5581   27.2408   -2.4162 F   0  0  0  0  0  0  0  0  0  0  0  0
   17.8064   25.3061   -1.3674 F   0  0  0  0  0  0  0  0  0  0  0  0
   15.2993   26.3977   -6.5166 C   0  0  0  0  0  0  0  0  0  0  0  0
   13.9732   26.8382   -6.6202 F   0  0  0  0  0  0  0  0  0  0  0  0
   16.1040   27.4974   -6.3686 F   0  0  0  0  0  0  0  0  0  0  0  0
   15.5969   25.7064   -7.6724 F   0  0  0  0  0  0  0  0  0  0  0  0
 10 11  3  0  0  0
 11  9  1  0  0  0
  9  3  1  0  0  0
  3  4  1  0  0  0
  4  5  1  0  0  0
  5  6  1  0  0  0
  6  2  1  0  0  0
  2  1  1  0  0  0
  1 18  1  0  0  0
 18 19  1  0  0  0
 19 20  1  0  0  0
 20 21  2  0  0  0
 21 22  1  0  0  0
 22 26  1  0  0  0
 26 27  1  0  0  0
 26 28  1  0  0  0
 26 29  1  0  0  0
 22 23  2  0  0  0
 23 24  1  0  0  0
 24 30  1  0  0  0
 30 31  1  0  0  0
 30 32  1  0  0  0
 30 33  1  0  0  0
 24 25  2  0  0  0
  2 12  1  0  0  0
 12 13  2  0  0  0
 13 14  1  0  0  0
 14 15  2  0  0  0
 15 16  1  0  0  0
 16 17  2  0  0  0
  6  7  1  0  0  0
  7  8  1  0  0  0
  8  3  1  0  0  0
 25 20  1  0  0  0
 17 12  1  0  0  0
M  END
> <minimizedAffinity>
-5.85376

> <CNNscore>
0.2406117767

> <CNNaffinity>
7.0483665466

> <CNN_VS>
1.6959199905

> <CNNaffinity_variance>
0.0639435798

$$$$
[H]c1c([H])c([H])c(C([H])(N2C([H])([H])C([H])([H])N(C([H])([H])C#N)C([H])([H])C2([H])[H])C([H])([H])OC([H])([H])c2c([H])c(C(F)(F)F)c([H])c(C(F)(F)F)c2[H])c([H])c1[H]


 33 35  0  0  0  0  0  0  0  0999 V2000
   12.4298   25.0629   -0.7598 C   0  0  0  0  0  0  0  0  0  0  0  0
   11.7300   23.7459   -0.7691 C   0  0  0  0  0  0  0  0  0  0  0  0
    8.5207   23.3433    1.9236 N   0  0  0  0  0  0  0  0  0  0  0  0
    9.5207   24.3136    2.1872 C   0  0  0  0  0  0  0  0  0  0  0  0
   10.8329   23.9715    1.4869 C   0  0  0  0  0  0  0  0  0  0  0  0
   10.6289   23.7374    0.1058 N   0  0  0  0  0  0  0  0  0  0  0  0
    9.5305   22.9218   -0.2773 C   0  0  0  0  0  0  0  0  0  0  0  0
    8.8809   22.3608    0.9592 C   0  0  0  0  0  0  0  0  0  0  0  0
    7.6899   22.9366    2.9942 C   0  0  0  0  0  0  0  0  0  0  0  0
    8.7000   20.7448    4.0882 N   0  0  0  0  0  0  0  0  0  0  0  0
    8.2451   21.7132    3.5948 C   0  0  0  0  0  0  0  0  0  0  0  0
   12.7213   22.6620   -0.5549 C   0  0  0  0  0  0  0  0  0  0  0  0
   13.8623   22.7998    0.2043 C   0  0  0  0  0  0  0  0  0  0  0  0
   14.7797   21.7764    0.3466 C   0  0  0  0  0  0  0  0  0  0  0  0
   14.5956   20.5609   -0.2690 C   0  0  0  0  0  0  0  0  0  0  0  0
   13.4540   20.4023   -1.0336 C   0  0  0  0  0  0  0  0  0  0  0  0
   12.5453   21.4368   -1.1673 C   0  0  0  0  0  0  0  0  0  0  0  0
   12.5281   25.6953   -1.9966 O   0  0  0  0  0  0  0  0  0  0  0  0
   13.4213   24.8619   -2.7171 C   0  0  0  0  0  0  0  0  0  0  0  0
   14.4190   25.5821   -3.4830 C   0  0  0  0  0  0  0  0  0  0  0  0
   14.3689   25.5621   -4.8945 C   0  0  0  0  0  0  0  0  0  0  0  0
   15.2707   26.2201   -5.6737 C   0  0  0  0  0  0  0  0  0  0  0  0
   16.2780   26.9389   -5.0792 C   0  0  0  0  0  0  0  0  0  0  0  0
   16.3421   26.9688   -3.7062 C   0  0  0  0  0  0  0  0  0  0  0  0
   15.4245   26.2997   -2.8930 C   0  0  0  0  0  0  0  0  0  0  0  0
   15.2194   26.1977   -7.1665 C   0  0  0  0  0  0  0  0  0  0  0  0
   15.4774   24.9668   -7.6659 F   0  0  0  0  0  0  0  0  0  0  0  0
   16.1337   27.1509   -7.5927 F   0  0  0  0  0  0  0  0  0  0  0  0
   13.9710   26.6785   -7.5295 F   0  0  0  0  0  0  0  0  0  0  0  0
   17.4536   27.7769   -3.1104 C   0  0  0  0  0  0  0  0  0  0  0  0
   16.9632   29.0179   -2.6828 F   0  0  0  0  0  0  0  0  0  0  0  0
   17.8973   27.0911   -2.0096 F   0  0  0  0  0  0  0  0  0  0  0  0
   18.4791   28.0217   -3.9997 F   0  0  0  0  0  0  0  0  0  0  0  0
 10 11  3  0  0  0
 11  9  1  0  0  0
  9  3  1  0  0  0
  3  4  1  0  0  0
  4  5  1  0  0  0
  5  6  1  0  0  0
  6  2  1  0  0  0
  2  1  1  0  0  0
  1 18  1  0  0  0
 18 19  1  0  0  0
 19 20  1  0  0  0
 20 21  2  0  0  0
 21 22  1  0  0  0
 22 26  1  0  0  0
 26 27  1  0  0  0
 26 28  1  0  0  0
 26 29  1  0  0  0
 22 23  2  0  0  0
 23 24  1  0  0  0
 24 30  1  0  0  0
 30 31  1  0  0  0
 30 32  1  0  0  0
 30 33  1  0  0  0
 24 25  2  0  0  0
  2 12  1  0  0  0
 12 13  2  0  0  0
 13 14  1  0  0  0
 14 15  2  0  0  0
 15 16  1  0  0  0
 16 17  2  0  0  0
  6  7  1  0  0  0
  7  8  1  0  0  0
  8  3  1  0  0  0
 25 20  1  0  0  0
 17 12  1  0  0  0
M  END
> <minimizedAffinity>
-7.61196

> <CNNscore>
0.2366281748

> <CNNaffinity>
6.7286734581

> <CNN_VS>
1.5921937227

> <CNNaffinity_variance>
0.0790579319

$$$$
[H]c1c([H])c([H])c(C([H])(N2C([H])([H])C([H])([H])N(C([H])([H])C#N)C([H])([H])C2([H])[H])C([H])([H])OC([H])([H])c2c([H])c(C(F)(F)F)c([H])c(C(F)(F)F)c2[H])c([H])c1[H]


 33 35  0  0  0  0  0  0  0  0999 V2000
   12.3879   25.0222   -0.8405 C   0  0  0  0  0  0  0  0  0  0  0  0
   11.6917   23.7037   -0.8051 C   0  0  0  0  0  0  0  0  0  0  0  0
    8.7578   23.3755    2.1943 N   0  0  0  0  0  0  0  0  0  0  0  0
    9.4512   24.6032    2.0434 C   0  0  0  0  0  0  0  0  0  0  0  0
   10.7973   24.4060    1.3518 C   0  0  0  0  0  0  0  0  0  0  0  0
   10.6482   23.6932    0.1379 N   0  0  0  0  0  0  0  0  0  0  0  0
    9.8156   22.5421    0.1383 C   0  0  0  0  0  0  0  0  0  0  0  0
    9.3646   22.2630    1.5468 C   0  0  0  0  0  0  0  0  0  0  0  0
    8.0875   23.1362    3.4172 C   0  0  0  0  0  0  0  0  0  0  0  0
    9.8071   22.1861    5.1952 N   0  0  0  0  0  0  0  0  0  0  0  0
    9.0507   22.6103    4.3977 C   0  0  0  0  0  0  0  0  0  0  0  0
   12.6968   22.6219   -0.6541 C   0  0  0  0  0  0  0  0  0  0  0  0
   12.6351   21.4147   -1.3143 C   0  0  0  0  0  0  0  0  0  0  0  0
   13.5716   20.4184   -1.1157 C   0  0  0  0  0  0  0  0  0  0  0  0
   14.6189   20.5863   -0.2408 C   0  0  0  0  0  0  0  0  0  0  0  0
   14.6995   21.7933    0.4297 C   0  0  0  0  0  0  0  0  0  0  0  0
   13.7534   22.7808    0.2207 C   0  0  0  0  0  0  0  0  0  0  0  0
   12.5659   25.5694   -2.1086 O   0  0  0  0  0  0  0  0  0  0  0  0
   13.6273   24.7990   -2.6484 C   0  0  0  0  0  0  0  0  0  0  0  0
   14.5106   25.5384   -3.5281 C   0  0  0  0  0  0  0  0  0  0  0  0
   15.5543   26.3173   -2.9813 C   0  0  0  0  0  0  0  0  0  0  0  0
   16.4219   27.0314   -3.7499 C   0  0  0  0  0  0  0  0  0  0  0  0
   16.2916   27.0047   -5.1163 C   0  0  0  0  0  0  0  0  0  0  0  0
   15.2807   26.2521   -5.6656 C   0  0  0  0  0  0  0  0  0  0  0  0
   14.3831   25.5137   -4.8910 C   0  0  0  0  0  0  0  0  0  0  0  0
   17.5247   27.8569   -3.1721 C   0  0  0  0  0  0  0  0  0  0  0  0
   18.4812   28.1395   -4.0865 F   0  0  0  0  0  0  0  0  0  0  0  0
   18.0132   27.1360   -2.0915 F   0  0  0  0  0  0  0  0  0  0  0  0
   16.9347   28.9917   -2.6375 F   0  0  0  0  0  0  0  0  0  0  0  0
   15.1914   26.2495   -7.1607 C   0  0  0  0  0  0  0  0  0  0  0  0
   15.2877   24.9366   -7.6407 F   0  0  0  0  0  0  0  0  0  0  0  0
   13.9504   26.7327   -7.4853 F   0  0  0  0  0  0  0  0  0  0  0  0
   16.1921   26.9839   -7.7620 F   0  0  0  0  0  0  0  0  0  0  0  0
 10 11  3  0  0  0
 11  9  1  0  0  0
  9  3  1  0  0  0
  3  4  1  0  0  0
  4  5  1  0  0  0
  5  6  1  0  0  0
  6  2  1  0  0  0
  2  1  1  0  0  0
  1 18  1  0  0  0
 18 19  1  0  0  0
 19 20  1  0  0  0
 20 21  2  0  0  0
 21 22  1  0  0  0
 22 26  1  0  0  0
 26 27  1  0  0  0
 26 28  1  0  0  0
 26 29  1  0  0  0
 22 23  2  0  0  0
 23 24  1  0  0  0
 24 30  1  0  0  0
 30 31  1  0  0  0
 30 32  1  0  0  0
 30 33  1  0  0  0
 24 25  2  0  0  0
  2 12  1  0  0  0
 12 13  2  0  0  0
 13 14  1  0  0  0
 14 15  2  0  0  0
 15 16  1  0  0  0
 16 17  2  0  0  0
  6  7  1  0  0  0
  7  8  1  0  0  0
  8  3  1  0  0  0
 25 20  1  0  0  0
 17 12  1  0  0  0
M  END
> <minimizedAffinity>
-7.62172

> <CNNscore>
0.2334077060

> <CNNaffinity>
6.6955184937

> <CNN_VS>
1.5627856255

> <CNNaffinity_variance>
0.0753492564

$$$$
[H]OC(=O)c1c([H])c([H])c([H])c(O[H])c1C(=O)c1c(O[H])c([H])c(C(=O)OC([H])([H])[C@]2([H])C([H])([H])C([H])([H])C([H])([H])[C@@]2([H])N([H])C(=O)c2c([H])c([H])c(O[H])c([H])c2[H])c([H])c1O[H]


 45 48  0  0  0  0  0  0  0  0999 V2000
   12.2559   20.2437    2.0367 C   0  0  0  0  0  0  0  0  0  0  0  0
   11.5377   20.6320    0.9456 C   0  0  0  0  0  0  0  0  0  0  0  0
   12.1696   20.9879   -0.2541 C   0  0  0  0  0  0  0  0  0  0  0  0
   11.3465   21.3572   -1.2896 O   0  0  0  0  0  0  0  0  0  0  0  0
   13.5404   20.9628   -0.3849 C   0  0  0  0  0  0  0  0  0  0  0  0
   14.2712   20.5632    0.7428 C   0  0  0  0  0  0  0  0  0  0  0  0
   15.6770   20.5049    0.7342 O   0  0  0  0  0  0  0  0  0  0  0  0
   13.6235   20.2186    1.9053 C   0  0  0  0  0  0  0  0  0  0  0  0
   11.5359   21.6196   -2.2107 H   0  0  0  0  0  0  0  0  0  0  0  0
   16.1721   20.2194    1.5417 H   0  0  0  0  0  0  0  0  0  0  0  0
   11.6016   19.8622    3.3092 C   0  0  0  0  0  0  0  0  0  0  0  0
   11.4590   18.6544    3.5392 O   0  0  0  0  0  0  0  0  0  0  0  0
   11.1866   20.7738    4.1642 O   0  0  0  0  0  0  0  0  0  0  0  0
   10.0933   21.4118    4.6172 C   0  0  0  0  0  0  0  0  0  0  0  0
    9.3829   22.9867    2.9150 C   0  0  0  0  0  0  0  0  0  0  0  0
    8.0136   23.5888    3.1179 C   0  0  0  0  0  0  0  0  0  0  0  0
    7.9407   24.1385    4.5013 C   0  0  0  0  0  0  0  0  0  0  0  0
    9.1851   23.6710    5.2441 C   0  0  0  0  0  0  0  0  0  0  0  0
    9.9667   22.8585    4.3264 C   0  0  0  0  0  0  0  0  0  0  0  0
    9.3518   22.7812    0.1939 O   0  0  0  0  0  0  0  0  0  0  0  0
   10.1424   23.6494    0.6668 C   0  0  0  0  0  0  0  0  0  0  0  0
   10.2121   23.8095    2.0565 N   0  0  0  0  0  0  0  0  0  0  0  0
   10.8647   24.5232    2.4735 H   0  0  0  0  0  0  0  0  0  0  0  0
   10.9300   24.4290   -0.2481 C   0  0  0  0  0  0  0  0  0  0  0  0
   11.8437   25.3414    0.2179 C   0  0  0  0  0  0  0  0  0  0  0  0
   12.6134   26.1062   -0.6622 C   0  0  0  0  0  0  0  0  0  0  0  0
   12.4525   25.9411   -2.0159 C   0  0  0  0  0  0  0  0  0  0  0  0
   13.2125   26.6958   -2.9127 O   0  0  0  0  0  0  0  0  0  0  0  0
   11.5339   25.0237   -2.4822 C   0  0  0  0  0  0  0  0  0  0  0  0
   10.7713   24.2661   -1.6227 C   0  0  0  0  0  0  0  0  0  0  0  0
   14.1020   26.3772   -3.2497 H   0  0  0  0  0  0  0  0  0  0  0  0
   14.2856   21.4545   -1.4975 C   0  0  0  0  0  0  0  0  0  0  0  0
   14.4636   20.5428   -2.4266 O   0  0  0  0  0  0  0  0  0  0  0  0
   14.8551   22.7429   -1.7947 C   0  0  0  0  0  0  0  0  0  0  0  0
   15.0910   22.9495   -3.1786 C   0  0  0  0  0  0  0  0  0  0  0  0
   14.7585   21.9503   -4.0823 O   0  0  0  0  0  0  0  0  0  0  0  0
   15.6355   24.1002   -3.6585 C   0  0  0  0  0  0  0  0  0  0  0  0
   15.9534   25.0692   -2.7390 C   0  0  0  0  0  0  0  0  0  0  0  0
   15.7425   24.8980   -1.4073 C   0  0  0  0  0  0  0  0  0  0  0  0
   15.1757   23.6939   -0.8908 C   0  0  0  0  0  0  0  0  0  0  0  0
   14.9300   22.1091   -5.0597 H   0  0  0  0  0  0  0  0  0  0  0  0
   15.2041   23.5311    0.5452 C   0  0  0  0  0  0  0  0  0  0  0  0
   14.1495   23.8497    1.1934 O   0  0  0  0  0  0  0  0  0  0  0  0
   16.2288   23.0860    1.3023 O   0  0  0  0  0  0  0  0  0  0  0  0
   16.3335   23.1700    2.2939 H   0  0  0  0  0  0  0  0  0  0  0  0
 20 21  2  0  0  0
 21 22  1  0  0  0
 22 15  1  0  0  0
 15 16  1  0  0  0
 16 17  1  0  0  0
 17 18  1  0  0  0
 18 19  1  0  0  0
 19 14  1  0  0  0
 14 13  1  0  0  0
 13 11  1  0  0  0
 11 12  2  0  0  0
 11  1  1  0  0  0
  1  2  2  0  0  0
  2  3  1  0  0  0
  3  4  1  0  0  0
  3  5  2  0  0  0
  5 32  1  0  0  0
 32 33  2  0  0  0
 32 34  1  0  0  0
 34 35  2  0  0  0
 35 36  1  0  0  0
 35 37  1  0  0  0
 37 38  2  0  0  0
 38 39  1  0  0  0
 39 40  2  0  0  0
 40 42  1  0  0  0
 42 43  2  0  0  0
 42 44  1  0  0  0
  5  6  1  0  0  0
  6  7  1  0  0  0
  6  8  2  0  0  0
 21 24  1  0  0  0
 24 25  2  0  0  0
 25 26  1  0  0  0
 26 27  2  0  0  0
 27 28  1  0  0  0
 27 29  1  0  0  0
 29 30  2  0  0  0
 19 15  1  0  0  0
  8  1  1  0  0  0
 30 24  1  0  0  0
 40 34  1  0  0  0
 22 23  1  0  0  0
  4  9  1  0  0  0
 36 41  1  0  0  0
 44 45  1  0  0  0
  7 10  1  0  0  0
 28 31  1  0  0  0
M  END
> <minimizedAffinity>
-6.80286

> <CNNscore>
0.5684410334

> <CNNaffinity>
6.9632558823

> <CNN_VS>
3.9582004547

> <CNNaffinity_variance>
0.0234295186

$$$$
[H]OC(=O)c1c([H])c([H])c([H])c(O[H])c1C(=O)c1c(O[H])c([H])c(C(=O)OC([H])([H])[C@]2([H])C([H])([H])C([H])([H])C([H])([H])[C@@]2([H])N([H])C(=O)c2c([H])c([H])c(O[H])c([H])c2[H])c([H])c1O[H]


 45 48  0  0  0  0  0  0  0  0999 V2000
   13.3147   21.6302    0.0511 C   0  0  0  0  0  0  0  0  0  0  0  0
   12.5138   21.8865   -1.0213 C   0  0  0  0  0  0  0  0  0  0  0  0
   11.2091   21.3788   -1.0946 C   0  0  0  0  0  0  0  0  0  0  0  0
   10.4908   21.7056   -2.2186 O   0  0  0  0  0  0  0  0  0  0  0  0
   10.6786   20.5994   -0.0906 C   0  0  0  0  0  0  0  0  0  0  0  0
   11.5099   20.3400    1.0081 C   0  0  0  0  0  0  0  0  0  0  0  0
   11.0833   19.5508    2.0920 O   0  0  0  0  0  0  0  0  0  0  0  0
   12.7846   20.8529    1.0525 C   0  0  0  0  0  0  0  0  0  0  0  0
    9.5756   21.5004   -2.4894 H   0  0  0  0  0  0  0  0  0  0  0  0
   11.6869   19.3813    2.8573 H   0  0  0  0  0  0  0  0  0  0  0  0
   14.6935   22.1624    0.1431 C   0  0  0  0  0  0  0  0  0  0  0  0
   15.4897   21.5638    0.8778 O   0  0  0  0  0  0  0  0  0  0  0  0
   15.0591   23.2329   -0.5311 O   0  0  0  0  0  0  0  0  0  0  0  0
   15.0476   23.7973   -1.7513 C   0  0  0  0  0  0  0  0  0  0  0  0
   13.2849   25.4298   -1.4190 C   0  0  0  0  0  0  0  0  0  0  0  0
   13.3282   26.6284   -2.3357 C   0  0  0  0  0  0  0  0  0  0  0  0
   13.4293   26.1432   -3.7413 C   0  0  0  0  0  0  0  0  0  0  0  0
   13.6865   24.6433   -3.6889 C   0  0  0  0  0  0  0  0  0  0  0  0
   13.7458   24.2552   -2.2891 C   0  0  0  0  0  0  0  0  0  0  0  0
   12.8481   24.8046    1.2013 O   0  0  0  0  0  0  0  0  0  0  0  0
   11.8106   24.8982    0.4822 C   0  0  0  0  0  0  0  0  0  0  0  0
   11.9588   25.2151   -0.8741 N   0  0  0  0  0  0  0  0  0  0  0  0
   11.1105   25.2954   -1.4931 H   0  0  0  0  0  0  0  0  0  0  0  0
   10.5302   24.6743    1.0949 C   0  0  0  0  0  0  0  0  0  0  0  0
   10.3036   25.0463    2.3968 C   0  0  0  0  0  0  0  0  0  0  0  0
    9.0634   24.8317    3.0033 C   0  0  0  0  0  0  0  0  0  0  0  0
    8.0550   24.2391    2.2840 C   0  0  0  0  0  0  0  0  0  0  0  0
    6.8076   24.0160    2.8719 O   0  0  0  0  0  0  0  0  0  0  0  0
    8.2847   23.8660    0.9759 C   0  0  0  0  0  0  0  0  0  0  0  0
    9.5031   24.0734    0.3703 C   0  0  0  0  0  0  0  0  0  0  0  0
    6.0740   24.6987    2.8295 H   0  0  0  0  0  0  0  0  0  0  0  0
    9.4332   19.9056   -0.1372 C   0  0  0  0  0  0  0  0  0  0  0  0
    9.5842   18.6101   -0.2954 O   0  0  0  0  0  0  0  0  0  0  0  0
    8.0675   20.3485   -0.0293 C   0  0  0  0  0  0  0  0  0  0  0  0
    7.4383   20.5472   -1.2855 C   0  0  0  0  0  0  0  0  0  0  0  0
    8.1504   20.2986   -2.4504 O   0  0  0  0  0  0  0  0  0  0  0  0
    6.1517   20.9760   -1.3934 C   0  0  0  0  0  0  0  0  0  0  0  0
    5.4743   21.2131   -0.2228 C   0  0  0  0  0  0  0  0  0  0  0  0
    6.0521   21.0353    0.9945 C   0  0  0  0  0  0  0  0  0  0  0  0
    7.4024   20.5898    1.1211 C   0  0  0  0  0  0  0  0  0  0  0  0
    7.6933   20.4427   -3.3337 H   0  0  0  0  0  0  0  0  0  0  0  0
    7.9809   20.6507    2.4444 C   0  0  0  0  0  0  0  0  0  0  0  0
    7.3501   20.0643    3.3889 O   0  0  0  0  0  0  0  0  0  0  0  0
    9.1208   21.2705    2.8158 O   0  0  0  0  0  0  0  0  0  0  0  0
    9.4143   21.4978    3.7450 H   0  0  0  0  0  0  0  0  0  0  0  0
 20 21  2  0  0  0
 21 22  1  0  0  0
 22 15  1  0  0  0
 15 16  1  0  0  0
 16 17  1  0  0  0
 17 18  1  0  0  0
 18 19  1  0  0  0
 19 14  1  0  0  0
 14 13  1  0  0  0
 13 11  1  0  0  0
 11 12  2  0  0  0
 11  1  1  0  0  0
  1  2  2  0  0  0
  2  3  1  0  0  0
  3  4  1  0  0  0
  3  5  2  0  0  0
  5 32  1  0  0  0
 32 33  2  0  0  0
 32 34  1  0  0  0
 34 35  2  0  0  0
 35 36  1  0  0  0
 35 37  1  0  0  0
 37 38  2  0  0  0
 38 39  1  0  0  0
 39 40  2  0  0  0
 40 42  1  0  0  0
 42 43  2  0  0  0
 42 44  1  0  0  0
  5  6  1  0  0  0
  6  7  1  0  0  0
  6  8  2  0  0  0
 21 24  1  0  0  0
 24 25  2  0  0  0
 25 26  1  0  0  0
 26 27  2  0  0  0
 27 28  1  0  0  0
 27 29  1  0  0  0
 29 30  2  0  0  0
 19 15  1  0  0  0
  8  1  1  0  0  0
 30 24  1  0  0  0
 40 34  1  0  0  0
 22 23  1  0  0  0
  4  9  1  0  0  0
 36 41  1  0  0  0
 44 45  1  0  0  0
  7 10  1  0  0  0
 28 31  1  0  0  0
M  END
> <minimizedAffinity>
-5.54982

> <CNNscore>
0.3781505227

> <CNNaffinity>
6.5661239624

> <CNN_VS>
2.4829831123

> <CNNaffinity_variance>
0.0373886637

$$$$
[H]OC(=O)c1c([H])c([H])c([H])c(O[H])c1C(=O)c1c(O[H])c([H])c(C(=O)OC([H])([H])[C@]2([H])C([H])([H])C([H])([H])C([H])([H])[C@@]2([H])N([H])C(=O)c2c([H])c([H])c(O[H])c([H])c2[H])c([H])c1O[H]


 45 48  0  0  0  0  0  0  0  0999 V2000
   13.1771   21.6320   -0.3734 C   0  0  0  0  0  0  0  0  0  0  0  0
   12.2926   21.8281   -1.3913 C   0  0  0  0  0  0  0  0  0  0  0  0
   10.9873   21.3204   -1.3308 C   0  0  0  0  0  0  0  0  0  0  0  0
   10.1807   21.5839   -2.4108 O   0  0  0  0  0  0  0  0  0  0  0  0
   10.5402   20.6015   -0.2445 C   0  0  0  0  0  0  0  0  0  0  0  0
   11.4572   20.4037    0.7975 C   0  0  0  0  0  0  0  0  0  0  0  0
   11.1202   19.6793    1.9556 O   0  0  0  0  0  0  0  0  0  0  0  0
   12.7303   20.9150    0.7103 C   0  0  0  0  0  0  0  0  0  0  0  0
    9.2472   21.3657   -2.5953 H   0  0  0  0  0  0  0  0  0  0  0  0
   11.7833   19.5526    2.6788 H   0  0  0  0  0  0  0  0  0  0  0  0
   14.5577   22.1650   -0.4226 C   0  0  0  0  0  0  0  0  0  0  0  0
   15.2067   22.1701    0.6314 O   0  0  0  0  0  0  0  0  0  0  0  0
   15.0760   22.6172   -1.5456 O   0  0  0  0  0  0  0  0  0  0  0  0
   15.1363   23.6912   -2.3522 C   0  0  0  0  0  0  0  0  0  0  0  0
   13.5336   25.3777   -1.6673 C   0  0  0  0  0  0  0  0  0  0  0  0
   13.6484   26.7075   -2.3723 C   0  0  0  0  0  0  0  0  0  0  0  0
   13.6588   26.4622   -3.8423 C   0  0  0  0  0  0  0  0  0  0  0  0
   13.7874   24.9596   -4.0532 C   0  0  0  0  0  0  0  0  0  0  0  0
   13.8611   24.3355   -2.7423 C   0  0  0  0  0  0  0  0  0  0  0  0
   13.1265   24.8076    0.9704 O   0  0  0  0  0  0  0  0  0  0  0  0
   12.0806   24.8904    0.2620 C   0  0  0  0  0  0  0  0  0  0  0  0
   12.2134   25.1791   -1.1021 N   0  0  0  0  0  0  0  0  0  0  0  0
   11.3580   25.2499   -1.7123 H   0  0  0  0  0  0  0  0  0  0  0  0
   10.8070   24.6839    0.8947 C   0  0  0  0  0  0  0  0  0  0  0  0
    9.7829   24.0672    0.2196 C   0  0  0  0  0  0  0  0  0  0  0  0
    8.5400   23.8629    0.8240 C   0  0  0  0  0  0  0  0  0  0  0  0
    8.3407   24.2862    2.1150 C   0  0  0  0  0  0  0  0  0  0  0  0
    7.1055   24.0912    2.7374 O   0  0  0  0  0  0  0  0  0  0  0  0
    9.3710   24.9056    2.7916 C   0  0  0  0  0  0  0  0  0  0  0  0
   10.5987   25.1111    2.2043 C   0  0  0  0  0  0  0  0  0  0  0  0
    6.9036   23.2603    3.2619 H   0  0  0  0  0  0  0  0  0  0  0  0
    9.2965   19.9094   -0.1513 C   0  0  0  0  0  0  0  0  0  0  0  0
    9.4391   18.6054   -0.2261 O   0  0  0  0  0  0  0  0  0  0  0  0
    7.9409   20.3625    0.0219 C   0  0  0  0  0  0  0  0  0  0  0  0
    7.6342   20.7253    1.3590 C   0  0  0  0  0  0  0  0  0  0  0  0
    8.6182   20.6302    2.3329 O   0  0  0  0  0  0  0  0  0  0  0  0
    6.4011   21.1671    1.7268 C   0  0  0  0  0  0  0  0  0  0  0  0
    5.4497   21.2499    0.7402 C   0  0  0  0  0  0  0  0  0  0  0  0
    5.7134   20.9058   -0.5479 C   0  0  0  0  0  0  0  0  0  0  0  0
    7.0017   20.4369   -0.9457 C   0  0  0  0  0  0  0  0  0  0  0  0
    8.3884   20.8906    3.2760 H   0  0  0  0  0  0  0  0  0  0  0  0
    7.1063   19.8909   -2.2800 C   0  0  0  0  0  0  0  0  0  0  0  0
    6.2733   18.9787   -2.6085 O   0  0  0  0  0  0  0  0  0  0  0  0
    7.9980   20.2234   -3.2370 O   0  0  0  0  0  0  0  0  0  0  0  0
    8.2135   19.7137   -4.0707 H   0  0  0  0  0  0  0  0  0  0  0  0
 20 21  2  0  0  0
 21 22  1  0  0  0
 22 15  1  0  0  0
 15 16  1  0  0  0
 16 17  1  0  0  0
 17 18  1  0  0  0
 18 19  1  0  0  0
 19 14  1  0  0  0
 14 13  1  0  0  0
 13 11  1  0  0  0
 11 12  2  0  0  0
 11  1  1  0  0  0
  1  2  2  0  0  0
  2  3  1  0  0  0
  3  4  1  0  0  0
  3  5  2  0  0  0
  5 32  1  0  0  0
 32 33  2  0  0  0
 32 34  1  0  0  0
 34 35  2  0  0  0
 35 36  1  0  0  0
 35 37  1  0  0  0
 37 38  2  0  0  0
 38 39  1  0  0  0
 39 40  2  0  0  0
 40 42  1  0  0  0
 42 43  2  0  0  0
 42 44  1  0  0  0
  5  6  1  0  0  0
  6  7  1  0  0  0
  6  8  2  0  0  0
 21 24  1  0  0  0
 24 25  2  0  0  0
 25 26  1  0  0  0
 26 27  2  0  0  0
 27 28  1  0  0  0
 27 29  1  0  0  0
 29 30  2  0  0  0
 19 15  1  0  0  0
  8  1  1  0  0  0
 30 24  1  0  0  0
 40 34  1  0  0  0
 22 23  1  0  0  0
  4  9  1  0  0  0
 36 41  1  0  0  0
 44 45  1  0  0  0
  7 10  1  0  0  0
 28 31  1  0  0  0
M  END
> <minimizedAffinity>
-5.67756

> <CNNscore>
0.3546385467

> <CNNaffinity>
6.6244277954

> <CNN_VS>
2.3492774963

> <CNNaffinity_variance>
0.2306064665

$$$$
[H]OC(=O)c1c([H])c([H])c([H])c(O[H])c1C(=O)c1c(O[H])c([H])c(C(=O)OC([H])([H])[C@]2([H])C([H])([H])C([H])([H])C([H])([H])[C@@]2([H])N([H])C(=O)c2c([H])c([H])c(O[H])c([H])c2[H])c([H])c1O[H]


 45 48  0  0  0  0  0  0  0  0999 V2000
   17.0452   21.8757   -1.3262 C   0  0  0  0  0  0  0  0  0  0  0  0
   17.6999   23.0679   -1.2413 C   0  0  0  0  0  0  0  0  0  0  0  0
   17.3718   24.1411   -2.0814 C   0  0  0  0  0  0  0  0  0  0  0  0
   18.0930   25.2963   -1.9034 O   0  0  0  0  0  0  0  0  0  0  0  0
   16.3771   24.0406   -3.0286 C   0  0  0  0  0  0  0  0  0  0  0  0
   15.7097   22.8103   -3.1096 C   0  0  0  0  0  0  0  0  0  0  0  0
   14.6809   22.5837   -4.0423 O   0  0  0  0  0  0  0  0  0  0  0  0
   16.0527   21.7762   -2.2713 C   0  0  0  0  0  0  0  0  0  0  0  0
   18.0411   26.1699   -2.3360 H   0  0  0  0  0  0  0  0  0  0  0  0
   14.2232   21.7075   -4.0812 H   0  0  0  0  0  0  0  0  0  0  0  0
   17.3793   20.7347   -0.4434 C   0  0  0  0  0  0  0  0  0  0  0  0
   18.5532   20.3424   -0.4354 O   0  0  0  0  0  0  0  0  0  0  0  0
   16.4617   20.1584    0.3051 O   0  0  0  0  0  0  0  0  0  0  0  0
   15.1555   19.8453    0.3636 C   0  0  0  0  0  0  0  0  0  0  0  0
   13.0626   20.0997    1.5623 C   0  0  0  0  0  0  0  0  0  0  0  0
   13.1902   20.3884    3.0384 C   0  0  0  0  0  0  0  0  0  0  0  0
   14.1180   21.5414    3.2147 C   0  0  0  0  0  0  0  0  0  0  0  0
   14.7556   21.8250    1.8612 C   0  0  0  0  0  0  0  0  0  0  0  0
   14.2256   20.8584    0.9135 C   0  0  0  0  0  0  0  0  0  0  0  0
   12.3620   22.7255    1.3119 O   0  0  0  0  0  0  0  0  0  0  0  0
   11.4882   21.8893    0.9380 C   0  0  0  0  0  0  0  0  0  0  0  0
   11.7784   20.5228    1.0390 N   0  0  0  0  0  0  0  0  0  0  0  0
   11.0661   19.8082    0.7372 H   0  0  0  0  0  0  0  0  0  0  0  0
   10.2400   22.3854    0.4273 C   0  0  0  0  0  0  0  0  0  0  0  0
    9.9769   22.3616   -0.9199 C   0  0  0  0  0  0  0  0  0  0  0  0
    8.7677   22.8430   -1.4277 C   0  0  0  0  0  0  0  0  0  0  0  0
    7.8272   23.3477   -0.5638 C   0  0  0  0  0  0  0  0  0  0  0  0
    6.6117   23.8337   -1.0513 O   0  0  0  0  0  0  0  0  0  0  0  0
    8.0934   23.3707    0.7896 C   0  0  0  0  0  0  0  0  0  0  0  0
    9.2818   22.8987    1.2988 C   0  0  0  0  0  0  0  0  0  0  0  0
    5.8093   23.2408   -1.1551 H   0  0  0  0  0  0  0  0  0  0  0  0
   16.0747   25.0076   -4.0327 C   0  0  0  0  0  0  0  0  0  0  0  0
   16.2929   24.5571   -5.2475 O   0  0  0  0  0  0  0  0  0  0  0  0
   15.5696   26.3542   -3.9666 C   0  0  0  0  0  0  0  0  0  0  0  0
   14.1691   26.4210   -3.7479 C   0  0  0  0  0  0  0  0  0  0  0  0
   13.4448   25.2452   -3.6106 O   0  0  0  0  0  0  0  0  0  0  0  0
   13.5025   27.6042   -3.6668 C   0  0  0  0  0  0  0  0  0  0  0  0
   14.2474   28.7492   -3.8068 C   0  0  0  0  0  0  0  0  0  0  0  0
   15.5892   28.7161   -4.0209 C   0  0  0  0  0  0  0  0  0  0  0  0
   16.2995   27.4812   -4.1121 C   0  0  0  0  0  0  0  0  0  0  0  0
   12.4538   25.3061   -3.4556 H   0  0  0  0  0  0  0  0  0  0  0  0
   17.6712   27.5571   -4.5616 C   0  0  0  0  0  0  0  0  0  0  0  0
   18.5355   28.0109   -3.7363 O   0  0  0  0  0  0  0  0  0  0  0  0
   18.1607   27.2117   -5.7709 O   0  0  0  0  0  0  0  0  0  0  0  0
   19.0503   27.4550   -6.1589 H   0  0  0  0  0  0  0  0  0  0  0  0
 20 21  2  0  0  0
 21 22  1  0  0  0
 22 15  1  0  0  0
 15 16  1  0  0  0
 16 17  1  0  0  0
 17 18  1  0  0  0
 18 19  1  0  0  0
 19 14  1  0  0  0
 14 13  1  0  0  0
 13 11  1  0  0  0
 11 12  2  0  0  0
 11  1  1  0  0  0
  1  2  2  0  0  0
  2  3  1  0  0  0
  3  4  1  0  0  0
  3  5  2  0  0  0
  5 32  1  0  0  0
 32 33  2  0  0  0
 32 34  1  0  0  0
 34 35  2  0  0  0
 35 36  1  0  0  0
 35 37  1  0  0  0
 37 38  2  0  0  0
 38 39  1  0  0  0
 39 40  2  0  0  0
 40 42  1  0  0  0
 42 43  2  0  0  0
 42 44  1  0  0  0
  5  6  1  0  0  0
  6  7  1  0  0  0
  6  8  2  0  0  0
 21 24  1  0  0  0
 24 25  2  0  0  0
 25 26  1  0  0  0
 26 27  2  0  0  0
 27 28  1  0  0  0
 27 29  1  0  0  0
 29 30  2  0  0  0
 19 15  1  0  0  0
  8  1  1  0  0  0
 30 24  1  0  0  0
 40 34  1  0  0  0
 22 23  1  0  0  0
  4  9  1  0  0  0
 36 41  1  0  0  0
 44 45  1  0  0  0
  7 10  1  0  0  0
 28 31  1  0  0  0
M  END
> <minimizedAffinity>
42.67829

> <CNNscore>
0.3465248346

> <CNNaffinity>
5.8141078949

> <CNN_VS>
2.0147328377

> <CNNaffinity_variance>
1.2809809446

$$$$
[H]OC(=O)c1c([H])c([H])c([H])c(O[H])c1C(=O)c1c(O[H])c([H])c(C(=O)OC([H])([H])[C@]2([H])C([H])([H])C([H])([H])C([H])([H])[C@@]2([H])N([H])C(=O)c2c([H])c([H])c(O[H])c([H])c2[H])c([H])c1O[H]


 45 48  0  0  0  0  0  0  0  0999 V2000
   13.0796   21.3126   -0.7141 C   0  0  0  0  0  0  0  0  0  0  0  0
   12.1604   21.5537   -1.6909 C   0  0  0  0  0  0  0  0  0  0  0  0
   10.8232   21.1580   -1.5472 C   0  0  0  0  0  0  0  0  0  0  0  0
    9.9838   21.4581   -2.5921 O   0  0  0  0  0  0  0  0  0  0  0  0
   10.3782   20.5086   -0.4172 C   0  0  0  0  0  0  0  0  0  0  0  0
   11.3308   20.2638    0.5819 C   0  0  0  0  0  0  0  0  0  0  0  0
   10.9987   19.6017    1.7782 O   0  0  0  0  0  0  0  0  0  0  0  0
   12.6348   20.6650    0.4133 C   0  0  0  0  0  0  0  0  0  0  0  0
    9.0271   21.3133   -2.7214 H   0  0  0  0  0  0  0  0  0  0  0  0
   11.6874   19.4401    2.4699 H   0  0  0  0  0  0  0  0  0  0  0  0
   14.4944   21.7276   -0.8511 C   0  0  0  0  0  0  0  0  0  0  0  0
   15.2351   21.0152   -1.5410 O   0  0  0  0  0  0  0  0  0  0  0  0
   14.9481   22.8137   -0.2607 O   0  0  0  0  0  0  0  0  0  0  0  0
   14.5945   23.8402    0.5323 C   0  0  0  0  0  0  0  0  0  0  0  0
   13.1779   24.4267   -1.3470 C   0  0  0  0  0  0  0  0  0  0  0  0
   11.6996   24.4949   -1.0499 C   0  0  0  0  0  0  0  0  0  0  0  0
   11.4978   25.3696    0.1399 C   0  0  0  0  0  0  0  0  0  0  0  0
   12.8709   25.6602    0.7306 C   0  0  0  0  0  0  0  0  0  0  0  0
   13.8562   24.9670   -0.0832 C   0  0  0  0  0  0  0  0  0  0  0  0
   15.5943   24.2025   -2.5956 O   0  0  0  0  0  0  0  0  0  0  0  0
   14.7873   25.0295   -3.1126 C   0  0  0  0  0  0  0  0  0  0  0  0
   13.5278   25.1981   -2.5236 N   0  0  0  0  0  0  0  0  0  0  0  0
   12.8406   25.8826   -2.9339 H   0  0  0  0  0  0  0  0  0  0  0  0
   15.2050   25.7550   -4.2806 C   0  0  0  0  0  0  0  0  0  0  0  0
   15.7327   27.0173   -4.1678 C   0  0  0  0  0  0  0  0  0  0  0  0
   16.1403   27.7328   -5.2965 C   0  0  0  0  0  0  0  0  0  0  0  0
   16.0107   27.1624   -6.5389 C   0  0  0  0  0  0  0  0  0  0  0  0
   16.4125   27.8609   -7.6800 O   0  0  0  0  0  0  0  0  0  0  0  0
   15.4802   25.8938   -6.6501 C   0  0  0  0  0  0  0  0  0  0  0  0
   15.0760   25.1817   -5.5439 C   0  0  0  0  0  0  0  0  0  0  0  0
   17.3461   27.7919   -8.0401 H   0  0  0  0  0  0  0  0  0  0  0  0
    9.0890   19.9250   -0.2383 C   0  0  0  0  0  0  0  0  0  0  0  0
    9.1178   18.6128   -0.2977 O   0  0  0  0  0  0  0  0  0  0  0  0
    7.7888   20.4929    0.0062 C   0  0  0  0  0  0  0  0  0  0  0  0
    7.6195   20.9628    1.3344 C   0  0  0  0  0  0  0  0  0  0  0  0
    8.6701   20.8530    2.2344 O   0  0  0  0  0  0  0  0  0  0  0  0
    6.4561   21.5222    1.7638 C   0  0  0  0  0  0  0  0  0  0  0  0
    5.4360   21.6165    0.8496 C   0  0  0  0  0  0  0  0  0  0  0  0
    5.5678   21.1716   -0.4279 C   0  0  0  0  0  0  0  0  0  0  0  0
    6.7817   20.5790   -0.8896 C   0  0  0  0  0  0  0  0  0  0  0  0
    8.5377   21.1900    3.1718 H   0  0  0  0  0  0  0  0  0  0  0  0
    6.7370   19.9428   -2.1868 C   0  0  0  0  0  0  0  0  0  0  0  0
    5.7288   19.1996   -2.4422 O   0  0  0  0  0  0  0  0  0  0  0  0
    7.6500   20.0291   -3.1769 O   0  0  0  0  0  0  0  0  0  0  0  0
    7.7353   19.4365   -3.9787 H   0  0  0  0  0  0  0  0  0  0  0  0
 20 21  2  0  0  0
 21 22  1  0  0  0
 22 15  1  0  0  0
 15 16  1  0  0  0
 16 17  1  0  0  0
 17 18  1  0  0  0
 18 19  1  0  0  0
 19 14  1  0  0  0
 14 13  1  0  0  0
 13 11  1  0  0  0
 11 12  2  0  0  0
 11  1  1  0  0  0
  1  2  2  0  0  0
  2  3  1  0  0  0
  3  4  1  0  0  0
  3  5  2  0  0  0
  5 32  1  0  0  0
 32 33  2  0  0  0
 32 34  1  0  0  0
 34 35  2  0  0  0
 35 36  1  0  0  0
 35 37  1  0  0  0
 37 38  2  0  0  0
 38 39  1  0  0  0
 39 40  2  0  0  0
 40 42  1  0  0  0
 42 43  2  0  0  0
 42 44  1  0  0  0
  5  6  1  0  0  0
  6  7  1  0  0  0
  6  8  2  0  0  0
 21 24  1  0  0  0
 24 25  2  0  0  0
 25 26  1  0  0  0
 26 27  2  0  0  0
 27 28  1  0  0  0
 27 29  1  0  0  0
 29 30  2  0  0  0
 19 15  1  0  0  0
  8  1  1  0  0  0
 30 24  1  0  0  0
 40 34  1  0  0  0
 22 23  1  0  0  0
  4  9  1  0  0  0
 36 41  1  0  0  0
 44 45  1  0  0  0
  7 10  1  0  0  0
 28 31  1  0  0  0
M  END
> <minimizedAffinity>
-6.82953

> <CNNscore>
0.3195624053

> <CNNaffinity>
6.7027688026

> <CNN_VS>
2.1419529915

> <CNNaffinity_variance>
0.1716275215

$$$$
[H]OC(=O)c1c([H])c([H])c([H])c(O[H])c1C(=O)c1c(O[H])c([H])c(C(=O)OC([H])([H])[C@]2([H])C([H])([H])C([H])([H])C([H])([H])[C@@]2([H])N([H])C(=O)c2c([H])c([H])c(O[H])c([H])c2[H])c([H])c1O[H]


 45 48  0  0  0  0  0  0  0  0999 V2000
   11.3771   23.9534   -0.5634 C   0  0  0  0  0  0  0  0  0  0  0  0
   10.0580   24.0078   -0.2257 C   0  0  0  0  0  0  0  0  0  0  0  0
    9.2896   22.8422   -0.0977 C   0  0  0  0  0  0  0  0  0  0  0  0
    7.9730   23.0163    0.2525 O   0  0  0  0  0  0  0  0  0  0  0  0
    9.8297   21.5929   -0.3077 C   0  0  0  0  0  0  0  0  0  0  0  0
   11.1870   21.5465   -0.6558 C   0  0  0  0  0  0  0  0  0  0  0  0
   11.8490   20.3297   -0.9027 O   0  0  0  0  0  0  0  0  0  0  0  0
   11.9154   22.7065   -0.7724 C   0  0  0  0  0  0  0  0  0  0  0  0
    7.2544   22.3779    0.4233 H   0  0  0  0  0  0  0  0  0  0  0  0
   12.8078   20.3208   -1.1465 H   0  0  0  0  0  0  0  0  0  0  0  0
   12.2013   25.1760   -0.6992 C   0  0  0  0  0  0  0  0  0  0  0  0
   12.0273   25.8741   -1.7064 O   0  0  0  0  0  0  0  0  0  0  0  0
   13.0869   25.5083    0.2171 O   0  0  0  0  0  0  0  0  0  0  0  0
   14.2896   25.1861    0.7242 C   0  0  0  0  0  0  0  0  0  0  0  0
   16.2678   25.1671   -0.6789 C   0  0  0  0  0  0  0  0  0  0  0  0
   17.5361   24.6990   -0.0075 C   0  0  0  0  0  0  0  0  0  0  0  0
   17.2648   23.3903    0.6521 C   0  0  0  0  0  0  0  0  0  0  0  0
   15.7620   23.1522    0.5924 C   0  0  0  0  0  0  0  0  0  0  0  0
   15.1611   24.2950   -0.0757 C   0  0  0  0  0  0  0  0  0  0  0  0
   14.8495   26.7591   -2.3825 O   0  0  0  0  0  0  0  0  0  0  0  0
   15.5837   25.8876   -2.9336 C   0  0  0  0  0  0  0  0  0  0  0  0
   16.3398   25.0336   -2.1207 N   0  0  0  0  0  0  0  0  0  0  0  0
   16.9557   24.2987   -2.5562 H   0  0  0  0  0  0  0  0  0  0  0  0
   15.6047   25.8184   -4.3689 C   0  0  0  0  0  0  0  0  0  0  0  0
   15.6895   26.9626   -5.1227 C   0  0  0  0  0  0  0  0  0  0  0  0
   15.7088   26.9074   -6.5186 C   0  0  0  0  0  0  0  0  0  0  0  0
   15.6420   25.6876   -7.1458 C   0  0  0  0  0  0  0  0  0  0  0  0
   15.6601   25.6108   -8.5405 O   0  0  0  0  0  0  0  0  0  0  0  0
   15.5569   24.5391   -6.3864 C   0  0  0  0  0  0  0  0  0  0  0  0
   15.5373   24.5838   -5.0110 C   0  0  0  0  0  0  0  0  0  0  0  0
   16.5179   25.5280   -9.0538 H   0  0  0  0  0  0  0  0  0  0  0  0
    9.1061   20.3647   -0.3612 C   0  0  0  0  0  0  0  0  0  0  0  0
    9.7803   19.3605    0.1516 O   0  0  0  0  0  0  0  0  0  0  0  0
    7.7937   20.0287   -0.8483 C   0  0  0  0  0  0  0  0  0  0  0  0
    7.6937   20.0545   -2.2635 C   0  0  0  0  0  0  0  0  0  0  0  0
    8.8135   20.3721   -3.0192 O   0  0  0  0  0  0  0  0  0  0  0  0
    6.5317   19.7774   -2.9145 C   0  0  0  0  0  0  0  0  0  0  0  0
    5.4422   19.4669   -2.1386 C   0  0  0  0  0  0  0  0  0  0  0  0
    5.5070   19.4381   -0.7813 C   0  0  0  0  0  0  0  0  0  0  0  0
    6.7190   19.7310   -0.0863 C   0  0  0  0  0  0  0  0  0  0  0  0
    8.7297   20.3865   -4.0206 H   0  0  0  0  0  0  0  0  0  0  0  0
    6.6191   19.8900    1.3470 C   0  0  0  0  0  0  0  0  0  0  0  0
    6.1458   18.9085    2.0153 O   0  0  0  0  0  0  0  0  0  0  0  0
    6.9601   20.9705    2.0803 O   0  0  0  0  0  0  0  0  0  0  0  0
    6.7016   21.1696    3.0262 H   0  0  0  0  0  0  0  0  0  0  0  0
 20 21  2  0  0  0
 21 22  1  0  0  0
 22 15  1  0  0  0
 15 16  1  0  0  0
 16 17  1  0  0  0
 17 18  1  0  0  0
 18 19  1  0  0  0
 19 14  1  0  0  0
 14 13  1  0  0  0
 13 11  1  0  0  0
 11 12  2  0  0  0
 11  1  1  0  0  0
  1  2  2  0  0  0
  2  3  1  0  0  0
  3  4  1  0  0  0
  3  5  2  0  0  0
  5 32  1  0  0  0
 32 33  2  0  0  0
 32 34  1  0  0  0
 34 35  2  0  0  0
 35 36  1  0  0  0
 35 37  1  0  0  0
 37 38  2  0  0  0
 38 39  1  0  0  0
 39 40  2  0  0  0
 40 42  1  0  0  0
 42 43  2  0  0  0
 42 44  1  0  0  0
  5  6  1  0  0  0
  6  7  1  0  0  0
  6  8  2  0  0  0
 21 24  1  0  0  0
 24 25  2  0  0  0
 25 26  1  0  0  0
 26 27  2  0  0  0
 27 28  1  0  0  0
 27 29  1  0  0  0
 29 30  2  0  0  0
 19 15  1  0  0  0
  8  1  1  0  0  0
 30 24  1  0  0  0
 40 34  1  0  0  0
 22 23  1  0  0  0
  4  9  1  0  0  0
 36 41  1  0  0  0
 44 45  1  0  0  0
  7 10  1  0  0  0
 28 31  1  0  0  0
M  END
> <minimizedAffinity>
-5.81036

> <CNNscore>
0.3126588762

> <CNNaffinity>
6.6775274277

> <CNN_VS>
2.0877881050

> <CNNaffinity_variance>
0.2169207782

$$$$
[H]OC(=O)c1c([H])c([H])c([H])c(O[H])c1C(=O)c1c(O[H])c([H])c(C(=O)OC([H])([H])[C@]2([H])C([H])([H])C([H])([H])C([H])([H])[C@@]2([H])N([H])C(=O)c2c([H])c([H])c(O[H])c([H])c2[H])c([H])c1O[H]


 45 48  0  0  0  0  0  0  0  0999 V2000
   12.3948   23.9280    0.0306 C   0  0  0  0  0  0  0  0  0  0  0  0
   12.0952   24.9452   -0.8253 C   0  0  0  0  0  0  0  0  0  0  0  0
   12.8848   25.2044   -1.9543 C   0  0  0  0  0  0  0  0  0  0  0  0
   12.4853   26.2504   -2.7496 O   0  0  0  0  0  0  0  0  0  0  0  0
   13.9964   24.4467   -2.2492 C   0  0  0  0  0  0  0  0  0  0  0  0
   14.2977   23.4032   -1.3627 C   0  0  0  0  0  0  0  0  0  0  0  0
   15.4118   22.5652   -1.5535 O   0  0  0  0  0  0  0  0  0  0  0  0
   13.5039   23.1722   -0.2644 C   0  0  0  0  0  0  0  0  0  0  0  0
   12.8440   26.6083   -3.5840 H   0  0  0  0  0  0  0  0  0  0  0  0
   15.6049   21.8344   -0.9152 H   0  0  0  0  0  0  0  0  0  0  0  0
   11.5681   23.6410    1.2251 C   0  0  0  0  0  0  0  0  0  0  0  0
   11.8191   22.6083    1.8597 O   0  0  0  0  0  0  0  0  0  0  0  0
   10.6015   24.4537    1.5984 O   0  0  0  0  0  0  0  0  0  0  0  0
    9.8113   24.7892    2.6331 C   0  0  0  0  0  0  0  0  0  0  0  0
    7.9833   23.2526    3.0568 C   0  0  0  0  0  0  0  0  0  0  0  0
    7.1378   23.5667    4.2672 C   0  0  0  0  0  0  0  0  0  0  0  0
    6.7075   24.9912    4.1848 C   0  0  0  0  0  0  0  0  0  0  0  0
    7.4790   25.6354    3.0408 C   0  0  0  0  0  0  0  0  0  0  0  0
    8.3490   24.6204    2.4697 C   0  0  0  0  0  0  0  0  0  0  0  0
    9.1573   21.1622    1.7530 O   0  0  0  0  0  0  0  0  0  0  0  0
    7.9400   21.3664    1.4720 C   0  0  0  0  0  0  0  0  0  0  0  0
    7.2726   22.4241    2.1027 N   0  0  0  0  0  0  0  0  0  0  0  0
    6.2606   22.6155    1.8828 H   0  0  0  0  0  0  0  0  0  0  0  0
    7.3028   20.5007    0.5184 C   0  0  0  0  0  0  0  0  0  0  0  0
    7.8877   20.2496   -0.6979 C   0  0  0  0  0  0  0  0  0  0  0  0
    7.2764   19.4113   -1.6335 C   0  0  0  0  0  0  0  0  0  0  0  0
    6.0704   18.8290   -1.3300 C   0  0  0  0  0  0  0  0  0  0  0  0
    5.4428   17.9874   -2.2515 O   0  0  0  0  0  0  0  0  0  0  0  0
    5.4842   19.0826   -0.1072 C   0  0  0  0  0  0  0  0  0  0  0  0
    6.0791   19.9070    0.8205 C   0  0  0  0  0  0  0  0  0  0  0  0
    5.6131   16.9991   -2.2655 H   0  0  0  0  0  0  0  0  0  0  0  0
   14.9515   24.7221   -3.2723 C   0  0  0  0  0  0  0  0  0  0  0  0
   15.1134   23.7108   -4.0952 O   0  0  0  0  0  0  0  0  0  0  0  0
   15.7449   25.8844   -3.5759 C   0  0  0  0  0  0  0  0  0  0  0  0
   16.7591   26.1410   -2.6173 C   0  0  0  0  0  0  0  0  0  0  0  0
   16.9017   25.2878   -1.5322 O   0  0  0  0  0  0  0  0  0  0  0  0
   17.6054   27.2011   -2.7216 C   0  0  0  0  0  0  0  0  0  0  0  0
   17.4386   28.0264   -3.8063 C   0  0  0  0  0  0  0  0  0  0  0  0
   16.4738   27.8079   -4.7383 C   0  0  0  0  0  0  0  0  0  0  0  0
   15.5770   26.7017   -4.6380 C   0  0  0  0  0  0  0  0  0  0  0  0
   17.6241   25.4801   -0.8606 H   0  0  0  0  0  0  0  0  0  0  0  0
   14.4577   26.6931   -5.5526 C   0  0  0  0  0  0  0  0  0  0  0  0
   14.6911   26.3568   -6.7635 O   0  0  0  0  0  0  0  0  0  0  0  0
   13.1740   27.0121   -5.2844 O   0  0  0  0  0  0  0  0  0  0  0  0
   12.4474   27.2134   -5.9421 H   0  0  0  0  0  0  0  0  0  0  0  0
 20 21  2  0  0  0
 21 22  1  0  0  0
 22 15  1  0  0  0
 15 16  1  0  0  0
 16 17  1  0  0  0
 17 18  1  0  0  0
 18 19  1  0  0  0
 19 14  1  0  0  0
 14 13  1  0  0  0
 13 11  1  0  0  0
 11 12  2  0  0  0
 11  1  1  0  0  0
  1  2  2  0  0  0
  2  3  1  0  0  0
  3  4  1  0  0  0
  3  5  2  0  0  0
  5 32  1  0  0  0
 32 33  2  0  0  0
 32 34  1  0  0  0
 34 35  2  0  0  0
 35 36  1  0  0  0
 35 37  1  0  0  0
 37 38  2  0  0  0
 38 39  1  0  0  0
 39 40  2  0  0  0
 40 42  1  0  0  0
 42 43  2  0  0  0
 42 44  1  0  0  0
  5  6  1  0  0  0
  6  7  1  0  0  0
  6  8  2  0  0  0
 21 24  1  0  0  0
 24 25  2  0  0  0
 25 26  1  0  0  0
 26 27  2  0  0  0
 27 28  1  0  0  0
 27 29  1  0  0  0
 29 30  2  0  0  0
 19 15  1  0  0  0
  8  1  1  0  0  0
 30 24  1  0  0  0
 40 34  1  0  0  0
 22 23  1  0  0  0
  4  9  1  0  0  0
 36 41  1  0  0  0
 44 45  1  0  0  0
  7 10  1  0  0  0
 28 31  1  0  0  0
M  END
> <minimizedAffinity>
-9.05185

> <CNNscore>
0.3048310280

> <CNNaffinity>
6.6494765282

> <CNN_VS>
2.0269668102

> <CNNaffinity_variance>
0.7180063725

$$$$
[H]OC(=O)c1c([H])c([H])c([H])c(O[H])c1C(=O)c1c(O[H])c([H])c(C(=O)OC([H])([H])[C@]2([H])C([H])([H])C([H])([H])C([H])([H])[C@@]2([H])N([H])C(=O)c2c([H])c([H])c(O[H])c([H])c2[H])c([H])c1O[H]


 45 48  0  0  0  0  0  0  0  0999 V2000
   12.1602   20.9115    0.2093 C   0  0  0  0  0  0  0  0  0  0  0  0
   12.7415   20.7181   -1.0080 C   0  0  0  0  0  0  0  0  0  0  0  0
   13.6457   21.6480   -1.5400 C   0  0  0  0  0  0  0  0  0  0  0  0
   14.1744   21.3473   -2.7714 O   0  0  0  0  0  0  0  0  0  0  0  0
   13.9864   22.7964   -0.8604 C   0  0  0  0  0  0  0  0  0  0  0  0
   13.3828   22.9876    0.3905 C   0  0  0  0  0  0  0  0  0  0  0  0
   13.6455   24.1254    1.1755 O   0  0  0  0  0  0  0  0  0  0  0  0
   12.5008   22.0573    0.8870 C   0  0  0  0  0  0  0  0  0  0  0  0
   14.8272   21.8100   -3.3307 H   0  0  0  0  0  0  0  0  0  0  0  0
   13.2085   24.2393    2.0557 H   0  0  0  0  0  0  0  0  0  0  0  0
   11.2058   19.9365    0.7847 C   0  0  0  0  0  0  0  0  0  0  0  0
   11.3128   19.6743    1.9896 O   0  0  0  0  0  0  0  0  0  0  0  0
   10.2780   19.3689    0.0423 O   0  0  0  0  0  0  0  0  0  0  0  0
    9.1356   19.6044   -0.6264 C   0  0  0  0  0  0  0  0  0  0  0  0
    7.5043   21.3590   -0.2492 C   0  0  0  0  0  0  0  0  0  0  0  0
    6.1782   21.1740   -0.9461 C   0  0  0  0  0  0  0  0  0  0  0  0
    5.6658   19.8106   -0.6300 C   0  0  0  0  0  0  0  0  0  0  0  0
    6.7843   19.0549    0.0747 C   0  0  0  0  0  0  0  0  0  0  0  0
    7.9299   19.9455    0.1632 C   0  0  0  0  0  0  0  0  0  0  0  0
    9.3489   23.2949    0.2963 O   0  0  0  0  0  0  0  0  0  0  0  0
    8.3801   23.2200    1.1075 C   0  0  0  0  0  0  0  0  0  0  0  0
    7.3951   22.2481    0.8908 N   0  0  0  0  0  0  0  0  0  0  0  0
    6.5812   22.1644    1.5539 H   0  0  0  0  0  0  0  0  0  0  0  0
    8.3394   24.1381    2.2123 C   0  0  0  0  0  0  0  0  0  0  0  0
    7.2331   24.2087    3.0222 C   0  0  0  0  0  0  0  0  0  0  0  0
    7.1817   25.0988    4.0978 C   0  0  0  0  0  0  0  0  0  0  0  0
    8.2565   25.9160    4.3482 C   0  0  0  0  0  0  0  0  0  0  0  0
    8.2252   26.8127    5.4188 O   0  0  0  0  0  0  0  0  0  0  0  0
    9.3672   25.8435    3.5332 C   0  0  0  0  0  0  0  0  0  0  0  0
    9.4267   24.9698    2.4714 C   0  0  0  0  0  0  0  0  0  0  0  0
    8.5481   26.5554    6.3329 H   0  0  0  0  0  0  0  0  0  0  0  0
   14.7636   23.8760   -1.3751 C   0  0  0  0  0  0  0  0  0  0  0  0
   15.9565   23.9429   -0.8286 O   0  0  0  0  0  0  0  0  0  0  0  0
   14.4968   24.8779   -2.3740 C   0  0  0  0  0  0  0  0  0  0  0  0
   15.6349   25.2170   -3.1506 C   0  0  0  0  0  0  0  0  0  0  0  0
   16.8422   24.5789   -2.9036 O   0  0  0  0  0  0  0  0  0  0  0  0
   15.5881   26.1523   -4.1375 C   0  0  0  0  0  0  0  0  0  0  0  0
   14.3793   26.7655   -4.3572 C   0  0  0  0  0  0  0  0  0  0  0  0
   13.2734   26.4640   -3.6268 C   0  0  0  0  0  0  0  0  0  0  0  0
   13.3105   25.4877   -2.5860 C   0  0  0  0  0  0  0  0  0  0  0  0
   17.6407   24.8277   -3.4609 H   0  0  0  0  0  0  0  0  0  0  0  0
   12.1463   25.4091   -1.7327 C   0  0  0  0  0  0  0  0  0  0  0  0
   12.1914   26.0339   -0.6185 O   0  0  0  0  0  0  0  0  0  0  0  0
   10.9997   24.7366   -1.9660 O   0  0  0  0  0  0  0  0  0  0  0  0
   10.2866   24.5026   -1.3041 H   0  0  0  0  0  0  0  0  0  0  0  0
 20 21  2  0  0  0
 21 22  1  0  0  0
 22 15  1  0  0  0
 15 16  1  0  0  0
 16 17  1  0  0  0
 17 18  1  0  0  0
 18 19  1  0  0  0
 19 14  1  0  0  0
 14 13  1  0  0  0
 13 11  1  0  0  0
 11 12  2  0  0  0
 11  1  1  0  0  0
  1  2  2  0  0  0
  2  3  1  0  0  0
  3  4  1  0  0  0
  3  5  2  0  0  0
  5 32  1  0  0  0
 32 33  2  0  0  0
 32 34  1  0  0  0
 34 35  2  0  0  0
 35 36  1  0  0  0
 35 37  1  0  0  0
 37 38  2  0  0  0
 38 39  1  0  0  0
 39 40  2  0  0  0
 40 42  1  0  0  0
 42 43  2  0  0  0
 42 44  1  0  0  0
  5  6  1  0  0  0
  6  7  1  0  0  0
  6  8  2  0  0  0
 21 24  1  0  0  0
 24 25  2  0  0  0
 25 26  1  0  0  0
 26 27  2  0  0  0
 27 28  1  0  0  0
 27 29  1  0  0  0
 29 30  2  0  0  0
 19 15  1  0  0  0
  8  1  1  0  0  0
 30 24  1  0  0  0
 40 34  1  0  0  0
 22 23  1  0  0  0
  4  9  1  0  0  0
 36 41  1  0  0  0
 44 45  1  0  0  0
  7 10  1  0  0  0
 28 31  1  0  0  0
M  END
> <minimizedAffinity>
-8.21861

> <CNNscore>
0.2906942666

> <CNNaffinity>
6.3929963112

> <CNN_VS>
1.8584073782

> <CNNaffinity_variance>
0.0648264810

$$$$
[H]OC(=O)c1c([H])c([H])c([H])c(O[H])c1C(=O)c1c(O[H])c([H])c(C(=O)OC([H])([H])[C@]2([H])C([H])([H])C([H])([H])C([H])([H])[C@@]2([H])N([H])C(=O)c2c([H])c([H])c(O[H])c([H])c2[H])c([H])c1O[H]


 45 48  0  0  0  0  0  0  0  0999 V2000
   12.5973   21.1420    0.6770 C   0  0  0  0  0  0  0  0  0  0  0  0
   11.9319   21.2244   -0.5094 C   0  0  0  0  0  0  0  0  0  0  0  0
   10.5328   21.1572   -0.5666 C   0  0  0  0  0  0  0  0  0  0  0  0
    9.9690   21.2572   -1.8150 O   0  0  0  0  0  0  0  0  0  0  0  0
    9.7687   21.0040    0.5689 C   0  0  0  0  0  0  0  0  0  0  0  0
   10.4617   20.9190    1.7847 C   0  0  0  0  0  0  0  0  0  0  0  0
    9.7919   20.7541    3.0111 O   0  0  0  0  0  0  0  0  0  0  0  0
   11.8343   20.9895    1.8096 C   0  0  0  0  0  0  0  0  0  0  0  0
    9.0387   21.2625   -2.1112 H   0  0  0  0  0  0  0  0  0  0  0  0
   10.3015   20.6970    3.8572 H   0  0  0  0  0  0  0  0  0  0  0  0
   14.0743   21.2145    0.7526 C   0  0  0  0  0  0  0  0  0  0  0  0
   14.7114   20.1850    0.4951 O   0  0  0  0  0  0  0  0  0  0  0  0
   14.6876   22.3324    1.0819 O   0  0  0  0  0  0  0  0  0  0  0  0
   15.4479   23.3303    0.5986 C   0  0  0  0  0  0  0  0  0  0  0  0
   14.1681   24.1891   -1.2740 C   0  0  0  0  0  0  0  0  0  0  0  0
   12.6731   24.2389   -1.0709 C   0  0  0  0  0  0  0  0  0  0  0  0
   12.3949   24.9462    0.2111 C   0  0  0  0  0  0  0  0  0  0  0  0
   13.7257   25.1325    0.9275 C   0  0  0  0  0  0  0  0  0  0  0  0
   14.7606   24.5417    0.0949 C   0  0  0  0  0  0  0  0  0  0  0  0
   14.5767   23.4181   -3.8598 O   0  0  0  0  0  0  0  0  0  0  0  0
   14.7911   24.6413   -3.6145 C   0  0  0  0  0  0  0  0  0  0  0  0
   14.6029   25.1082   -2.3075 N   0  0  0  0  0  0  0  0  0  0  0  0
   14.7779   26.1211   -2.0785 H   0  0  0  0  0  0  0  0  0  0  0  0
   15.2173   25.4913   -4.6920 C   0  0  0  0  0  0  0  0  0  0  0  0
   15.3076   25.0046   -5.9725 C   0  0  0  0  0  0  0  0  0  0  0  0
   15.7227   25.8213   -7.0274 C   0  0  0  0  0  0  0  0  0  0  0  0
   16.0450   27.1326   -6.7779 C   0  0  0  0  0  0  0  0  0  0  0  0
   16.4619   27.9657   -7.8187 O   0  0  0  0  0  0  0  0  0  0  0  0
   15.9536   27.6196   -5.4905 C   0  0  0  0  0  0  0  0  0  0  0  0
   15.5457   26.8225   -4.4452 C   0  0  0  0  0  0  0  0  0  0  0  0
   15.8100   28.5070   -8.3555 H   0  0  0  0  0  0  0  0  0  0  0  0
    8.3630   20.7648    0.6077 C   0  0  0  0  0  0  0  0  0  0  0  0
    7.8628   20.8984    1.8152 O   0  0  0  0  0  0  0  0  0  0  0  0
    7.4047   20.4261   -0.4120 C   0  0  0  0  0  0  0  0  0  0  0  0
    6.5427   21.4999   -0.7545 C   0  0  0  0  0  0  0  0  0  0  0  0
    6.6962   22.7249   -0.1207 O   0  0  0  0  0  0  0  0  0  0  0  0
    5.5622   21.3740   -1.6893 C   0  0  0  0  0  0  0  0  0  0  0  0
    5.4360   20.1498   -2.2981 C   0  0  0  0  0  0  0  0  0  0  0  0
    6.2445   19.1022   -1.9878 C   0  0  0  0  0  0  0  0  0  0  0  0
    7.2741   19.2203   -1.0060 C   0  0  0  0  0  0  0  0  0  0  0  0
    6.0796   23.4774   -0.3726 H   0  0  0  0  0  0  0  0  0  0  0  0
    7.9202   17.9935   -0.5974 C   0  0  0  0  0  0  0  0  0  0  0  0
    7.1729   17.0537   -0.1590 O   0  0  0  0  0  0  0  0  0  0  0  0
    9.2408   17.7153   -0.6116 O   0  0  0  0  0  0  0  0  0  0  0  0
    9.7096   16.9670   -0.1410 H   0  0  0  0  0  0  0  0  0  0  0  0
 20 21  2  0  0  0
 21 22  1  0  0  0
 22 15  1  0  0  0
 15 16  1  0  0  0
 16 17  1  0  0  0
 17 18  1  0  0  0
 18 19  1  0  0  0
 19 14  1  0  0  0
 14 13  1  0  0  0
 13 11  1  0  0  0
 11 12  2  0  0  0
 11  1  1  0  0  0
  1  2  2  0  0  0
  2  3  1  0  0  0
  3  4  1  0  0  0
  3  5  2  0  0  0
  5 32  1  0  0  0
 32 33  2  0  0  0
 32 34  1  0  0  0
 34 35  2  0  0  0
 35 36  1  0  0  0
 35 37  1  0  0  0
 37 38  2  0  0  0
 38 39  1  0  0  0
 39 40  2  0  0  0
 40 42  1  0  0  0
 42 43  2  0  0  0
 42 44  1  0  0  0
  5  6  1  0  0  0
  6  7  1  0  0  0
  6  8  2  0  0  0
 21 24  1  0  0  0
 24 25  2  0  0  0
 25 26  1  0  0  0
 26 27  2  0  0  0
 27 28  1  0  0  0
 27 29  1  0  0  0
 29 30  2  0  0  0
 19 15  1  0  0  0
  8  1  1  0  0  0
 30 24  1  0  0  0
 40 34  1  0  0  0
 22 23  1  0  0  0
  4  9  1  0  0  0
 36 41  1  0  0  0
 44 45  1  0  0  0
  7 10  1  0  0  0
 28 31  1  0  0  0
M  END
> <minimizedAffinity>
-7.39902

> <CNNscore>
0.2819490731

> <CNNaffinity>
6.7501459122

> <CNN_VS>
1.9031974077

> <CNNaffinity_variance>
0.1298012584

$$$$
[H]OC(=O)C([H])([H])C([H])([H])c1c2c(n([H])c1C([H])=C1C(=O)N([H])c3c([H])c([H])c(S(=O)(=O)N([H])C([H])([H])[H])c([H])c31)C([H])([H])C([H])([H])C([H])([H])C2=O


 35 38  0  0  0  0  0  0  0  0999 V2000
   16.3757   23.9107   -0.4774 C   0  0  0  0  0  0  0  0  0  0  0  0
   17.6795   23.9576   -0.9224 C   0  0  0  0  0  0  0  0  0  0  0  0
   18.0705   24.8502   -1.8904 C   0  0  0  0  0  0  0  0  0  0  0  0
   17.1661   25.7506   -2.4675 C   0  0  0  0  0  0  0  0  0  0  0  0
   15.8629   25.7084   -2.0272 C   0  0  0  0  0  0  0  0  0  0  0  0
   15.5012   24.7893   -1.0433 C   0  0  0  0  0  0  0  0  0  0  0  0
   15.0469   26.7199   -2.7306 C   0  0  0  0  0  0  0  0  0  0  0  0
   13.7767   26.9596   -2.5290 C   0  0  0  0  0  0  0  0  0  0  0  0
   16.0030   27.3558   -3.6233 C   0  0  0  0  0  0  0  0  0  0  0  0
   15.7779   28.2914   -4.4330 O   0  0  0  0  0  0  0  0  0  0  0  0
   17.2991   26.7527   -3.4537 N   0  0  0  0  0  0  0  0  0  0  0  0
   18.1779   26.9913   -3.9493 H   0  0  0  0  0  0  0  0  0  0  0  0
   12.9521   27.9409   -3.2058 C   0  0  0  0  0  0  0  0  0  0  0  0
   13.0654   29.2534   -3.3985 N   0  0  0  0  0  0  0  0  0  0  0  0
   12.0121   29.7415   -4.0818 C   0  0  0  0  0  0  0  0  0  0  0  0
   11.1556   28.6972   -4.3575 C   0  0  0  0  0  0  0  0  0  0  0  0
   11.7440   27.5783   -3.8111 C   0  0  0  0  0  0  0  0  0  0  0  0
    9.9381   28.9865   -5.0939 C   0  0  0  0  0  0  0  0  0  0  0  0
    9.4500   28.0669   -5.7949 O   0  0  0  0  0  0  0  0  0  0  0  0
    9.2668   30.3155   -5.0411 C   0  0  0  0  0  0  0  0  0  0  0  0
   10.1271   31.2508   -4.1803 C   0  0  0  0  0  0  0  0  0  0  0  0
   11.6006   31.0914   -4.5752 C   0  0  0  0  0  0  0  0  0  0  0  0
   13.8407   29.8523   -3.1003 H   0  0  0  0  0  0  0  0  0  0  0  0
   11.1636   26.2371   -3.8794 C   0  0  0  0  0  0  0  0  0  0  0  0
   11.9543   25.1838   -3.1364 C   0  0  0  0  0  0  0  0  0  0  0  0
   11.2288   24.8999   -1.8799 C   0  0  0  0  0  0  0  0  0  0  0  0
   10.1852   24.2201   -1.8769 O   0  0  0  0  0  0  0  0  0  0  0  0
   11.7155   25.3967   -0.6876 O   0  0  0  0  0  0  0  0  0  0  0  0
   11.8606   26.3806   -0.5035 H   0  0  0  0  0  0  0  0  0  0  0  0
   15.8515   22.7975    0.7538 S   0  0  0  0  0  0  0  0  0  0  0  0
   14.6826   23.4293    1.4565 O   0  0  0  0  0  0  0  0  0  0  0  0
   16.9219   22.5593    1.7580 O   0  0  0  0  0  0  0  0  0  0  0  0
   13.8854   21.2621   -0.0833 C   0  0  0  0  0  0  0  0  0  0  0  0
   15.3223   21.2939    0.1170 N   0  0  0  0  0  0  0  0  0  0  0  0
   15.6822   20.4759    0.6130 H   0  0  0  0  0  0  0  0  0  0  0  0
 33 34  1  0  0  0
 34 30  1  0  0  0
 30 31  2  0  0  0
 30 32  2  0  0  0
 30  1  1  0  0  0
  1  2  2  0  0  0
  2  3  1  0  0  0
  3  4  2  0  0  0
  4  5  1  0  0  0
  5  6  2  0  0  0
  5  7  1  0  0  0
  7  8  2  0  0  0
  8 13  1  0  0  0
 13 14  1  0  0  0
 14 15  1  0  0  0
 15 16  2  0  0  0
 16 17  1  0  0  0
 17 24  1  0  0  0
 24 25  1  0  0  0
 25 26  1  0  0  0
 26 27  2  0  0  0
 26 28  1  0  0  0
 16 18  1  0  0  0
 18 19  2  0  0  0
 18 20  1  0  0  0
 20 21  1  0  0  0
 21 22  1  0  0  0
  7  9  1  0  0  0
  9 10  2  0  0  0
  9 11  1  0  0  0
  6  1  1  0  0  0
 17 13  2  0  0  0
 11  4  1  0  0  0
 22 15  1  0  0  0
 34 35  1  0  0  0
 14 23  1  0  0  0
 28 29  1  0  0  0
 11 12  1  0  0  0
M  END
> <minimizedAffinity>
29.47064

> <CNNscore>
0.6491525173

> <CNNaffinity>
6.7735071182

> <CNN_VS>
4.3970394135

> <CNNaffinity_variance>
1.2315657139

$$$$
[H]OC(=O)C([H])([H])C([H])([H])c1c2c(n([H])c1C([H])=C1C(=O)N([H])c3c([H])c([H])c(S(=O)(=O)N([H])C([H])([H])[H])c([H])c31)C([H])([H])C([H])([H])C([H])([H])C2=O


 35 38  0  0  0  0  0  0  0  0999 V2000
   14.9791   26.3339   -2.9370 C   0  0  0  0  0  0  0  0  0  0  0  0
   14.1329   26.7949   -3.9226 C   0  0  0  0  0  0  0  0  0  0  0  0
   12.7871   26.5217   -3.8916 C   0  0  0  0  0  0  0  0  0  0  0  0
   12.2148   25.7654   -2.8610 C   0  0  0  0  0  0  0  0  0  0  0  0
   13.0549   25.3023   -1.8742 C   0  0  0  0  0  0  0  0  0  0  0  0
   14.4157   25.5985   -1.9377 C   0  0  0  0  0  0  0  0  0  0  0  0
   12.2948   24.5315   -0.8683 C   0  0  0  0  0  0  0  0  0  0  0  0
   12.7870   23.9782    0.2102 C   0  0  0  0  0  0  0  0  0  0  0  0
   10.9294   24.5916   -1.3659 C   0  0  0  0  0  0  0  0  0  0  0  0
    9.9082   24.0776   -0.8419 O   0  0  0  0  0  0  0  0  0  0  0  0
   10.8926   25.3503   -2.5888 N   0  0  0  0  0  0  0  0  0  0  0  0
   10.0656   25.5649   -3.1759 H   0  0  0  0  0  0  0  0  0  0  0  0
   12.0668   23.2148    1.2099 C   0  0  0  0  0  0  0  0  0  0  0  0
   11.2062   23.5478    2.1697 N   0  0  0  0  0  0  0  0  0  0  0  0
   10.8172   22.4686    2.8757 C   0  0  0  0  0  0  0  0  0  0  0  0
   11.4529   21.3613    2.3561 C   0  0  0  0  0  0  0  0  0  0  0  0
   12.2295   21.8295    1.3195 C   0  0  0  0  0  0  0  0  0  0  0  0
   11.1849   20.0701    2.9636 C   0  0  0  0  0  0  0  0  0  0  0  0
   11.2902   19.0523    2.2367 O   0  0  0  0  0  0  0  0  0  0  0  0
   10.7971   19.9232    4.3946 C   0  0  0  0  0  0  0  0  0  0  0  0
   10.6699   21.3275    5.0011 C   0  0  0  0  0  0  0  0  0  0  0  0
    9.8985   22.2310    4.0310 C   0  0  0  0  0  0  0  0  0  0  0  0
   10.8451   24.4847    2.3715 H   0  0  0  0  0  0  0  0  0  0  0  0
   13.0751   20.9757    0.4851 C   0  0  0  0  0  0  0  0  0  0  0  0
   14.3388   20.5027    1.1677 C   0  0  0  0  0  0  0  0  0  0  0  0
   15.4759   20.9355    0.3278 C   0  0  0  0  0  0  0  0  0  0  0  0
   16.5498   21.3070    0.8375 O   0  0  0  0  0  0  0  0  0  0  0  0
   15.3466   20.9283   -1.0464 O   0  0  0  0  0  0  0  0  0  0  0  0
   14.6415   21.4503   -1.5497 H   0  0  0  0  0  0  0  0  0  0  0  0
   16.6869   26.6706   -2.9436 S   0  0  0  0  0  0  0  0  0  0  0  0
   16.8592   28.1051   -2.5292 O   0  0  0  0  0  0  0  0  0  0  0  0
   17.2642   26.5092   -4.3043 O   0  0  0  0  0  0  0  0  0  0  0  0
   16.7187   25.1770   -0.7775 C   0  0  0  0  0  0  0  0  0  0  0  0
   17.5658   25.7012   -1.8327 N   0  0  0  0  0  0  0  0  0  0  0  0
   18.4268   26.1306   -1.4877 H   0  0  0  0  0  0  0  0  0  0  0  0
 33 34  1  0  0  0
 34 30  1  0  0  0
 30 31  2  0  0  0
 30 32  2  0  0  0
 30  1  1  0  0  0
  1  2  2  0  0  0
  2  3  1  0  0  0
  3  4  2  0  0  0
  4  5  1  0  0  0
  5  6  2  0  0  0
  5  7  1  0  0  0
  7  8  2  0  0  0
  8 13  1  0  0  0
 13 14  1  0  0  0
 14 15  1  0  0  0
 15 16  2  0  0  0
 16 17  1  0  0  0
 17 24  1  0  0  0
 24 25  1  0  0  0
 25 26  1  0  0  0
 26 27  2  0  0  0
 26 28  1  0  0  0
 16 18  1  0  0  0
 18 19  2  0  0  0
 18 20  1  0  0  0
 20 21  1  0  0  0
 21 22  1  0  0  0
  7  9  1  0  0  0
  9 10  2  0  0  0
  9 11  1  0  0  0
  6  1  1  0  0  0
 17 13  2  0  0  0
 11  4  1  0  0  0
 22 15  1  0  0  0
 34 35  1  0  0  0
 14 23  1  0  0  0
 28 29  1  0  0  0
 11 12  1  0  0  0
M  END
> <minimizedAffinity>
-2.01797

> <CNNscore>
0.5536783338

> <CNNaffinity>
7.1122102737

> <CNN_VS>
3.9378767014

> <CNNaffinity_variance>
0.6008165479

$$$$
[H]OC(=O)C([H])([H])C([H])([H])c1c2c(n([H])c1C([H])=C1C(=O)N([H])c3c([H])c([H])c(S(=O)(=O)N([H])C([H])([H])[H])c([H])c31)C([H])([H])C([H])([H])C([H])([H])C2=O


 35 38  0  0  0  0  0  0  0  0999 V2000
   12.6631   22.6791    0.4040 C   0  0  0  0  0  0  0  0  0  0  0  0
   11.7193   23.4794    1.0114 C   0  0  0  0  0  0  0  0  0  0  0  0
   11.3441   24.6813    0.4622 C   0  0  0  0  0  0  0  0  0  0  0  0
   11.9009   25.1471   -0.7355 C   0  0  0  0  0  0  0  0  0  0  0  0
   12.8439   24.3524   -1.3464 C   0  0  0  0  0  0  0  0  0  0  0  0
   13.2008   23.1386   -0.7607 C   0  0  0  0  0  0  0  0  0  0  0  0
   13.3232   24.9847   -2.5931 C   0  0  0  0  0  0  0  0  0  0  0  0
   14.1992   24.4809   -3.4239 C   0  0  0  0  0  0  0  0  0  0  0  0
   12.5663   26.2254   -2.6486 C   0  0  0  0  0  0  0  0  0  0  0  0
   12.6269   27.1112   -3.5393 O   0  0  0  0  0  0  0  0  0  0  0  0
   11.6979   26.3145   -1.5040 N   0  0  0  0  0  0  0  0  0  0  0  0
   11.0396   27.0796   -1.2669 H   0  0  0  0  0  0  0  0  0  0  0  0
   14.6895   25.0797   -4.6496 C   0  0  0  0  0  0  0  0  0  0  0  0
   14.3967   24.8995   -5.9358 N   0  0  0  0  0  0  0  0  0  0  0  0
   15.1510   25.6880   -6.7256 C   0  0  0  0  0  0  0  0  0  0  0  0
   15.9875   26.4309   -5.9204 C   0  0  0  0  0  0  0  0  0  0  0  0
   15.6973   26.0499   -4.6291 C   0  0  0  0  0  0  0  0  0  0  0  0
   16.9020   27.3618   -6.5572 C   0  0  0  0  0  0  0  0  0  0  0  0
   17.2514   28.3738   -5.9022 O   0  0  0  0  0  0  0  0  0  0  0  0
   17.4257   27.1531   -7.9363 C   0  0  0  0  0  0  0  0  0  0  0  0
   16.7674   25.8912   -8.5109 C   0  0  0  0  0  0  0  0  0  0  0  0
   15.2658   25.9154   -8.1988 C   0  0  0  0  0  0  0  0  0  0  0  0
   13.6877   24.2687   -6.3208 H   0  0  0  0  0  0  0  0  0  0  0  0
   16.3608   26.6024   -3.4481 C   0  0  0  0  0  0  0  0  0  0  0  0
   16.6374   28.0865   -3.5333 C   0  0  0  0  0  0  0  0  0  0  0  0
   15.4047   28.7316   -4.0335 C   0  0  0  0  0  0  0  0  0  0  0  0
   15.4531   29.7642   -4.7280 O   0  0  0  0  0  0  0  0  0  0  0  0
   14.1771   28.1806   -3.7259 O   0  0  0  0  0  0  0  0  0  0  0  0
   13.8434   28.0372   -2.7820 H   0  0  0  0  0  0  0  0  0  0  0  0
   13.1528   21.1474    1.0701 S   0  0  0  0  0  0  0  0  0  0  0  0
   13.1725   21.2983    2.5655 O   0  0  0  0  0  0  0  0  0  0  0  0
   14.5221   20.7772    0.6241 O   0  0  0  0  0  0  0  0  0  0  0  0
   10.7102   20.3529    0.4992 C   0  0  0  0  0  0  0  0  0  0  0  0
   12.0662   19.8735    0.6922 N   0  0  0  0  0  0  0  0  0  0  0  0
   12.1276   19.0674    1.3175 H   0  0  0  0  0  0  0  0  0  0  0  0
 33 34  1  0  0  0
 34 30  1  0  0  0
 30 31  2  0  0  0
 30 32  2  0  0  0
 30  1  1  0  0  0
  1  2  2  0  0  0
  2  3  1  0  0  0
  3  4  2  0  0  0
  4  5  1  0  0  0
  5  6  2  0  0  0
  5  7  1  0  0  0
  7  8  2  0  0  0
  8 13  1  0  0  0
 13 14  1  0  0  0
 14 15  1  0  0  0
 15 16  2  0  0  0
 16 17  1  0  0  0
 17 24  1  0  0  0
 24 25  1  0  0  0
 25 26  1  0  0  0
 26 27  2  0  0  0
 26 28  1  0  0  0
 16 18  1  0  0  0
 18 19  2  0  0  0
 18 20  1  0  0  0
 20 21  1  0  0  0
 21 22  1  0  0  0
  7  9  1  0  0  0
  9 10  2  0  0  0
  9 11  1  0  0  0
  6  1  1  0  0  0
 17 13  2  0  0  0
 11  4  1  0  0  0
 22 15  1  0  0  0
 34 35  1  0  0  0
 14 23  1  0  0  0
 28 29  1  0  0  0
 11 12  1  0  0  0
M  END
> <minimizedAffinity>
8.32315

> <CNNscore>
0.5510302186

> <CNNaffinity>
7.1251120567

> <CNN_VS>
3.9261519909

> <CNNaffinity_variance>
0.9723518491

$$$$
[H]OC(=O)C([H])([H])C([H])([H])c1c2c(n([H])c1C([H])=C1C(=O)N([H])c3c([H])c([H])c(S(=O)(=O)N([H])C([H])([H])[H])c([H])c31)C([H])([H])C([H])([H])C([H])([H])C2=O


 35 38  0  0  0  0  0  0  0  0999 V2000
   14.4115   25.4137   -4.1045 C   0  0  0  0  0  0  0  0  0  0  0  0
   13.7988   26.6483   -4.1236 C   0  0  0  0  0  0  0  0  0  0  0  0
   12.9127   27.0195   -3.1418 C   0  0  0  0  0  0  0  0  0  0  0  0
   12.5924   26.1640   -2.0801 C   0  0  0  0  0  0  0  0  0  0  0  0
   13.2009   24.9299   -2.0558 C   0  0  0  0  0  0  0  0  0  0  0  0
   14.0950   24.5865   -3.0690 C   0  0  0  0  0  0  0  0  0  0  0  0
   12.7590   24.1591   -0.8750 C   0  0  0  0  0  0  0  0  0  0  0  0
   13.1662   22.9614   -0.5416 C   0  0  0  0  0  0  0  0  0  0  0  0
   11.8338   25.0657   -0.2137 C   0  0  0  0  0  0  0  0  0  0  0  0
   11.1949   24.8547    0.8488 O   0  0  0  0  0  0  0  0  0  0  0  0
   11.7390   26.2918   -0.9620 N   0  0  0  0  0  0  0  0  0  0  0  0
   11.1616   27.1244   -0.7425 H   0  0  0  0  0  0  0  0  0  0  0  0
   12.7475   22.1818    0.6065 C   0  0  0  0  0  0  0  0  0  0  0  0
   13.3427   21.8446    1.7487 N   0  0  0  0  0  0  0  0  0  0  0  0
   12.5433   21.0712    2.5086 C   0  0  0  0  0  0  0  0  0  0  0  0
   11.3550   20.8866    1.8349 C   0  0  0  0  0  0  0  0  0  0  0  0
   11.4856   21.5794    0.6518 C   0  0  0  0  0  0  0  0  0  0  0  0
   10.3283   20.0774    2.4669 C   0  0  0  0  0  0  0  0  0  0  0  0
    9.1325   20.3238    2.1759 O   0  0  0  0  0  0  0  0  0  0  0  0
   10.6481   18.9865    3.4298 C   0  0  0  0  0  0  0  0  0  0  0  0
   12.1673   18.9741    3.6495 C   0  0  0  0  0  0  0  0  0  0  0  0
   12.6632   20.4122    3.8452 C   0  0  0  0  0  0  0  0  0  0  0  0
   14.2769   22.1262    2.0598 H   0  0  0  0  0  0  0  0  0  0  0  0
   10.4406   21.6515   -0.3696 C   0  0  0  0  0  0  0  0  0  0  0  0
    9.0388   21.7550    0.1879 C   0  0  0  0  0  0  0  0  0  0  0  0
    8.2405   20.6793   -0.4380 C   0  0  0  0  0  0  0  0  0  0  0  0
    8.7140   19.5401   -0.6080 O   0  0  0  0  0  0  0  0  0  0  0  0
    6.9468   20.9411   -0.8418 O   0  0  0  0  0  0  0  0  0  0  0  0
    6.6985   21.6574   -1.5112 H   0  0  0  0  0  0  0  0  0  0  0  0
   15.5451   24.9178   -5.3288 S   0  0  0  0  0  0  0  0  0  0  0  0
   15.4534   23.4217   -5.4403 O   0  0  0  0  0  0  0  0  0  0  0  0
   16.9390   25.2692   -4.9486 O   0  0  0  0  0  0  0  0  0  0  0  0
   16.1858   25.2021   -7.8650 C   0  0  0  0  0  0  0  0  0  0  0  0
   15.1928   25.5751   -6.8747 N   0  0  0  0  0  0  0  0  0  0  0  0
   14.9793   26.5747   -6.8692 H   0  0  0  0  0  0  0  0  0  0  0  0
 33 34  1  0  0  0
 34 30  1  0  0  0
 30 31  2  0  0  0
 30 32  2  0  0  0
 30  1  1  0  0  0
  1  2  2  0  0  0
  2  3  1  0  0  0
  3  4  2  0  0  0
  4  5  1  0  0  0
  5  6  2  0  0  0
  5  7  1  0  0  0
  7  8  2  0  0  0
  8 13  1  0  0  0
 13 14  1  0  0  0
 14 15  1  0  0  0
 15 16  2  0  0  0
 16 17  1  0  0  0
 17 24  1  0  0  0
 24 25  1  0  0  0
 25 26  1  0  0  0
 26 27  2  0  0  0
 26 28  1  0  0  0
 16 18  1  0  0  0
 18 19  2  0  0  0
 18 20  1  0  0  0
 20 21  1  0  0  0
 21 22  1  0  0  0
  7  9  1  0  0  0
  9 10  2  0  0  0
  9 11  1  0  0  0
  6  1  1  0  0  0
 17 13  2  0  0  0
 11  4  1  0  0  0
 22 15  1  0  0  0
 34 35  1  0  0  0
 14 23  1  0  0  0
 28 29  1  0  0  0
 11 12  1  0  0  0
M  END
> <minimizedAffinity>
2.43238

> <CNNscore>
0.5466723442

> <CNNaffinity>
7.0458669662

> <CNN_VS>
3.8517806530

> <CNNaffinity_variance>
1.3512545824

$$$$
[H]OC(=O)C([H])([H])C([H])([H])c1c2c(n([H])c1C([H])=C1C(=O)N([H])c3c([H])c([H])c(S(=O)(=O)N([H])C([H])([H])[H])c([H])c31)C([H])([H])C([H])([H])C([H])([H])C2=O


 35 38  0  0  0  0  0  0  0  0999 V2000
   15.3062   25.6976   -4.4360 C   0  0  0  0  0  0  0  0  0  0  0  0
   16.1304   24.6654   -4.8301 C   0  0  0  0  0  0  0  0  0  0  0  0
   15.9674   23.3945   -4.3352 C   0  0  0  0  0  0  0  0  0  0  0  0
   14.9599   23.0899   -3.4111 C   0  0  0  0  0  0  0  0  0  0  0  0
   14.1339   24.1165   -3.0138 C   0  0  0  0  0  0  0  0  0  0  0  0
   14.3285   25.3942   -3.5366 C   0  0  0  0  0  0  0  0  0  0  0  0
   13.1299   23.6269   -2.0463 C   0  0  0  0  0  0  0  0  0  0  0  0
   12.1812   24.3393   -1.4950 C   0  0  0  0  0  0  0  0  0  0  0  0
   13.4519   22.2142   -1.9196 C   0  0  0  0  0  0  0  0  0  0  0  0
   12.8658   21.3646   -1.2011 O   0  0  0  0  0  0  0  0  0  0  0  0
   14.5762   21.8965   -2.7606 N   0  0  0  0  0  0  0  0  0  0  0  0
   15.0349   20.9748   -2.8827 H   0  0  0  0  0  0  0  0  0  0  0  0
   11.1873   23.8869   -0.5419 C   0  0  0  0  0  0  0  0  0  0  0  0
    9.8640   23.7506   -0.5964 N   0  0  0  0  0  0  0  0  0  0  0  0
    9.3680   23.3072    0.5749 C   0  0  0  0  0  0  0  0  0  0  0  0
   10.4180   23.1399    1.4521 C   0  0  0  0  0  0  0  0  0  0  0  0
   11.5486   23.5014    0.7536 C   0  0  0  0  0  0  0  0  0  0  0  0
   10.1219   22.6643    2.7916 C   0  0  0  0  0  0  0  0  0  0  0  0
   11.0157   22.0175    3.3899 O   0  0  0  0  0  0  0  0  0  0  0  0
    8.8152   22.9178    3.4609 C   0  0  0  0  0  0  0  0  0  0  0  0
    7.9045   23.6519    2.4671 C   0  0  0  0  0  0  0  0  0  0  0  0
    8.0050   22.9774    1.0932 C   0  0  0  0  0  0  0  0  0  0  0  0
    9.2618   23.9302   -1.4051 H   0  0  0  0  0  0  0  0  0  0  0  0
   12.8988   23.4684    1.3157 C   0  0  0  0  0  0  0  0  0  0  0  0
   13.7579   24.6508    0.9280 C   0  0  0  0  0  0  0  0  0  0  0  0
   15.1003   24.1252    0.5999 C   0  0  0  0  0  0  0  0  0  0  0  0
   15.4484   22.9815    0.9490 O   0  0  0  0  0  0  0  0  0  0  0  0
   15.9851   24.9153   -0.1060 O   0  0  0  0  0  0  0  0  0  0  0  0
   16.3026   25.8237    0.2053 H   0  0  0  0  0  0  0  0  0  0  0  0
   15.4817   27.3163   -5.0515 S   0  0  0  0  0  0  0  0  0  0  0  0
   14.2914   28.1034   -4.5795 O   0  0  0  0  0  0  0  0  0  0  0  0
   15.4867   27.3314   -6.5384 O   0  0  0  0  0  0  0  0  0  0  0  0
   17.2793   27.6275   -3.1554 C   0  0  0  0  0  0  0  0  0  0  0  0
   16.8896   28.1064   -4.4687 N   0  0  0  0  0  0  0  0  0  0  0  0
   16.8603   29.1258   -4.5379 H   0  0  0  0  0  0  0  0  0  0  0  0
 33 34  1  0  0  0
 34 30  1  0  0  0
 30 31  2  0  0  0
 30 32  2  0  0  0
 30  1  1  0  0  0
  1  2  2  0  0  0
  2  3  1  0  0  0
  3  4  2  0  0  0
  4  5  1  0  0  0
  5  6  2  0  0  0
  5  7  1  0  0  0
  7  8  2  0  0  0
  8 13  1  0  0  0
 13 14  1  0  0  0
 14 15  1  0  0  0
 15 16  2  0  0  0
 16 17  1  0  0  0
 17 24  1  0  0  0
 24 25  1  0  0  0
 25 26  1  0  0  0
 26 27  2  0  0  0
 26 28  1  0  0  0
 16 18  1  0  0  0
 18 19  2  0  0  0
 18 20  1  0  0  0
 20 21  1  0  0  0
 21 22  1  0  0  0
  7  9  1  0  0  0
  9 10  2  0  0  0
  9 11  1  0  0  0
  6  1  1  0  0  0
 17 13  2  0  0  0
 11  4  1  0  0  0
 22 15  1  0  0  0
 34 35  1  0  0  0
 14 23  1  0  0  0
 28 29  1  0  0  0
 11 12  1  0  0  0
M  END
> <minimizedAffinity>
-7.71402

> <CNNscore>
0.5304786563

> <CNNaffinity>
7.2455186844

> <CNN_VS>
3.8435931206

> <CNNaffinity_variance>
0.1648820341

$$$$
[H]OC(=O)C([H])([H])C([H])([H])c1c2c(n([H])c1C([H])=C1C(=O)N([H])c3c([H])c([H])c(S(=O)(=O)N([H])C([H])([H])[H])c([H])c31)C([H])([H])C([H])([H])C([H])([H])C2=O


 35 38  0  0  0  0  0  0  0  0999 V2000
   11.6251   21.4927    1.6991 C   0  0  0  0  0  0  0  0  0  0  0  0
   10.8185   22.2282    2.5410 C   0  0  0  0  0  0  0  0  0  0  0  0
   10.6162   23.5719    2.3402 C   0  0  0  0  0  0  0  0  0  0  0  0
   11.2174   24.2539    1.2748 C   0  0  0  0  0  0  0  0  0  0  0  0
   12.0238   23.5248    0.4310 C   0  0  0  0  0  0  0  0  0  0  0  0
   12.2069   22.1627    0.6650 C   0  0  0  0  0  0  0  0  0  0  0  0
   12.5721   24.3894   -0.6347 C   0  0  0  0  0  0  0  0  0  0  0  0
   13.3517   24.0051   -1.6124 C   0  0  0  0  0  0  0  0  0  0  0  0
   12.0054   25.6935   -0.3289 C   0  0  0  0  0  0  0  0  0  0  0  0
   12.1822   26.7647   -0.9637 O   0  0  0  0  0  0  0  0  0  0  0  0
   11.1768   25.5984    0.8445 N   0  0  0  0  0  0  0  0  0  0  0  0
   10.6420   26.3579    1.3049 H   0  0  0  0  0  0  0  0  0  0  0  0
   13.9063   24.8306   -2.6669 C   0  0  0  0  0  0  0  0  0  0  0  0
   13.5287   25.0934   -3.9163 N   0  0  0  0  0  0  0  0  0  0  0  0
   14.3994   25.9190   -4.5285 C   0  0  0  0  0  0  0  0  0  0  0  0
   15.4072   26.2202   -3.6376 C   0  0  0  0  0  0  0  0  0  0  0  0
   15.0968   25.5413   -2.4801 C   0  0  0  0  0  0  0  0  0  0  0  0
   16.4708   27.1038   -4.0803 C   0  0  0  0  0  0  0  0  0  0  0  0
   17.0539   27.7941   -3.2091 O   0  0  0  0  0  0  0  0  0  0  0  0
   16.8805   27.2111   -5.5087 C   0  0  0  0  0  0  0  0  0  0  0  0
   15.9462   26.3222   -6.3411 C   0  0  0  0  0  0  0  0  0  0  0  0
   14.4983   26.5405   -5.8846 C   0  0  0  0  0  0  0  0  0  0  0  0
   12.6865   24.7502   -4.3874 H   0  0  0  0  0  0  0  0  0  0  0  0
   15.9111   25.5873   -1.2656 C   0  0  0  0  0  0  0  0  0  0  0  0
   16.3534   24.2299   -0.7673 C   0  0  0  0  0  0  0  0  0  0  0  0
   15.7440   24.0351    0.5656 C   0  0  0  0  0  0  0  0  0  0  0  0
   15.2032   24.9790    1.1719 O   0  0  0  0  0  0  0  0  0  0  0  0
   15.7742   22.7850    1.1499 O   0  0  0  0  0  0  0  0  0  0  0  0
   16.6249   22.2757    1.3495 H   0  0  0  0  0  0  0  0  0  0  0  0
   11.8940   19.7875    1.9218 S   0  0  0  0  0  0  0  0  0  0  0  0
   13.3684   19.5446    1.7602 O   0  0  0  0  0  0  0  0  0  0  0  0
   11.1775   18.9885    0.8926 O   0  0  0  0  0  0  0  0  0  0  0  0
   11.5562   20.2831    4.4839 C   0  0  0  0  0  0  0  0  0  0  0  0
   11.4464   19.2365    3.4847 N   0  0  0  0  0  0  0  0  0  0  0  0
   11.8884   18.3585    3.7648 H   0  0  0  0  0  0  0  0  0  0  0  0
 33 34  1  0  0  0
 34 30  1  0  0  0
 30 31  2  0  0  0
 30 32  2  0  0  0
 30  1  1  0  0  0
  1  2  2  0  0  0
  2  3  1  0  0  0
  3  4  2  0  0  0
  4  5  1  0  0  0
  5  6  2  0  0  0
  5  7  1  0  0  0
  7  8  2  0  0  0
  8 13  1  0  0  0
 13 14  1  0  0  0
 14 15  1  0  0  0
 15 16  2  0  0  0
 16 17  1  0  0  0
 17 24  1  0  0  0
 24 25  1  0  0  0
 25 26  1  0  0  0
 26 27  2  0  0  0
 26 28  1  0  0  0
 16 18  1  0  0  0
 18 19  2  0  0  0
 18 20  1  0  0  0
 20 21  1  0  0  0
 21 22  1  0  0  0
  7  9  1  0  0  0
  9 10  2  0  0  0
  9 11  1  0  0  0
  6  1  1  0  0  0
 17 13  2  0  0  0
 11  4  1  0  0  0
 22 15  1  0  0  0
 34 35  1  0  0  0
 14 23  1  0  0  0
 28 29  1  0  0  0
 11 12  1  0  0  0
M  END
> <minimizedAffinity>
-1.53258

> <CNNscore>
0.5032167435

> <CNNaffinity>
7.2053556442

> <CNN_VS>
3.6258556843

> <CNNaffinity_variance>
0.7847206593

$$$$
[H]OC(=O)C([H])([H])C([H])([H])c1c2c(n([H])c1C([H])=C1C(=O)N([H])c3c([H])c([H])c(S(=O)(=O)N([H])C([H])([H])[H])c([H])c31)C([H])([H])C([H])([H])C([H])([H])C2=O


 35 38  0  0  0  0  0  0  0  0999 V2000
   15.4660   25.9930   -5.9812 C   0  0  0  0  0  0  0  0  0  0  0  0
   15.6154   27.3241   -5.6558 C   0  0  0  0  0  0  0  0  0  0  0  0
   15.1870   27.8145   -4.4462 C   0  0  0  0  0  0  0  0  0  0  0  0
   14.5814   26.9877   -3.4916 C   0  0  0  0  0  0  0  0  0  0  0  0
   14.4296   25.6577   -3.8110 C   0  0  0  0  0  0  0  0  0  0  0  0
   14.8758   25.1946   -5.0480 C   0  0  0  0  0  0  0  0  0  0  0  0
   13.7816   24.9302   -2.6999 C   0  0  0  0  0  0  0  0  0  0  0  0
   13.5164   23.6495   -2.6697 C   0  0  0  0  0  0  0  0  0  0  0  0
   13.5714   25.9670   -1.7018 C   0  0  0  0  0  0  0  0  0  0  0  0
   13.0461   25.8317   -0.5671 O   0  0  0  0  0  0  0  0  0  0  0  0
   14.0653   27.2246   -2.1985 N   0  0  0  0  0  0  0  0  0  0  0  0
   14.0554   28.1430   -1.7175 H   0  0  0  0  0  0  0  0  0  0  0  0
   12.8793   22.9118   -1.5969 C   0  0  0  0  0  0  0  0  0  0  0  0
   11.6086   22.7149   -1.2518 N   0  0  0  0  0  0  0  0  0  0  0  0
   11.5135   21.9604   -0.1400 C   0  0  0  0  0  0  0  0  0  0  0  0
   12.7887   21.6394    0.2735 C   0  0  0  0  0  0  0  0  0  0  0  0
   13.6360   22.2329   -0.6356 C   0  0  0  0  0  0  0  0  0  0  0  0
   12.9368   20.8231    1.4652 C   0  0  0  0  0  0  0  0  0  0  0  0
   13.9593   20.1004    1.5516 O   0  0  0  0  0  0  0  0  0  0  0  0
   11.9309   20.8201    2.5641 C   0  0  0  0  0  0  0  0  0  0  0  0
   10.7647   21.7263    2.1459 C   0  0  0  0  0  0  0  0  0  0  0  0
   10.3885   21.4291    0.6890 C   0  0  0  0  0  0  0  0  0  0  0  0
   10.7790   23.0572   -1.7453 H   0  0  0  0  0  0  0  0  0  0  0  0
   15.0945   22.1394   -0.5715 C   0  0  0  0  0  0  0  0  0  0  0  0
   15.6970   22.7389    0.6791 C   0  0  0  0  0  0  0  0  0  0  0  0
   15.5620   24.2069    0.5673 C   0  0  0  0  0  0  0  0  0  0  0  0
   16.2189   24.8533   -0.2705 O   0  0  0  0  0  0  0  0  0  0  0  0
   14.6927   24.8748    1.4060 O   0  0  0  0  0  0  0  0  0  0  0  0
   14.7535   24.8528    2.4154 H   0  0  0  0  0  0  0  0  0  0  0  0
   16.0063   25.3399   -7.5016 S   0  0  0  0  0  0  0  0  0  0  0  0
   14.8107   25.2810   -8.4106 O   0  0  0  0  0  0  0  0  0  0  0  0
   16.5334   23.9591   -7.3397 O   0  0  0  0  0  0  0  0  0  0  0  0
   17.7378   25.6823   -9.4531 C   0  0  0  0  0  0  0  0  0  0  0  0
   17.1919   26.3166   -8.2675 N   0  0  0  0  0  0  0  0  0  0  0  0
   17.9073   26.6840   -7.6367 H   0  0  0  0  0  0  0  0  0  0  0  0
 33 34  1  0  0  0
 34 30  1  0  0  0
 30 31  2  0  0  0
 30 32  2  0  0  0
 30  1  1  0  0  0
  1  2  2  0  0  0
  2  3  1  0  0  0
  3  4  2  0  0  0
  4  5  1  0  0  0
  5  6  2  0  0  0
  5  7  1  0  0  0
  7  8  2  0  0  0
  8 13  1  0  0  0
 13 14  1  0  0  0
 14 15  1  0  0  0
 15 16  2  0  0  0
 16 17  1  0  0  0
 17 24  1  0  0  0
 24 25  1  0  0  0
 25 26  1  0  0  0
 26 27  2  0  0  0
 26 28  1  0  0  0
 16 18  1  0  0  0
 18 19  2  0  0  0
 18 20  1  0  0  0
 20 21  1  0  0  0
 21 22  1  0  0  0
  7  9  1  0  0  0
  9 10  2  0  0  0
  9 11  1  0  0  0
  6  1  1  0  0  0
 17 13  2  0  0  0
 11  4  1  0  0  0
 22 15  1  0  0  0
 34 35  1  0  0  0
 14 23  1  0  0  0
 28 29  1  0  0  0
 11 12  1  0  0  0
M  END
> <minimizedAffinity>
5.73404

> <CNNscore>
0.4938196838

> <CNNaffinity>
7.1147375107

> <CNN_VS>
3.5133974552

> <CNNaffinity_variance>
0.8168140650

$$$$
[H]OC(=O)C([H])([H])C([H])([H])c1c2c(n([H])c1C([H])=C1C(=O)N([H])c3c([H])c([H])c(S(=O)(=O)N([H])C([H])([H])[H])c([H])c31)C([H])([H])C([H])([H])C([H])([H])C2=O


 35 38  0  0  0  0  0  0  0  0999 V2000
   14.7195   26.1242   -5.3561 C   0  0  0  0  0  0  0  0  0  0  0  0
   14.5611   27.4500   -5.0136 C   0  0  0  0  0  0  0  0  0  0  0  0
   13.8863   27.8161   -3.8746 C   0  0  0  0  0  0  0  0  0  0  0  0
   13.3304   26.8630   -3.0120 C   0  0  0  0  0  0  0  0  0  0  0  0
   13.4853   25.5376   -3.3488 C   0  0  0  0  0  0  0  0  0  0  0  0
   14.1760   25.2024   -4.5125 C   0  0  0  0  0  0  0  0  0  0  0  0
   12.8478   24.6695   -2.3371 C   0  0  0  0  0  0  0  0  0  0  0  0
   12.8358   23.3613   -2.3432 C   0  0  0  0  0  0  0  0  0  0  0  0
   12.3069   25.6193   -1.3776 C   0  0  0  0  0  0  0  0  0  0  0  0
   11.6699   25.3551   -0.3259 O   0  0  0  0  0  0  0  0  0  0  0  0
   12.6084   26.9614   -1.8022 N   0  0  0  0  0  0  0  0  0  0  0  0
   12.3548   27.8475   -1.3275 H   0  0  0  0  0  0  0  0  0  0  0  0
   12.2161   22.4863   -1.3678 C   0  0  0  0  0  0  0  0  0  0  0  0
   11.1670   21.6676   -1.4104 N   0  0  0  0  0  0  0  0  0  0  0  0
   10.9609   21.0721   -0.2198 C   0  0  0  0  0  0  0  0  0  0  0  0
   11.9249   21.5190    0.6583 C   0  0  0  0  0  0  0  0  0  0  0  0
   12.7043   22.3986   -0.0597 C   0  0  0  0  0  0  0  0  0  0  0  0
   11.9026   21.0083    2.0173 C   0  0  0  0  0  0  0  0  0  0  0  0
   12.9929   20.9558    2.6369 O   0  0  0  0  0  0  0  0  0  0  0  0
   10.6487   20.5551    2.6822 C   0  0  0  0  0  0  0  0  0  0  0  0
    9.5047   20.6581    1.6640 C   0  0  0  0  0  0  0  0  0  0  0  0
    9.9709   20.0894    0.3179 C   0  0  0  0  0  0  0  0  0  0  0  0
   10.5751   21.4710   -2.2227 H   0  0  0  0  0  0  0  0  0  0  0  0
   13.8572   23.1068    0.4969 C   0  0  0  0  0  0  0  0  0  0  0  0
   15.1594   22.8232   -0.2173 C   0  0  0  0  0  0  0  0  0  0  0  0
   16.0541   23.9729    0.0348 C   0  0  0  0  0  0  0  0  0  0  0  0
   16.9250   23.9298    0.9241 O   0  0  0  0  0  0  0  0  0  0  0  0
   15.9231   25.1155   -0.7284 O   0  0  0  0  0  0  0  0  0  0  0  0
   15.0719   25.6582   -0.7903 H   0  0  0  0  0  0  0  0  0  0  0  0
   15.5767   25.6282   -6.7875 S   0  0  0  0  0  0  0  0  0  0  0  0
   16.5981   26.6902   -7.0849 O   0  0  0  0  0  0  0  0  0  0  0  0
   14.6630   25.5246   -7.9559 O   0  0  0  0  0  0  0  0  0  0  0  0
   16.3442   23.6583   -5.2210 C   0  0  0  0  0  0  0  0  0  0  0  0
   16.4157   24.1443   -6.5865 N   0  0  0  0  0  0  0  0  0  0  0  0
   17.3627   24.1399   -6.9709 H   0  0  0  0  0  0  0  0  0  0  0  0
 33 34  1  0  0  0
 34 30  1  0  0  0
 30 31  2  0  0  0
 30 32  2  0  0  0
 30  1  1  0  0  0
  1  2  2  0  0  0
  2  3  1  0  0  0
  3  4  2  0  0  0
  4  5  1  0  0  0
  5  6  2  0  0  0
  5  7  1  0  0  0
  7  8  2  0  0  0
  8 13  1  0  0  0
 13 14  1  0  0  0
 14 15  1  0  0  0
 15 16  2  0  0  0
 16 17  1  0  0  0
 17 24  1  0  0  0
 24 25  1  0  0  0
 25 26  1  0  0  0
 26 27  2  0  0  0
 26 28  1  0  0  0
 16 18  1  0  0  0
 18 19  2  0  0  0
 18 20  1  0  0  0
 20 21  1  0  0  0
 21 22  1  0  0  0
  7  9  1  0  0  0
  9 10  2  0  0  0
  9 11  1  0  0  0
  6  1  1  0  0  0
 17 13  2  0  0  0
 11  4  1  0  0  0
 22 15  1  0  0  0
 34 35  1  0  0  0
 14 23  1  0  0  0
 28 29  1  0  0  0
 11 12  1  0  0  0
M  END
> <minimizedAffinity>
2.90636

> <CNNscore>
0.4894320071

> <CNNaffinity>
7.1957383156

> <CNN_VS>
3.5218245983

> <CNNaffinity_variance>
0.9485198259

$$$$
[H]OC(=O)C([H])([H])C([H])([H])c1c2c(n([H])c1C([H])=C1C(=O)N([H])c3c([H])c([H])c(S(=O)(=O)N([H])C([H])([H])[H])c([H])c31)C([H])([H])C([H])([H])C([H])([H])C2=O


 35 38  0  0  0  0  0  0  0  0999 V2000
    9.5239   21.1086    3.1157 C   0  0  0  0  0  0  0  0  0  0  0  0
   10.1911   20.2845    3.9965 C   0  0  0  0  0  0  0  0  0  0  0  0
   11.5038   19.9357    3.7912 C   0  0  0  0  0  0  0  0  0  0  0  0
   12.2220   20.3996    2.6819 C   0  0  0  0  0  0  0  0  0  0  0  0
   11.5611   21.2227    1.7990 C   0  0  0  0  0  0  0  0  0  0  0  0
   10.2287   21.5560    2.0387 C   0  0  0  0  0  0  0  0  0  0  0  0
   12.4582   21.6229    0.6950 C   0  0  0  0  0  0  0  0  0  0  0  0
   12.1512   22.4207   -0.2953 C   0  0  0  0  0  0  0  0  0  0  0  0
   13.7068   20.9525    1.0221 C   0  0  0  0  0  0  0  0  0  0  0  0
   14.7820   20.9927    0.3709 O   0  0  0  0  0  0  0  0  0  0  0  0
   13.5499   20.2048    2.2422 N   0  0  0  0  0  0  0  0  0  0  0  0
   14.2612   19.6261    2.7259 H   0  0  0  0  0  0  0  0  0  0  0  0
   13.0084   22.8263   -1.3915 C   0  0  0  0  0  0  0  0  0  0  0  0
   13.9364   22.1954   -2.1081 N   0  0  0  0  0  0  0  0  0  0  0  0
   14.4909   23.0144   -3.0225 C   0  0  0  0  0  0  0  0  0  0  0  0
   13.8986   24.2537   -2.9067 C   0  0  0  0  0  0  0  0  0  0  0  0
   12.9764   24.1328   -1.8910 C   0  0  0  0  0  0  0  0  0  0  0  0
   14.3405   25.3099   -3.7998 C   0  0  0  0  0  0  0  0  0  0  0  0
   13.5155   26.2107   -4.0883 O   0  0  0  0  0  0  0  0  0  0  0  0
   15.7162   25.3530   -4.3703 C   0  0  0  0  0  0  0  0  0  0  0  0
   16.4627   24.0927   -3.9116 C   0  0  0  0  0  0  0  0  0  0  0  0
   15.5461   22.8734   -4.0722 C   0  0  0  0  0  0  0  0  0  0  0  0
   14.2141   21.2133   -2.0231 H   0  0  0  0  0  0  0  0  0  0  0  0
   12.1145   25.2251   -1.4389 C   0  0  0  0  0  0  0  0  0  0  0  0
   12.8222   26.2606   -0.5943 C   0  0  0  0  0  0  0  0  0  0  0  0
   12.3835   26.0572    0.8029 C   0  0  0  0  0  0  0  0  0  0  0  0
   11.6155   25.1257    1.1088 O   0  0  0  0  0  0  0  0  0  0  0  0
   12.8323   26.9144    1.7872 O   0  0  0  0  0  0  0  0  0  0  0  0
   12.6822   27.9146    1.7760 H   0  0  0  0  0  0  0  0  0  0  0  0
    7.8640   21.5757    3.3529 S   0  0  0  0  0  0  0  0  0  0  0  0
    7.7326   22.0447    4.7749 O   0  0  0  0  0  0  0  0  0  0  0  0
    6.9453   20.4228    3.1588 O   0  0  0  0  0  0  0  0  0  0  0  0
    7.8549   24.1519    2.8173 C   0  0  0  0  0  0  0  0  0  0  0  0
    7.3791   22.8690    2.3339 N   0  0  0  0  0  0  0  0  0  0  0  0
    6.3854   22.8675    2.0946 H   0  0  0  0  0  0  0  0  0  0  0  0
 33 34  1  0  0  0
 34 30  1  0  0  0
 30 31  2  0  0  0
 30 32  2  0  0  0
 30  1  1  0  0  0
  1  2  2  0  0  0
  2  3  1  0  0  0
  3  4  2  0  0  0
  4  5  1  0  0  0
  5  6  2  0  0  0
  5  7  1  0  0  0
  7  8  2  0  0  0
  8 13  1  0  0  0
 13 14  1  0  0  0
 14 15  1  0  0  0
 15 16  2  0  0  0
 16 17  1  0  0  0
 17 24  1  0  0  0
 24 25  1  0  0  0
 25 26  1  0  0  0
 26 27  2  0  0  0
 26 28  1  0  0  0
 16 18  1  0  0  0
 18 19  2  0  0  0
 18 20  1  0  0  0
 20 21  1  0  0  0
 21 22  1  0  0  0
  7  9  1  0  0  0
  9 10  2  0  0  0
  9 11  1  0  0  0
  6  1  1  0  0  0
 17 13  2  0  0  0
 11  4  1  0  0  0
 22 15  1  0  0  0
 34 35  1  0  0  0
 14 23  1  0  0  0
 28 29  1  0  0  0
 11 12  1  0  0  0
M  END
> <minimizedAffinity>
-4.44628

> <CNNscore>
0.4857730269

> <CNNaffinity>
6.9074363708

> <CNN_VS>
3.3554463387

> <CNNaffinity_variance>
0.3474342823

$$$$
[H]c1nc(OC([H])([H])[H])c(N([H])S(=O)(=O)c2c([H])c([H])c(F)c([H])c2F)c([H])c1-c1nc([H])c2nc(N([H])[H])c(-c3c([H])c([H])c([H])c([H])c3[H])c([H])c2c1[H]


 40 44  0  0  0  0  0  0  0  0999 V2000
   15.3351   24.3426   -4.9294 C   0  0  0  0  0  0  0  0  0  0  0  0
   15.7792   23.0859   -4.7858 N   0  0  0  0  0  0  0  0  0  0  0  0
   15.4900   22.3132   -3.6922 C   0  0  0  0  0  0  0  0  0  0  0  0
   14.7148   22.8023   -2.6711 C   0  0  0  0  0  0  0  0  0  0  0  0
   14.2523   24.1001   -2.8122 C   0  0  0  0  0  0  0  0  0  0  0  0
   14.5539   24.8751   -3.9301 C   0  0  0  0  0  0  0  0  0  0  0  0
   14.3707   22.0250   -1.4755 C   0  0  0  0  0  0  0  0  0  0  0  0
   13.2082   22.2180   -0.8081 C   0  0  0  0  0  0  0  0  0  0  0  0
   12.8893   21.4697    0.3329 C   0  0  0  0  0  0  0  0  0  0  0  0
   11.6990   21.6843    0.9961 C   0  0  0  0  0  0  0  0  0  0  0  0
   11.4314   20.9102    2.1284 C   0  0  0  0  0  0  0  0  0  0  0  0
   12.3532   19.9628    2.5486 C   0  0  0  0  0  0  0  0  0  0  0  0
   12.0260   19.1997    3.6993 N   0  0  0  0  0  0  0  0  0  0  0  0
   13.5153   19.7740    1.8767 N   0  0  0  0  0  0  0  0  0  0  0  0
   13.7761   20.5166    0.7876 C   0  0  0  0  0  0  0  0  0  0  0  0
   14.9627   20.3427    0.0789 C   0  0  0  0  0  0  0  0  0  0  0  0
   15.2281   21.0780   -1.0055 N   0  0  0  0  0  0  0  0  0  0  0  0
   11.0637   18.8169    3.7714 H   0  0  0  0  0  0  0  0  0  0  0  0
   12.7102   19.0250    4.4434 H   0  0  0  0  0  0  0  0  0  0  0  0
   10.1957   21.1469    2.8150 C   0  0  0  0  0  0  0  0  0  0  0  0
    8.9912   21.0401    2.1609 C   0  0  0  0  0  0  0  0  0  0  0  0
    7.7956   21.2674    2.7860 C   0  0  0  0  0  0  0  0  0  0  0  0
    7.7781   21.6157    4.1136 C   0  0  0  0  0  0  0  0  0  0  0  0
    8.9636   21.7335    4.8051 C   0  0  0  0  0  0  0  0  0  0  0  0
   10.1618   21.4965    4.1430 C   0  0  0  0  0  0  0  0  0  0  0  0
   15.9076   24.4928   -7.3150 C   0  0  0  0  0  0  0  0  0  0  0  0
   15.6681   25.0838   -6.0779 O   0  0  0  0  0  0  0  0  0  0  0  0
   14.0862   26.2040   -4.0730 N   0  0  0  0  0  0  0  0  0  0  0  0
   14.7066   26.8724   -4.6133 H   0  0  0  0  0  0  0  0  0  0  0  0
   12.5884   26.7734   -3.4211 S   0  0  0  0  0  0  0  0  0  0  0  0
   12.6932   28.2569   -3.1463 O   0  0  0  0  0  0  0  0  0  0  0  0
   11.5213   26.6188   -4.4641 O   0  0  0  0  0  0  0  0  0  0  0  0
   12.1104   25.9285   -1.9904 C   0  0  0  0  0  0  0  0  0  0  0  0
   10.9235   25.2368   -1.9322 C   0  0  0  0  0  0  0  0  0  0  0  0
   10.5833   24.5708   -0.7710 C   0  0  0  0  0  0  0  0  0  0  0  0
   11.4139   24.5905    0.3245 C   0  0  0  0  0  0  0  0  0  0  0  0
   11.0934   23.9364    1.4835 F   0  0  0  0  0  0  0  0  0  0  0  0
   12.6167   25.2828    0.2866 C   0  0  0  0  0  0  0  0  0  0  0  0
   12.9275   25.9374   -0.8871 C   0  0  0  0  0  0  0  0  0  0  0  0
   14.0925   26.6234   -0.9616 F   0  0  0  0  0  0  0  0  0  0  0  0
 26 27  1  0  0  0
 27  1  1  0  0  0
  1  2  2  0  0  0
  2  3  1  0  0  0
  3  4  2  0  0  0
  4  7  1  0  0  0
  7  8  2  0  0  0
  8  9  1  0  0  0
  9 10  2  0  0  0
 10 11  1  0  0  0
 11 20  1  0  0  0
 20 21  2  0  0  0
 21 22  1  0  0  0
 22 23  2  0  0  0
 23 24  1  0  0  0
 24 25  2  0  0  0
 11 12  2  0  0  0
 12 13  1  0  0  0
 12 14  1  0  0  0
 14 15  2  0  0  0
 15 16  1  0  0  0
 16 17  2  0  0  0
  4  5  1  0  0  0
  5  6  2  0  0  0
  6 28  1  0  0  0
 28 30  1  0  0  0
 30 31  2  0  0  0
 30 32  2  0  0  0
 30 33  1  0  0  0
 33 34  2  0  0  0
 34 35  1  0  0  0
 35 36  2  0  0  0
 36 37  1  0  0  0
 36 38  1  0  0  0
 38 39  2  0  0  0
 39 40  1  0  0  0
  6  1  1  0  0  0
 39 33  1  0  0  0
 17  7  1  0  0  0
 15  9  1  0  0  0
 25 20  1  0  0  0
 13 18  1  0  0  0
 13 19  1  0  0  0
 28 29  1  0  0  0
M  END
> <minimizedAffinity>
3.27964

> <CNNscore>
0.5271663070

> <CNNaffinity>
7.9590973854

> <CNN_VS>
4.1957678795

> <CNNaffinity_variance>
0.7169607878

$$$$
[H]c1nc(OC([H])([H])[H])c(N([H])S(=O)(=O)c2c([H])c([H])c(F)c([H])c2F)c([H])c1-c1nc([H])c2nc(N([H])[H])c(-c3c([H])c([H])c([H])c([H])c3[H])c([H])c2c1[H]


 40 44  0  0  0  0  0  0  0  0999 V2000
   15.2336   28.8035   -5.4803 C   0  0  0  0  0  0  0  0  0  0  0  0
   15.4581   27.5543   -5.9121 N   0  0  0  0  0  0  0  0  0  0  0  0
   15.0771   26.4424   -5.2085 C   0  0  0  0  0  0  0  0  0  0  0  0
   14.4337   26.5601   -4.0023 C   0  0  0  0  0  0  0  0  0  0  0  0
   14.1983   27.8475   -3.5494 C   0  0  0  0  0  0  0  0  0  0  0  0
   14.5911   28.9701   -4.2753 C   0  0  0  0  0  0  0  0  0  0  0  0
   14.0012   25.4087   -3.2025 C   0  0  0  0  0  0  0  0  0  0  0  0
   12.9636   25.4901   -2.3360 C   0  0  0  0  0  0  0  0  0  0  0  0
   12.5587   24.3840   -1.5770 C   0  0  0  0  0  0  0  0  0  0  0  0
   11.4989   24.4912   -0.7007 C   0  0  0  0  0  0  0  0  0  0  0  0
   11.1371   23.3571    0.0313 C   0  0  0  0  0  0  0  0  0  0  0  0
   11.8406   22.1739   -0.1392 C   0  0  0  0  0  0  0  0  0  0  0  0
   11.4249   21.0520    0.6236 N   0  0  0  0  0  0  0  0  0  0  0  0
   12.8785   22.0983   -1.0079 N   0  0  0  0  0  0  0  0  0  0  0  0
   13.2293   23.1868   -1.7135 C   0  0  0  0  0  0  0  0  0  0  0  0
   14.2918   23.1362   -2.6128 C   0  0  0  0  0  0  0  0  0  0  0  0
   14.6457   24.2153   -3.3179 N   0  0  0  0  0  0  0  0  0  0  0  0
   10.4073   20.8557    0.6848 H   0  0  0  0  0  0  0  0  0  0  0  0
   12.0991   20.4464    1.1041 H   0  0  0  0  0  0  0  0  0  0  0  0
   10.0400   23.4814    0.9451 C   0  0  0  0  0  0  0  0  0  0  0  0
    8.8089   22.9452    0.6497 C   0  0  0  0  0  0  0  0  0  0  0  0
    7.7403   23.0538    1.4970 C   0  0  0  0  0  0  0  0  0  0  0  0
    7.8831   23.7186    2.6895 C   0  0  0  0  0  0  0  0  0  0  0  0
    9.1003   24.2705    3.0230 C   0  0  0  0  0  0  0  0  0  0  0  0
   10.1671   24.1438    2.1418 C   0  0  0  0  0  0  0  0  0  0  0  0
   16.4741   29.7770   -7.3657 C   0  0  0  0  0  0  0  0  0  0  0  0
   15.6505   29.9042   -6.2510 O   0  0  0  0  0  0  0  0  0  0  0  0
   14.3559   30.2869   -3.8108 N   0  0  0  0  0  0  0  0  0  0  0  0
   14.8515   30.5735   -2.9187 H   0  0  0  0  0  0  0  0  0  0  0  0
   13.3215   31.4199   -4.6099 S   0  0  0  0  0  0  0  0  0  0  0  0
   13.6238   32.8145   -4.1088 O   0  0  0  0  0  0  0  0  0  0  0  0
   13.6532   31.4237   -6.0730 O   0  0  0  0  0  0  0  0  0  0  0  0
   11.6425   31.0591   -4.4095 C   0  0  0  0  0  0  0  0  0  0  0  0
   10.7713   31.0994   -5.4724 C   0  0  0  0  0  0  0  0  0  0  0  0
    9.4389   30.7982   -5.2687 C   0  0  0  0  0  0  0  0  0  0  0  0
    8.9737   30.4594   -4.0200 C   0  0  0  0  0  0  0  0  0  0  0  0
    7.6568   30.1578   -3.7992 F   0  0  0  0  0  0  0  0  0  0  0  0
    9.8365   30.4128   -2.9334 C   0  0  0  0  0  0  0  0  0  0  0  0
   11.1607   30.7189   -3.1697 C   0  0  0  0  0  0  0  0  0  0  0  0
   12.0321   30.6841   -2.1341 F   0  0  0  0  0  0  0  0  0  0  0  0
 26 27  1  0  0  0
 27  1  1  0  0  0
  1  2  2  0  0  0
  2  3  1  0  0  0
  3  4  2  0  0  0
  4  7  1  0  0  0
  7  8  2  0  0  0
  8  9  1  0  0  0
  9 10  2  0  0  0
 10 11  1  0  0  0
 11 20  1  0  0  0
 20 21  2  0  0  0
 21 22  1  0  0  0
 22 23  2  0  0  0
 23 24  1  0  0  0
 24 25  2  0  0  0
 11 12  2  0  0  0
 12 13  1  0  0  0
 12 14  1  0  0  0
 14 15  2  0  0  0
 15 16  1  0  0  0
 16 17  2  0  0  0
  4  5  1  0  0  0
  5  6  2  0  0  0
  6 28  1  0  0  0
 28 30  1  0  0  0
 30 31  2  0  0  0
 30 32  2  0  0  0
 30 33  1  0  0  0
 33 34  2  0  0  0
 34 35  1  0  0  0
 35 36  2  0  0  0
 36 37  1  0  0  0
 36 38  1  0  0  0
 38 39  2  0  0  0
 39 40  1  0  0  0
  6  1  1  0  0  0
 39 33  1  0  0  0
 17  7  1  0  0  0
 15  9  1  0  0  0
 25 20  1  0  0  0
 13 18  1  0  0  0
 13 19  1  0  0  0
 28 29  1  0  0  0
M  END
> <minimizedAffinity>
26.49997

> <CNNscore>
0.4662110806

> <CNNaffinity>
7.3888840675

> <CNN_VS>
3.4447796345

> <CNNaffinity_variance>
0.6039528847

$$$$
[H]c1nc(OC([H])([H])[H])c(N([H])S(=O)(=O)c2c([H])c([H])c(F)c([H])c2F)c([H])c1-c1nc([H])c2nc(N([H])[H])c(-c3c([H])c([H])c([H])c([H])c3[H])c([H])c2c1[H]


 40 44  0  0  0  0  0  0  0  0999 V2000
   12.1326   20.9297   -0.0673 C   0  0  0  0  0  0  0  0  0  0  0  0
   12.0592   22.0914    0.5979 N   0  0  0  0  0  0  0  0  0  0  0  0
   12.4560   23.2862    0.0580 C   0  0  0  0  0  0  0  0  0  0  0  0
   12.9581   23.3490   -1.2175 C   0  0  0  0  0  0  0  0  0  0  0  0
   13.0371   22.1530   -1.9111 C   0  0  0  0  0  0  0  0  0  0  0  0
   12.6297   20.9444   -1.3499 C   0  0  0  0  0  0  0  0  0  0  0  0
   13.3993   24.5967   -1.8506 C   0  0  0  0  0  0  0  0  0  0  0  0
   12.5183   25.5394   -2.2620 C   0  0  0  0  0  0  0  0  0  0  0  0
   12.9506   26.7278   -2.8655 C   0  0  0  0  0  0  0  0  0  0  0  0
   12.0343   27.6734   -3.2765 C   0  0  0  0  0  0  0  0  0  0  0  0
   12.5200   28.8404   -3.8725 C   0  0  0  0  0  0  0  0  0  0  0  0
   13.8868   29.0146   -4.0324 C   0  0  0  0  0  0  0  0  0  0  0  0
   14.3243   30.2219   -4.6362 N   0  0  0  0  0  0  0  0  0  0  0  0
   14.7640   28.0675   -3.6188 N   0  0  0  0  0  0  0  0  0  0  0  0
   14.3007   26.9441   -3.0454 C   0  0  0  0  0  0  0  0  0  0  0  0
   15.1804   25.9551   -2.6114 C   0  0  0  0  0  0  0  0  0  0  0  0
   14.7259   24.8353   -2.0401 N   0  0  0  0  0  0  0  0  0  0  0  0
   13.8865   31.1092   -4.3220 H   0  0  0  0  0  0  0  0  0  0  0  0
   15.0497   30.2305   -5.3615 H   0  0  0  0  0  0  0  0  0  0  0  0
   11.5593   29.8127   -4.3035 C   0  0  0  0  0  0  0  0  0  0  0  0
   11.8435   31.1571   -4.2570 C   0  0  0  0  0  0  0  0  0  0  0  0
   10.9452   32.1098   -4.6534 C   0  0  0  0  0  0  0  0  0  0  0  0
    9.7106   31.7288   -5.1170 C   0  0  0  0  0  0  0  0  0  0  0  0
    9.3865   30.3915   -5.1793 C   0  0  0  0  0  0  0  0  0  0  0  0
   10.3198   29.4473   -4.7695 C   0  0  0  0  0  0  0  0  0  0  0  0
   10.4713   19.6058    1.1692 C   0  0  0  0  0  0  0  0  0  0  0  0
   11.7082   19.7360    0.5445 O   0  0  0  0  0  0  0  0  0  0  0  0
   12.7151   19.7200   -2.0561 N   0  0  0  0  0  0  0  0  0  0  0  0
   12.3702   18.8537   -1.5519 H   0  0  0  0  0  0  0  0  0  0  0  0
   13.3426   19.5758   -3.6616 S   0  0  0  0  0  0  0  0  0  0  0  0
   14.1683   18.3129   -3.7654 O   0  0  0  0  0  0  0  0  0  0  0  0
   12.1949   19.4005   -4.6116 O   0  0  0  0  0  0  0  0  0  0  0  0
   14.2769   20.9473   -4.1470 C   0  0  0  0  0  0  0  0  0  0  0  0
   14.1377   21.4998   -5.3983 C   0  0  0  0  0  0  0  0  0  0  0  0
   14.9000   22.5989   -5.7426 C   0  0  0  0  0  0  0  0  0  0  0  0
   15.7937   23.1463   -4.8525 C   0  0  0  0  0  0  0  0  0  0  0  0
   16.5573   24.2353   -5.1761 F   0  0  0  0  0  0  0  0  0  0  0  0
   15.9495   22.6037   -3.5841 C   0  0  0  0  0  0  0  0  0  0  0  0
   15.1740   21.5067   -3.2710 C   0  0  0  0  0  0  0  0  0  0  0  0
   15.2985   20.9502   -2.0430 F   0  0  0  0  0  0  0  0  0  0  0  0
 26 27  1  0  0  0
 27  1  1  0  0  0
  1  2  2  0  0  0
  2  3  1  0  0  0
  3  4  2  0  0  0
  4  7  1  0  0  0
  7  8  2  0  0  0
  8  9  1  0  0  0
  9 10  2  0  0  0
 10 11  1  0  0  0
 11 20  1  0  0  0
 20 21  2  0  0  0
 21 22  1  0  0  0
 22 23  2  0  0  0
 23 24  1  0  0  0
 24 25  2  0  0  0
 11 12  2  0  0  0
 12 13  1  0  0  0
 12 14  1  0  0  0
 14 15  2  0  0  0
 15 16  1  0  0  0
 16 17  2  0  0  0
  4  5  1  0  0  0
  5  6  2  0  0  0
  6 28  1  0  0  0
 28 30  1  0  0  0
 30 31  2  0  0  0
 30 32  2  0  0  0
 30 33  1  0  0  0
 33 34  2  0  0  0
 34 35  1  0  0  0
 35 36  2  0  0  0
 36 37  1  0  0  0
 36 38  1  0  0  0
 38 39  2  0  0  0
 39 40  1  0  0  0
  6  1  1  0  0  0
 39 33  1  0  0  0
 17  7  1  0  0  0
 15  9  1  0  0  0
 25 20  1  0  0  0
 13 18  1  0  0  0
 13 19  1  0  0  0
 28 29  1  0  0  0
M  END
> <minimizedAffinity>
43.36858

> <CNNscore>
0.4640464187

> <CNNaffinity>
7.1711030006

> <CNN_VS>
3.3277246952

> <CNNaffinity_variance>
1.0119800568

$$$$
[H]c1nc(OC([H])([H])[H])c(N([H])S(=O)(=O)c2c([H])c([H])c(F)c([H])c2F)c([H])c1-c1nc([H])c2nc(N([H])[H])c(-c3c([H])c([H])c([H])c([H])c3[H])c([H])c2c1[H]


 40 44  0  0  0  0  0  0  0  0999 V2000
   13.8935   26.8202   -4.1019 C   0  0  0  0  0  0  0  0  0  0  0  0
   12.5801   27.0551   -3.9712 N   0  0  0  0  0  0  0  0  0  0  0  0
   11.8045   26.4454   -3.0208 C   0  0  0  0  0  0  0  0  0  0  0  0
   12.3499   25.5459   -2.1397 C   0  0  0  0  0  0  0  0  0  0  0  0
   13.7062   25.2978   -2.2686 C   0  0  0  0  0  0  0  0  0  0  0  0
   14.4837   25.9253   -3.2399 C   0  0  0  0  0  0  0  0  0  0  0  0
   11.5725   24.8608   -1.1011 C   0  0  0  0  0  0  0  0  0  0  0  0
   10.7838   23.7969   -1.3842 C   0  0  0  0  0  0  0  0  0  0  0  0
   10.0455   23.1498   -0.3844 C   0  0  0  0  0  0  0  0  0  0  0  0
    9.2488   22.0680   -0.6970 C   0  0  0  0  0  0  0  0  0  0  0  0
    8.5340   21.4601    0.3386 C   0  0  0  0  0  0  0  0  0  0  0  0
    8.6423   21.9514    1.6312 C   0  0  0  0  0  0  0  0  0  0  0  0
    7.9008   21.2906    2.6446 N   0  0  0  0  0  0  0  0  0  0  0  0
    9.4333   23.0168    1.9087 N   0  0  0  0  0  0  0  0  0  0  0  0
   10.1220   23.6040    0.9155 C   0  0  0  0  0  0  0  0  0  0  0  0
   10.9420   24.7001    1.1733 C   0  0  0  0  0  0  0  0  0  0  0  0
   11.6299   25.2886    0.1898 N   0  0  0  0  0  0  0  0  0  0  0  0
    7.9112   20.2525    2.6561 H   0  0  0  0  0  0  0  0  0  0  0  0
    7.3673   21.8112    3.3493 H   0  0  0  0  0  0  0  0  0  0  0  0
    7.7029   20.3421    0.0017 C   0  0  0  0  0  0  0  0  0  0  0  0
    6.6247   20.0010    0.7837 C   0  0  0  0  0  0  0  0  0  0  0  0
    5.8174   18.9352    0.4935 C   0  0  0  0  0  0  0  0  0  0  0  0
    6.0776   18.1672   -0.6141 C   0  0  0  0  0  0  0  0  0  0  0  0
    7.1486   18.4754   -1.4236 C   0  0  0  0  0  0  0  0  0  0  0  0
    7.9504   19.5638   -1.1028 C   0  0  0  0  0  0  0  0  0  0  0  0
   14.8437   26.9405   -6.3656 C   0  0  0  0  0  0  0  0  0  0  0  0
   14.6344   27.4798   -5.0997 O   0  0  0  0  0  0  0  0  0  0  0  0
   15.8695   25.6684   -3.3762 N   0  0  0  0  0  0  0  0  0  0  0  0
   16.3854   26.2181   -4.1215 H   0  0  0  0  0  0  0  0  0  0  0  0
   16.7372   24.5263   -2.4093 S   0  0  0  0  0  0  0  0  0  0  0  0
   17.6416   23.7019   -3.2980 O   0  0  0  0  0  0  0  0  0  0  0  0
   17.6425   25.2761   -1.4772 O   0  0  0  0  0  0  0  0  0  0  0  0
   15.6991   23.4967   -1.4864 C   0  0  0  0  0  0  0  0  0  0  0  0
   15.5582   23.6567   -0.1281 C   0  0  0  0  0  0  0  0  0  0  0  0
   14.7136   22.8155    0.5696 C   0  0  0  0  0  0  0  0  0  0  0  0
   14.0139   21.8228   -0.0749 C   0  0  0  0  0  0  0  0  0  0  0  0
   13.1724   20.9799    0.5999 F   0  0  0  0  0  0  0  0  0  0  0  0
   14.1418   21.6443   -1.4458 C   0  0  0  0  0  0  0  0  0  0  0  0
   14.9927   22.5003   -2.1135 C   0  0  0  0  0  0  0  0  0  0  0  0
   15.1433   22.3566   -3.4514 F   0  0  0  0  0  0  0  0  0  0  0  0
 26 27  1  0  0  0
 27  1  1  0  0  0
  1  2  2  0  0  0
  2  3  1  0  0  0
  3  4  2  0  0  0
  4  7  1  0  0  0
  7  8  2  0  0  0
  8  9  1  0  0  0
  9 10  2  0  0  0
 10 11  1  0  0  0
 11 20  1  0  0  0
 20 21  2  0  0  0
 21 22  1  0  0  0
 22 23  2  0  0  0
 23 24  1  0  0  0
 24 25  2  0  0  0
 11 12  2  0  0  0
 12 13  1  0  0  0
 12 14  1  0  0  0
 14 15  2  0  0  0
 15 16  1  0  0  0
 16 17  2  0  0  0
  4  5  1  0  0  0
  5  6  2  0  0  0
  6 28  1  0  0  0
 28 30  1  0  0  0
 30 31  2  0  0  0
 30 32  2  0  0  0
 30 33  1  0  0  0
 33 34  2  0  0  0
 34 35  1  0  0  0
 35 36  2  0  0  0
 36 37  1  0  0  0
 36 38  1  0  0  0
 38 39  2  0  0  0
 39 40  1  0  0  0
  6  1  1  0  0  0
 39 33  1  0  0  0
 17  7  1  0  0  0
 15  9  1  0  0  0
 25 20  1  0  0  0
 13 18  1  0  0  0
 13 19  1  0  0  0
 28 29  1  0  0  0
M  END
> <minimizedAffinity>
-3.29249

> <CNNscore>
0.4527800381

> <CNNaffinity>
7.8864793777

> <CNN_VS>
3.5708403587

> <CNNaffinity_variance>
0.1604467183

$$$$
[H]c1nc(OC([H])([H])[H])c(N([H])S(=O)(=O)c2c([H])c([H])c(F)c([H])c2F)c([H])c1-c1nc([H])c2nc(N([H])[H])c(-c3c([H])c([H])c([H])c([H])c3[H])c([H])c2c1[H]


 40 44  0  0  0  0  0  0  0  0999 V2000
   10.6084   22.9089    1.6508 C   0  0  0  0  0  0  0  0  0  0  0  0
   11.0222   24.1153    2.0640 N   0  0  0  0  0  0  0  0  0  0  0  0
   11.9278   24.8716    1.3681 C   0  0  0  0  0  0  0  0  0  0  0  0
   12.4646   24.4178    0.1897 C   0  0  0  0  0  0  0  0  0  0  0  0
   12.0421   23.1722   -0.2437 C   0  0  0  0  0  0  0  0  0  0  0  0
   11.1199   22.4132    0.4739 C   0  0  0  0  0  0  0  0  0  0  0  0
   13.4377   25.1802   -0.6004 C   0  0  0  0  0  0  0  0  0  0  0  0
   13.5028   25.0740   -1.9489 C   0  0  0  0  0  0  0  0  0  0  0  0
   14.4362   25.8070   -2.6940 C   0  0  0  0  0  0  0  0  0  0  0  0
   14.4836   25.6822   -4.0669 C   0  0  0  0  0  0  0  0  0  0  0  0
   15.4339   26.4363   -4.7606 C   0  0  0  0  0  0  0  0  0  0  0  0
   16.2895   27.2762   -4.0630 C   0  0  0  0  0  0  0  0  0  0  0  0
   17.2289   28.0243   -4.8188 N   0  0  0  0  0  0  0  0  0  0  0  0
   16.2198   27.3783   -2.7131 N   0  0  0  0  0  0  0  0  0  0  0  0
   15.3075   26.6546   -2.0427 C   0  0  0  0  0  0  0  0  0  0  0  0
   15.2146   26.7409   -0.6555 C   0  0  0  0  0  0  0  0  0  0  0  0
   14.3091   26.0238    0.0174 N   0  0  0  0  0  0  0  0  0  0  0  0
   16.8947   28.4937   -5.6824 H   0  0  0  0  0  0  0  0  0  0  0  0
   18.2102   28.1062   -4.5313 H   0  0  0  0  0  0  0  0  0  0  0  0
   15.4804   26.2930   -6.1859 C   0  0  0  0  0  0  0  0  0  0  0  0
   16.5233   26.8127   -6.9156 C   0  0  0  0  0  0  0  0  0  0  0  0
   16.5926   26.6996   -8.2773 C   0  0  0  0  0  0  0  0  0  0  0  0
   15.5940   26.0474   -8.9568 C   0  0  0  0  0  0  0  0  0  0  0  0
   14.5313   25.5125   -8.2627 C   0  0  0  0  0  0  0  0  0  0  0  0
   14.4888   25.6435   -6.8801 C   0  0  0  0  0  0  0  0  0  0  0  0
    8.3572   22.5940    2.5859 C   0  0  0  0  0  0  0  0  0  0  0  0
    9.6752   22.1818    2.4123 O   0  0  0  0  0  0  0  0  0  0  0  0
   10.6913   21.1370    0.0347 N   0  0  0  0  0  0  0  0  0  0  0  0
    9.7788   20.7763    0.4359 H   0  0  0  0  0  0  0  0  0  0  0  0
   11.5668   20.1631   -1.0955 S   0  0  0  0  0  0  0  0  0  0  0  0
   11.9134   18.8387   -0.4528 O   0  0  0  0  0  0  0  0  0  0  0  0
   10.6654   19.8407   -2.2505 O   0  0  0  0  0  0  0  0  0  0  0  0
   12.9950   20.9363   -1.6887 C   0  0  0  0  0  0  0  0  0  0  0  0
   13.3543   20.8538   -3.0132 C   0  0  0  0  0  0  0  0  0  0  0  0
   14.5004   21.4918   -3.4457 C   0  0  0  0  0  0  0  0  0  0  0  0
   15.2845   22.2065   -2.5711 C   0  0  0  0  0  0  0  0  0  0  0  0
   16.4236   22.8452   -2.9817 F   0  0  0  0  0  0  0  0  0  0  0  0
   14.9396   22.3023   -1.2298 C   0  0  0  0  0  0  0  0  0  0  0  0
   13.7896   21.6542   -0.8295 C   0  0  0  0  0  0  0  0  0  0  0  0
   13.4211   21.7252    0.4714 F   0  0  0  0  0  0  0  0  0  0  0  0
 26 27  1  0  0  0
 27  1  1  0  0  0
  1  2  2  0  0  0
  2  3  1  0  0  0
  3  4  2  0  0  0
  4  7  1  0  0  0
  7  8  2  0  0  0
  8  9  1  0  0  0
  9 10  2  0  0  0
 10 11  1  0  0  0
 11 20  1  0  0  0
 20 21  2  0  0  0
 21 22  1  0  0  0
 22 23  2  0  0  0
 23 24  1  0  0  0
 24 25  2  0  0  0
 11 12  2  0  0  0
 12 13  1  0  0  0
 12 14  1  0  0  0
 14 15  2  0  0  0
 15 16  1  0  0  0
 16 17  2  0  0  0
  4  5  1  0  0  0
  5  6  2  0  0  0
  6 28  1  0  0  0
 28 30  1  0  0  0
 30 31  2  0  0  0
 30 32  2  0  0  0
 30 33  1  0  0  0
 33 34  2  0  0  0
 34 35  1  0  0  0
 35 36  2  0  0  0
 36 37  1  0  0  0
 36 38  1  0  0  0
 38 39  2  0  0  0
 39 40  1  0  0  0
  6  1  1  0  0  0
 39 33  1  0  0  0
 17  7  1  0  0  0
 15  9  1  0  0  0
 25 20  1  0  0  0
 13 18  1  0  0  0
 13 19  1  0  0  0
 28 29  1  0  0  0
M  END
> <minimizedAffinity>
14.75809

> <CNNscore>
0.4329333901

> <CNNaffinity>
8.0574932098

> <CNN_VS>
3.4883577824

> <CNNaffinity_variance>
1.2440922260

$$$$
[H]c1nc(OC([H])([H])[H])c(N([H])S(=O)(=O)c2c([H])c([H])c(F)c([H])c2F)c([H])c1-c1nc([H])c2nc(N([H])[H])c(-c3c([H])c([H])c([H])c([H])c3[H])c([H])c2c1[H]


 40 44  0  0  0  0  0  0  0  0999 V2000
   13.2600   27.9713   -3.3247 C   0  0  0  0  0  0  0  0  0  0  0  0
   12.2520   27.2594   -3.8486 N   0  0  0  0  0  0  0  0  0  0  0  0
   11.9795   25.9688   -3.4786 C   0  0  0  0  0  0  0  0  0  0  0  0
   12.7438   25.3323   -2.5334 C   0  0  0  0  0  0  0  0  0  0  0  0
   13.7871   26.0612   -1.9876 C   0  0  0  0  0  0  0  0  0  0  0  0
   14.0532   27.3736   -2.3729 C   0  0  0  0  0  0  0  0  0  0  0  0
   12.5025   23.9529   -2.0957 C   0  0  0  0  0  0  0  0  0  0  0  0
   11.2811   23.5375   -1.6840 C   0  0  0  0  0  0  0  0  0  0  0  0
   11.0616   22.2175   -1.2681 C   0  0  0  0  0  0  0  0  0  0  0  0
    9.8085   21.8176   -0.8528 C   0  0  0  0  0  0  0  0  0  0  0  0
    9.6453   20.4899   -0.4485 C   0  0  0  0  0  0  0  0  0  0  0  0
   10.7285   19.6238   -0.4748 C   0  0  0  0  0  0  0  0  0  0  0  0
   10.5036   18.2852   -0.0613 N   0  0  0  0  0  0  0  0  0  0  0  0
   11.9489   20.0453   -0.8877 N   0  0  0  0  0  0  0  0  0  0  0  0
   12.1096   21.3213   -1.2772 C   0  0  0  0  0  0  0  0  0  0  0  0
   13.3530   21.7801   -1.7060 C   0  0  0  0  0  0  0  0  0  0  0  0
   13.5194   23.0481   -2.0949 N   0  0  0  0  0  0  0  0  0  0  0  0
    9.6540   17.8037   -0.4134 H   0  0  0  0  0  0  0  0  0  0  0  0
   11.1530   17.7978    0.5657 H   0  0  0  0  0  0  0  0  0  0  0  0
    8.3414   20.0867   -0.0110 C   0  0  0  0  0  0  0  0  0  0  0  0
    8.1359   18.8512    0.5560 C   0  0  0  0  0  0  0  0  0  0  0  0
    6.9025   18.4341    0.9761 C   0  0  0  0  0  0  0  0  0  0  0  0
    5.8192   19.2651    0.8344 C   0  0  0  0  0  0  0  0  0  0  0  0
    5.9827   20.5114    0.2709 C   0  0  0  0  0  0  0  0  0  0  0  0
    7.2477   20.9068   -0.1462 C   0  0  0  0  0  0  0  0  0  0  0  0
   12.4598   30.2141   -3.9340 C   0  0  0  0  0  0  0  0  0  0  0  0
   13.4871   29.2936   -3.7480 O   0  0  0  0  0  0  0  0  0  0  0  0
   15.1231   28.1182   -1.8196 N   0  0  0  0  0  0  0  0  0  0  0  0
   15.0006   29.1703   -1.7781 H   0  0  0  0  0  0  0  0  0  0  0  0
   16.5847   27.4086   -1.2257 S   0  0  0  0  0  0  0  0  0  0  0  0
   17.6559   27.5032   -2.2891 O   0  0  0  0  0  0  0  0  0  0  0  0
   17.0774   28.2236   -0.0666 O   0  0  0  0  0  0  0  0  0  0  0  0
   16.3816   25.7677   -0.7202 C   0  0  0  0  0  0  0  0  0  0  0  0
   15.9511   25.4591    0.5485 C   0  0  0  0  0  0  0  0  0  0  0  0
   15.7969   24.1347    0.9087 C   0  0  0  0  0  0  0  0  0  0  0  0
   16.0676   23.1235    0.0172 C   0  0  0  0  0  0  0  0  0  0  0  0
   15.9205   21.8055    0.3564 F   0  0  0  0  0  0  0  0  0  0  0  0
   16.5033   23.4134   -1.2687 C   0  0  0  0  0  0  0  0  0  0  0  0
   16.6472   24.7454   -1.5973 C   0  0  0  0  0  0  0  0  0  0  0  0
   17.0703   25.0669   -2.8427 F   0  0  0  0  0  0  0  0  0  0  0  0
 26 27  1  0  0  0
 27  1  1  0  0  0
  1  2  2  0  0  0
  2  3  1  0  0  0
  3  4  2  0  0  0
  4  7  1  0  0  0
  7  8  2  0  0  0
  8  9  1  0  0  0
  9 10  2  0  0  0
 10 11  1  0  0  0
 11 20  1  0  0  0
 20 21  2  0  0  0
 21 22  1  0  0  0
 22 23  2  0  0  0
 23 24  1  0  0  0
 24 25  2  0  0  0
 11 12  2  0  0  0
 12 13  1  0  0  0
 12 14  1  0  0  0
 14 15  2  0  0  0
 15 16  1  0  0  0
 16 17  2  0  0  0
  4  5  1  0  0  0
  5  6  2  0  0  0
  6 28  1  0  0  0
 28 30  1  0  0  0
 30 31  2  0  0  0
 30 32  2  0  0  0
 30 33  1  0  0  0
 33 34  2  0  0  0
 34 35  1  0  0  0
 35 36  2  0  0  0
 36 37  1  0  0  0
 36 38  1  0  0  0
 38 39  2  0  0  0
 39 40  1  0  0  0
  6  1  1  0  0  0
 39 33  1  0  0  0
 17  7  1  0  0  0
 15  9  1  0  0  0
 25 20  1  0  0  0
 13 18  1  0  0  0
 13 19  1  0  0  0
 28 29  1  0  0  0
M  END
> <minimizedAffinity>
30.55542

> <CNNscore>
0.4105895758

> <CNNaffinity>
7.0880956650

> <CNN_VS>
2.9102981091

> <CNNaffinity_variance>
0.3427718282

$$$$
[H]c1nc(OC([H])([H])[H])c(N([H])S(=O)(=O)c2c([H])c([H])c(F)c([H])c2F)c([H])c1-c1nc([H])c2nc(N([H])[H])c(-c3c([H])c([H])c([H])c([H])c3[H])c([H])c2c1[H]


 40 44  0  0  0  0  0  0  0  0999 V2000
   14.5203   25.7518   -4.1760 C   0  0  0  0  0  0  0  0  0  0  0  0
   13.7557   26.7329   -3.6759 N   0  0  0  0  0  0  0  0  0  0  0  0
   12.9505   26.5658   -2.5803 C   0  0  0  0  0  0  0  0  0  0  0  0
   12.8890   25.3588   -1.9307 C   0  0  0  0  0  0  0  0  0  0  0  0
   13.6760   24.3402   -2.4415 C   0  0  0  0  0  0  0  0  0  0  0  0
   14.4909   24.5238   -3.5567 C   0  0  0  0  0  0  0  0  0  0  0  0
   12.0469   25.1177   -0.7537 C   0  0  0  0  0  0  0  0  0  0  0  0
   11.1303   24.1213   -0.7233 C   0  0  0  0  0  0  0  0  0  0  0  0
   10.3312   23.8996    0.4062 C   0  0  0  0  0  0  0  0  0  0  0  0
    9.4041   22.8784    0.4138 C   0  0  0  0  0  0  0  0  0  0  0  0
    8.6335   22.7018    1.5662 C   0  0  0  0  0  0  0  0  0  0  0  0
    8.8178   23.5431    2.6535 C   0  0  0  0  0  0  0  0  0  0  0  0
    8.0141   23.3129    3.8000 N   0  0  0  0  0  0  0  0  0  0  0  0
    9.7368   24.5389    2.6173 N   0  0  0  0  0  0  0  0  0  0  0  0
   10.4794   24.7118    1.5108 C   0  0  0  0  0  0  0  0  0  0  0  0
   11.4308   25.7273    1.4474 C   0  0  0  0  0  0  0  0  0  0  0  0
   12.1729   25.9045    0.3498 N   0  0  0  0  0  0  0  0  0  0  0  0
    7.8973   22.3334    4.1233 H   0  0  0  0  0  0  0  0  0  0  0  0
    7.5574   24.0821    4.3021 H   0  0  0  0  0  0  0  0  0  0  0  0
    7.6674   21.6431    1.5606 C   0  0  0  0  0  0  0  0  0  0  0  0
    7.4917   20.8398    2.6623 C   0  0  0  0  0  0  0  0  0  0  0  0
    6.5838   19.8165    2.6854 C   0  0  0  0  0  0  0  0  0  0  0  0
    5.8118   19.5677    1.5781 C   0  0  0  0  0  0  0  0  0  0  0  0
    5.9573   20.3496    0.4535 C   0  0  0  0  0  0  0  0  0  0  0  0
    6.8878   21.3815    0.4602 C   0  0  0  0  0  0  0  0  0  0  0  0
   15.0080   25.5106   -6.5729 C   0  0  0  0  0  0  0  0  0  0  0  0
   15.3259   25.9883   -5.3049 O   0  0  0  0  0  0  0  0  0  0  0  0
   15.2919   23.4815   -4.0834 N   0  0  0  0  0  0  0  0  0  0  0  0
   16.0571   23.7638   -4.7605 H   0  0  0  0  0  0  0  0  0  0  0  0
   15.0832   21.8112   -3.6850 S   0  0  0  0  0  0  0  0  0  0  0  0
   14.0826   21.1908   -4.6343 O   0  0  0  0  0  0  0  0  0  0  0  0
   16.3800   21.0954   -3.9228 O   0  0  0  0  0  0  0  0  0  0  0  0
   14.5910   21.5645   -2.0460 C   0  0  0  0  0  0  0  0  0  0  0  0
   15.1744   22.2588   -1.0127 C   0  0  0  0  0  0  0  0  0  0  0  0
   14.7465   22.0350    0.2814 C   0  0  0  0  0  0  0  0  0  0  0  0
   13.7473   21.1292    0.5487 C   0  0  0  0  0  0  0  0  0  0  0  0
   13.3103   20.8944    1.8246 F   0  0  0  0  0  0  0  0  0  0  0  0
   13.1449   20.4178   -0.4801 C   0  0  0  0  0  0  0  0  0  0  0  0
   13.5946   20.6640   -1.7607 C   0  0  0  0  0  0  0  0  0  0  0  0
   13.0309   19.9889   -2.7901 F   0  0  0  0  0  0  0  0  0  0  0  0
 26 27  1  0  0  0
 27  1  1  0  0  0
  1  2  2  0  0  0
  2  3  1  0  0  0
  3  4  2  0  0  0
  4  7  1  0  0  0
  7  8  2  0  0  0
  8  9  1  0  0  0
  9 10  2  0  0  0
 10 11  1  0  0  0
 11 20  1  0  0  0
 20 21  2  0  0  0
 21 22  1  0  0  0
 22 23  2  0  0  0
 23 24  1  0  0  0
 24 25  2  0  0  0
 11 12  2  0  0  0
 12 13  1  0  0  0
 12 14  1  0  0  0
 14 15  2  0  0  0
 15 16  1  0  0  0
 16 17  2  0  0  0
  4  5  1  0  0  0
  5  6  2  0  0  0
  6 28  1  0  0  0
 28 30  1  0  0  0
 30 31  2  0  0  0
 30 32  2  0  0  0
 30 33  1  0  0  0
 33 34  2  0  0  0
 34 35  1  0  0  0
 35 36  2  0  0  0
 36 37  1  0  0  0
 36 38  1  0  0  0
 38 39  2  0  0  0
 39 40  1  0  0  0
  6  1  1  0  0  0
 39 33  1  0  0  0
 17  7  1  0  0  0
 15  9  1  0  0  0
 25 20  1  0  0  0
 13 18  1  0  0  0
 13 19  1  0  0  0
 28 29  1  0  0  0
M  END
> <minimizedAffinity>
0.34391

> <CNNscore>
0.4094144702

> <CNNaffinity>
7.6347885132

> <CNN_VS>
3.1257929802

> <CNNaffinity_variance>
0.2279299200

$$$$
[H]c1nc(OC([H])([H])[H])c(N([H])S(=O)(=O)c2c([H])c([H])c(F)c([H])c2F)c([H])c1-c1nc([H])c2nc(N([H])[H])c(-c3c([H])c([H])c([H])c([H])c3[H])c([H])c2c1[H]


 40 44  0  0  0  0  0  0  0  0999 V2000
   13.3500   20.6208    1.4601 C   0  0  0  0  0  0  0  0  0  0  0  0
   14.4600   21.3726    1.4505 N   0  0  0  0  0  0  0  0  0  0  0  0
   14.6029   22.4813    0.6586 C   0  0  0  0  0  0  0  0  0  0  0  0
   13.5929   22.8812   -0.1797 C   0  0  0  0  0  0  0  0  0  0  0  0
   12.4430   22.1095   -0.1755 C   0  0  0  0  0  0  0  0  0  0  0  0
   12.3107   20.9840    0.6353 C   0  0  0  0  0  0  0  0  0  0  0  0
   13.6857   24.0579   -1.0510 C   0  0  0  0  0  0  0  0  0  0  0  0
   12.6035   24.5578   -1.6937 C   0  0  0  0  0  0  0  0  0  0  0  0
   12.7033   25.6825   -2.5236 C   0  0  0  0  0  0  0  0  0  0  0  0
   11.5869   26.1735   -3.1680 C   0  0  0  0  0  0  0  0  0  0  0  0
   11.7429   27.2975   -3.9836 C   0  0  0  0  0  0  0  0  0  0  0  0
   12.9941   27.8800   -4.1216 C   0  0  0  0  0  0  0  0  0  0  0  0
   13.0928   29.0237   -4.9556 N   0  0  0  0  0  0  0  0  0  0  0  0
   14.0738   27.3751   -3.4760 N   0  0  0  0  0  0  0  0  0  0  0  0
   13.9277   26.2944   -2.6909 C   0  0  0  0  0  0  0  0  0  0  0  0
   15.0208   25.7557   -2.0162 C   0  0  0  0  0  0  0  0  0  0  0  0
   14.8821   24.6809   -1.2335 N   0  0  0  0  0  0  0  0  0  0  0  0
   12.3662   29.7590   -4.8606 H   0  0  0  0  0  0  0  0  0  0  0  0
   13.8538   29.1321   -5.6351 H   0  0  0  0  0  0  0  0  0  0  0  0
   10.5784   27.7947   -4.6551 C   0  0  0  0  0  0  0  0  0  0  0  0
    9.3230   27.6079   -4.1267 C   0  0  0  0  0  0  0  0  0  0  0  0
    8.1919   28.0632   -4.7472 C   0  0  0  0  0  0  0  0  0  0  0  0
    8.2942   28.7326   -5.9412 C   0  0  0  0  0  0  0  0  0  0  0  0
    9.5340   28.9404   -6.5044 C   0  0  0  0  0  0  0  0  0  0  0  0
   10.6644   28.4660   -5.8505 C   0  0  0  0  0  0  0  0  0  0  0  0
   12.1806   19.2532    3.1345 C   0  0  0  0  0  0  0  0  0  0  0  0
   13.2663   19.4933    2.2974 O   0  0  0  0  0  0  0  0  0  0  0  0
   11.1376   20.1909    0.6364 N   0  0  0  0  0  0  0  0  0  0  0  0
   11.2564   19.1635    0.4043 H   0  0  0  0  0  0  0  0  0  0  0  0
    9.5594   20.8060    0.9875 S   0  0  0  0  0  0  0  0  0  0  0  0
    8.7221   20.7860   -0.2718 O   0  0  0  0  0  0  0  0  0  0  0  0
    8.8841   19.8741    1.9498 O   0  0  0  0  0  0  0  0  0  0  0  0
    9.5901   22.3966    1.6647 C   0  0  0  0  0  0  0  0  0  0  0  0
    8.6085   23.3150    1.3759 C   0  0  0  0  0  0  0  0  0  0  0  0
    8.6687   24.5727    1.9434 C   0  0  0  0  0  0  0  0  0  0  0  0
    9.6948   24.9173    2.7912 C   0  0  0  0  0  0  0  0  0  0  0  0
    9.7710   26.1589    3.3628 F   0  0  0  0  0  0  0  0  0  0  0  0
   10.6959   24.0050    3.0959 C   0  0  0  0  0  0  0  0  0  0  0  0
   10.6072   22.7578    2.5132 C   0  0  0  0  0  0  0  0  0  0  0  0
   11.5656   21.8414    2.7868 F   0  0  0  0  0  0  0  0  0  0  0  0
 26 27  1  0  0  0
 27  1  1  0  0  0
  1  2  2  0  0  0
  2  3  1  0  0  0
  3  4  2  0  0  0
  4  7  1  0  0  0
  7  8  2  0  0  0
  8  9  1  0  0  0
  9 10  2  0  0  0
 10 11  1  0  0  0
 11 20  1  0  0  0
 20 21  2  0  0  0
 21 22  1  0  0  0
 22 23  2  0  0  0
 23 24  1  0  0  0
 24 25  2  0  0  0
 11 12  2  0  0  0
 12 13  1  0  0  0
 12 14  1  0  0  0
 14 15  2  0  0  0
 15 16  1  0  0  0
 16 17  2  0  0  0
  4  5  1  0  0  0
  5  6  2  0  0  0
  6 28  1  0  0  0
 28 30  1  0  0  0
 30 31  2  0  0  0
 30 32  2  0  0  0
 30 33  1  0  0  0
 33 34  2  0  0  0
 34 35  1  0  0  0
 35 36  2  0  0  0
 36 37  1  0  0  0
 36 38  1  0  0  0
 38 39  2  0  0  0
 39 40  1  0  0  0
  6  1  1  0  0  0
 39 33  1  0  0  0
 17  7  1  0  0  0
 15  9  1  0  0  0
 25 20  1  0  0  0
 13 18  1  0  0  0
 13 19  1  0  0  0
 28 29  1  0  0  0
M  END
> <minimizedAffinity>
31.70012

> <CNNscore>
0.3560094237

> <CNNaffinity>
7.5397386551

> <CNN_VS>
2.6842179298

> <CNNaffinity_variance>
1.7613389492

$$$$
[H]c1nc(OC([H])([H])[H])c(N([H])S(=O)(=O)c2c([H])c([H])c(F)c([H])c2F)c([H])c1-c1nc([H])c2nc(N([H])[H])c(-c3c([H])c([H])c([H])c([H])c3[H])c([H])c2c1[H]


 40 44  0  0  0  0  0  0  0  0999 V2000
   10.0676   21.2735   -2.1334 C   0  0  0  0  0  0  0  0  0  0  0  0
    9.6535   22.0702   -3.1289 N   0  0  0  0  0  0  0  0  0  0  0  0
   10.2720   23.2507   -3.4457 C   0  0  0  0  0  0  0  0  0  0  0  0
   11.3686   23.6806   -2.7418 C   0  0  0  0  0  0  0  0  0  0  0  0
   11.8024   22.8630   -1.7117 C   0  0  0  0  0  0  0  0  0  0  0  0
   11.1640   21.6643   -1.4001 C   0  0  0  0  0  0  0  0  0  0  0  0
   12.0736   24.9339   -3.0325 C   0  0  0  0  0  0  0  0  0  0  0  0
   13.4251   25.0165   -3.0037 C   0  0  0  0  0  0  0  0  0  0  0  0
   14.0884   26.2188   -3.2832 C   0  0  0  0  0  0  0  0  0  0  0  0
   15.4660   26.2785   -3.2477 C   0  0  0  0  0  0  0  0  0  0  0  0
   16.0761   27.5026   -3.5346 C   0  0  0  0  0  0  0  0  0  0  0  0
   15.2945   28.6063   -3.8423 C   0  0  0  0  0  0  0  0  0  0  0  0
   15.9671   29.8213   -4.1332 N   0  0  0  0  0  0  0  0  0  0  0  0
   13.9421   28.5178   -3.8694 N   0  0  0  0  0  0  0  0  0  0  0  0
   13.3519   27.3424   -3.5940 C   0  0  0  0  0  0  0  0  0  0  0  0
   11.9641   27.2242   -3.6149 C   0  0  0  0  0  0  0  0  0  0  0  0
   11.3708   26.0578   -3.3421 N   0  0  0  0  0  0  0  0  0  0  0  0
   16.7916   29.7821   -4.7629 H   0  0  0  0  0  0  0  0  0  0  0  0
   15.6580   30.7169   -3.7398 H   0  0  0  0  0  0  0  0  0  0  0  0
   17.5076   27.5559   -3.4868 C   0  0  0  0  0  0  0  0  0  0  0  0
   18.2043   28.5060   -4.1953 C   0  0  0  0  0  0  0  0  0  0  0  0
   19.5704   28.5781   -4.1767 C   0  0  0  0  0  0  0  0  0  0  0  0
   20.2884   27.6777   -3.4297 C   0  0  0  0  0  0  0  0  0  0  0  0
   19.6282   26.7098   -2.7054 C   0  0  0  0  0  0  0  0  0  0  0  0
   18.2401   26.6619   -2.7443 C   0  0  0  0  0  0  0  0  0  0  0  0
    8.0392   19.8854   -2.1469 C   0  0  0  0  0  0  0  0  0  0  0  0
    9.3879   20.0727   -1.8587 O   0  0  0  0  0  0  0  0  0  0  0  0
   11.6032   20.8301   -0.3435 N   0  0  0  0  0  0  0  0  0  0  0  0
   12.1770   19.9807   -0.6136 H   0  0  0  0  0  0  0  0  0  0  0  0
   11.2535   21.1241    1.3249 S   0  0  0  0  0  0  0  0  0  0  0  0
   10.5101   19.9382    1.8977 O   0  0  0  0  0  0  0  0  0  0  0  0
   12.5476   21.2065    2.0792 O   0  0  0  0  0  0  0  0  0  0  0  0
   10.3542   22.5786    1.5800 C   0  0  0  0  0  0  0  0  0  0  0  0
   10.6982   23.7511    0.9496 C   0  0  0  0  0  0  0  0  0  0  0  0
    9.9487   24.8886    1.1776 C   0  0  0  0  0  0  0  0  0  0  0  0
    8.8657   24.8636    2.0244 C   0  0  0  0  0  0  0  0  0  0  0  0
    8.1113   25.9808    2.2623 F   0  0  0  0  0  0  0  0  0  0  0  0
    8.5014   23.6902    2.6707 C   0  0  0  0  0  0  0  0  0  0  0  0
    9.2699   22.5720    2.4221 C   0  0  0  0  0  0  0  0  0  0  0  0
    8.9450   21.4090    3.0347 F   0  0  0  0  0  0  0  0  0  0  0  0
 26 27  1  0  0  0
 27  1  1  0  0  0
  1  2  2  0  0  0
  2  3  1  0  0  0
  3  4  2  0  0  0
  4  7  1  0  0  0
  7  8  2  0  0  0
  8  9  1  0  0  0
  9 10  2  0  0  0
 10 11  1  0  0  0
 11 20  1  0  0  0
 20 21  2  0  0  0
 21 22  1  0  0  0
 22 23  2  0  0  0
 23 24  1  0  0  0
 24 25  2  0  0  0
 11 12  2  0  0  0
 12 13  1  0  0  0
 12 14  1  0  0  0
 14 15  2  0  0  0
 15 16  1  0  0  0
 16 17  2  0  0  0
  4  5  1  0  0  0
  5  6  2  0  0  0
  6 28  1  0  0  0
 28 30  1  0  0  0
 30 31  2  0  0  0
 30 32  2  0  0  0
 30 33  1  0  0  0
 33 34  2  0  0  0
 34 35  1  0  0  0
 35 36  2  0  0  0
 36 37  1  0  0  0
 36 38  1  0  0  0
 38 39  2  0  0  0
 39 40  1  0  0  0
  6  1  1  0  0  0
 39 33  1  0  0  0
 17  7  1  0  0  0
 15  9  1  0  0  0
 25 20  1  0  0  0
 13 18  1  0  0  0
 13 19  1  0  0  0
 28 29  1  0  0  0
M  END
> <minimizedAffinity>
24.91868

> <CNNscore>
0.3426772356

> <CNNaffinity>
7.0458631516

> <CNN_VS>
2.4144568443

> <CNNaffinity_variance>
0.7162505388

$$$$
[H]c1c([H])c(S(=O)(=O)C([H])([H])C([H])([H])C([H])([H])C([H])([H])C([H])([H])C([H])([H])[H])c(Cl)c(Cl)c1C(=O)C([H])([H])C([H])([H])N1C([H])([H])C1([H])C([H])([H])[H]


 25 26  0  0  0  0  0  0  0  0999 V2000
   14.1503   25.1018   -2.0322 C   0  0  0  0  0  0  0  0  0  0  0  0
   12.8084   25.3691   -1.8221 C   0  0  0  0  0  0  0  0  0  0  0  0
   12.1543   26.3196   -2.5592 C   0  0  0  0  0  0  0  0  0  0  0  0
   12.7878   27.0391   -3.5291 C   0  0  0  0  0  0  0  0  0  0  0  0
   14.1473   26.7881   -3.7575 C   0  0  0  0  0  0  0  0  0  0  0  0
   14.9753   27.7188   -5.0053 Cl  0  0  0  0  0  0  0  0  0  0  0  0
   14.7931   25.8324   -3.0066 C   0  0  0  0  0  0  0  0  0  0  0  0
   16.4909   25.5308   -3.2844 Cl  0  0  0  0  0  0  0  0  0  0  0  0
   14.9382   23.8234   -1.1344 S   0  0  0  0  0  0  0  0  0  0  0  0
   16.2957   24.3806   -0.7012 O   0  0  0  0  0  0  0  0  0  0  0  0
   15.0954   22.5954   -1.9379 O   0  0  0  0  0  0  0  0  0  0  0  0
   13.9474   23.5628    0.3189 C   0  0  0  0  0  0  0  0  0  0  0  0
   13.4113   22.1776    0.4112 C   0  0  0  0  0  0  0  0  0  0  0  0
   11.8867   22.2863    0.2466 C   0  0  0  0  0  0  0  0  0  0  0  0
   11.4314   21.3214   -0.8119 C   0  0  0  0  0  0  0  0  0  0  0  0
    9.1697   20.9871   -0.0204 C   0  0  0  0  0  0  0  0  0  0  0  0
   10.4709   20.2771   -0.3726 C   0  0  0  0  0  0  0  0  0  0  0  0
   12.0701   27.9804   -4.4304 C   0  0  0  0  0  0  0  0  0  0  0  0
   11.9503   27.7291   -5.5949 O   0  0  0  0  0  0  0  0  0  0  0  0
   11.5633   29.1828   -3.7735 C   0  0  0  0  0  0  0  0  0  0  0  0
   10.8383   30.1774   -4.5911 C   0  0  0  0  0  0  0  0  0  0  0  0
    9.5596   30.6100   -4.2682 N   0  0  0  0  0  0  0  0  0  0  0  0
    8.4577   30.0593   -3.6393 C   0  0  0  0  0  0  0  0  0  0  0  0
    8.4885   30.1348   -5.1671 C   0  0  0  0  0  0  0  0  0  0  0  0
    8.7112   28.8296   -5.8674 C   0  0  0  0  0  0  0  0  0  0  0  0
 16 17  1  0  0  0
 17 15  1  0  0  0
 15 14  1  0  0  0
 14 13  1  0  0  0
 13 12  1  0  0  0
 12  9  1  0  0  0
  9 10  2  0  0  0
  9 11  2  0  0  0
  9  1  1  0  0  0
  1  2  2  0  0  0
  2  3  1  0  0  0
  3  4  2  0  0  0
  4 18  1  0  0  0
 18 19  2  0  0  0
 18 20  1  0  0  0
 20 21  1  0  0  0
 21 22  1  0  0  0
 22 23  1  0  0  0
 23 24  1  0  0  0
 24 25  1  0  0  0
  4  5  1  0  0  0
  5  6  1  0  0  0
  5  7  2  0  0  0
  7  8  1  0  0  0
  7  1  1  0  0  0
 24 22  1  0  0  0
M  END
> <minimizedAffinity>
6.18524

> <CNNscore>
0.6140206456

> <CNNaffinity>
6.7792482376

> <CNN_VS>
4.1625986099

> <CNNaffinity_variance>
0.3991542757

$$$$
[H]c1c([H])c(S(=O)(=O)C([H])([H])C([H])([H])C([H])([H])C([H])([H])C([H])([H])C([H])([H])[H])c(Cl)c(Cl)c1C(=O)C([H])([H])C([H])([H])N1C([H])([H])C1([H])C([H])([H])[H]


 25 26  0  0  0  0  0  0  0  0999 V2000
   15.1110   26.1805   -2.9537 C   0  0  0  0  0  0  0  0  0  0  0  0
   16.1607   26.2388   -2.0531 C   0  0  0  0  0  0  0  0  0  0  0  0
   17.3476   26.8324   -2.3900 C   0  0  0  0  0  0  0  0  0  0  0  0
   17.5486   27.3925   -3.6171 C   0  0  0  0  0  0  0  0  0  0  0  0
   16.5012   27.3426   -4.5466 C   0  0  0  0  0  0  0  0  0  0  0  0
   16.7554   28.0587   -6.1376 Cl  0  0  0  0  0  0  0  0  0  0  0  0
   15.3149   26.7395   -4.1956 C   0  0  0  0  0  0  0  0  0  0  0  0
   14.0156   26.6673   -5.3607 Cl  0  0  0  0  0  0  0  0  0  0  0  0
   13.5783   25.4916   -2.4667 S   0  0  0  0  0  0  0  0  0  0  0  0
   12.5318   26.0560   -3.4297 O   0  0  0  0  0  0  0  0  0  0  0  0
   13.2448   25.8131   -1.0654 O   0  0  0  0  0  0  0  0  0  0  0  0
   13.7162   23.7414   -2.7484 C   0  0  0  0  0  0  0  0  0  0  0  0
   14.0932   22.9873   -1.5220 C   0  0  0  0  0  0  0  0  0  0  0  0
   12.7901   22.4121   -0.9439 C   0  0  0  0  0  0  0  0  0  0  0  0
   12.8764   20.9118   -0.9216 C   0  0  0  0  0  0  0  0  0  0  0  0
   13.0362   20.6892    1.4823 C   0  0  0  0  0  0  0  0  0  0  0  0
   13.7032   20.3223    0.1625 C   0  0  0  0  0  0  0  0  0  0  0  0
   18.7777   28.1572   -3.9606 C   0  0  0  0  0  0  0  0  0  0  0  0
   19.7222   27.5991   -4.4401 O   0  0  0  0  0  0  0  0  0  0  0  0
   18.7098   29.5844   -3.6565 C   0  0  0  0  0  0  0  0  0  0  0  0
   19.1032   30.5460   -4.7072 C   0  0  0  0  0  0  0  0  0  0  0  0
   20.3027   31.2429   -4.6609 N   0  0  0  0  0  0  0  0  0  0  0  0
   20.6935   32.5168   -4.2903 C   0  0  0  0  0  0  0  0  0  0  0  0
   20.5258   32.1866   -5.7748 C   0  0  0  0  0  0  0  0  0  0  0  0
   19.3126   32.7746   -6.4274 C   0  0  0  0  0  0  0  0  0  0  0  0
 16 17  1  0  0  0
 17 15  1  0  0  0
 15 14  1  0  0  0
 14 13  1  0  0  0
 13 12  1  0  0  0
 12  9  1  0  0  0
  9 10  2  0  0  0
  9 11  2  0  0  0
  9  1  1  0  0  0
  1  2  2  0  0  0
  2  3  1  0  0  0
  3  4  2  0  0  0
  4 18  1  0  0  0
 18 19  2  0  0  0
 18 20  1  0  0  0
 20 21  1  0  0  0
 21 22  1  0  0  0
 22 23  1  0  0  0
 23 24  1  0  0  0
 24 25  1  0  0  0
  4  5  1  0  0  0
  5  6  1  0  0  0
  5  7  2  0  0  0
  7  8  1  0  0  0
  7  1  1  0  0  0
 24 22  1  0  0  0
M  END
> <minimizedAffinity>
19.95379

> <CNNscore>
0.2880559862

> <CNNaffinity>
6.2800183296

> <CNN_VS>
1.8089969158

> <CNNaffinity_variance>
0.1902796924

$$$$
[H]c1c([H])c(S(=O)(=O)C([H])([H])C([H])([H])C([H])([H])C([H])([H])C([H])([H])C([H])([H])[H])c(Cl)c(Cl)c1C(=O)C([H])([H])C([H])([H])N1C([H])([H])C1([H])C([H])([H])[H]


 25 26  0  0  0  0  0  0  0  0999 V2000
   15.2468   26.0572   -3.1364 C   0  0  0  0  0  0  0  0  0  0  0  0
   16.1676   26.2478   -2.1204 C   0  0  0  0  0  0  0  0  0  0  0  0
   17.3492   26.8995   -2.3520 C   0  0  0  0  0  0  0  0  0  0  0  0
   17.6703   27.3905   -3.5831 C   0  0  0  0  0  0  0  0  0  0  0  0
   16.7549   27.2066   -4.6279 C   0  0  0  0  0  0  0  0  0  0  0  0
   17.1655   27.8326   -6.2243 Cl  0  0  0  0  0  0  0  0  0  0  0  0
   15.5726   26.5463   -4.3817 C   0  0  0  0  0  0  0  0  0  0  0  0
   14.4393   26.3071   -5.6890 Cl  0  0  0  0  0  0  0  0  0  0  0  0
   13.7095   25.2963   -2.7917 S   0  0  0  0  0  0  0  0  0  0  0  0
   13.7684   24.8602   -1.3263 O   0  0  0  0  0  0  0  0  0  0  0  0
   13.4456   24.1487   -3.6814 O   0  0  0  0  0  0  0  0  0  0  0  0
   12.4837   26.5747   -2.9494 C   0  0  0  0  0  0  0  0  0  0  0  0
   12.8746   27.6325   -3.9206 C   0  0  0  0  0  0  0  0  0  0  0  0
   11.5689   28.2701   -4.4224 C   0  0  0  0  0  0  0  0  0  0  0  0
   11.3730   29.5982   -3.7468 C   0  0  0  0  0  0  0  0  0  0  0  0
    9.1794   30.5308   -4.1617 C   0  0  0  0  0  0  0  0  0  0  0  0
   10.6531   30.6309   -4.5352 C   0  0  0  0  0  0  0  0  0  0  0  0
   18.8841   28.2150   -3.8287 C   0  0  0  0  0  0  0  0  0  0  0  0
   19.9301   27.6901   -4.0814 O   0  0  0  0  0  0  0  0  0  0  0  0
   18.6703   29.6564   -3.7245 C   0  0  0  0  0  0  0  0  0  0  0  0
   19.1801   30.5222   -4.8078 C   0  0  0  0  0  0  0  0  0  0  0  0
   20.3347   31.2798   -4.6683 N   0  0  0  0  0  0  0  0  0  0  0  0
   20.6322   32.5611   -4.2407 C   0  0  0  0  0  0  0  0  0  0  0  0
   20.5739   32.2663   -5.7409 C   0  0  0  0  0  0  0  0  0  0  0  0
   19.3726   32.8085   -6.4528 C   0  0  0  0  0  0  0  0  0  0  0  0
 16 17  1  0  0  0
 17 15  1  0  0  0
 15 14  1  0  0  0
 14 13  1  0  0  0
 13 12  1  0  0  0
 12  9  1  0  0  0
  9 10  2  0  0  0
  9 11  2  0  0  0
  9  1  1  0  0  0
  1  2  2  0  0  0
  2  3  1  0  0  0
  3  4  2  0  0  0
  4 18  1  0  0  0
 18 19  2  0  0  0
 18 20  1  0  0  0
 20 21  1  0  0  0
 21 22  1  0  0  0
 22 23  1  0  0  0
 23 24  1  0  0  0
 24 25  1  0  0  0
  4  5  1  0  0  0
  5  6  1  0  0  0
  5  7  2  0  0  0
  7  8  1  0  0  0
  7  1  1  0  0  0
 24 22  1  0  0  0
M  END
> <minimizedAffinity>
28.24946

> <CNNscore>
0.2254458666

> <CNNaffinity>
5.6691436768

> <CNN_VS>
1.2780849934

> <CNNaffinity_variance>
0.2446608990

$$$$
[H]c1c([H])c(S(=O)(=O)C([H])([H])C([H])([H])C([H])([H])C([H])([H])C([H])([H])C([H])([H])[H])c(Cl)c(Cl)c1C(=O)C([H])([H])C([H])([H])N1C([H])([H])C1([H])C([H])([H])[H]


 25 26  0  0  0  0  0  0  0  0999 V2000
   12.9200   23.5085   -0.5812 C   0  0  0  0  0  0  0  0  0  0  0  0
   11.8122   24.3228   -0.7429 C   0  0  0  0  0  0  0  0  0  0  0  0
   10.7619   24.2677    0.1337 C   0  0  0  0  0  0  0  0  0  0  0  0
   10.7593   23.4179    1.2002 C   0  0  0  0  0  0  0  0  0  0  0  0
   11.8687   22.5816    1.3824 C   0  0  0  0  0  0  0  0  0  0  0  0
   11.8701   21.4751    2.7553 Cl  0  0  0  0  0  0  0  0  0  0  0  0
   12.9158   22.6449    0.4914 C   0  0  0  0  0  0  0  0  0  0  0  0
   14.2915   21.5920    0.7135 Cl  0  0  0  0  0  0  0  0  0  0  0  0
   14.2831   23.6607   -1.6674 S   0  0  0  0  0  0  0  0  0  0  0  0
   14.4032   22.3185   -2.3918 O   0  0  0  0  0  0  0  0  0  0  0  0
   15.5294   23.9960   -0.9515 O   0  0  0  0  0  0  0  0  0  0  0  0
   13.8265   24.9024   -2.8555 C   0  0  0  0  0  0  0  0  0  0  0  0
   14.9296   25.2322   -3.7986 C   0  0  0  0  0  0  0  0  0  0  0  0
   14.4766   26.4726   -4.5855 C   0  0  0  0  0  0  0  0  0  0  0  0
   15.6616   27.0773   -5.2847 C   0  0  0  0  0  0  0  0  0  0  0  0
   15.6688   25.7963   -7.3371 C   0  0  0  0  0  0  0  0  0  0  0  0
   15.5540   27.2020   -6.7609 C   0  0  0  0  0  0  0  0  0  0  0  0
    9.6932   23.4328    2.2379 C   0  0  0  0  0  0  0  0  0  0  0  0
    9.8899   23.9520    3.2987 O   0  0  0  0  0  0  0  0  0  0  0  0
    8.4515   22.7726    1.8425 C   0  0  0  0  0  0  0  0  0  0  0  0
    8.5304   21.4128    1.2699 C   0  0  0  0  0  0  0  0  0  0  0  0
    8.1733   21.1411   -0.0436 N   0  0  0  0  0  0  0  0  0  0  0  0
    7.9036   20.0023   -0.7806 C   0  0  0  0  0  0  0  0  0  0  0  0
    9.2729   20.6724   -0.9109 C   0  0  0  0  0  0  0  0  0  0  0  0
   10.4049   19.9475   -0.2498 C   0  0  0  0  0  0  0  0  0  0  0  0
 16 17  1  0  0  0
 17 15  1  0  0  0
 15 14  1  0  0  0
 14 13  1  0  0  0
 13 12  1  0  0  0
 12  9  1  0  0  0
  9 10  2  0  0  0
  9 11  2  0  0  0
  9  1  1  0  0  0
  1  2  2  0  0  0
  2  3  1  0  0  0
  3  4  2  0  0  0
  4 18  1  0  0  0
 18 19  2  0  0  0
 18 20  1  0  0  0
 20 21  1  0  0  0
 21 22  1  0  0  0
 22 23  1  0  0  0
 23 24  1  0  0  0
 24 25  1  0  0  0
  4  5  1  0  0  0
  5  6  1  0  0  0
  5  7  2  0  0  0
  7  8  1  0  0  0
  7  1  1  0  0  0
 24 22  1  0  0  0
M  END
> <minimizedAffinity>
-6.95078

> <CNNscore>
0.2236818224

> <CNNaffinity>
6.8767051697

> <CNN_VS>
1.5381939411

> <CNNaffinity_variance>
0.1303404272

$$$$
[H]c1c([H])c(S(=O)(=O)C([H])([H])C([H])([H])C([H])([H])C([H])([H])C([H])([H])C([H])([H])[H])c(Cl)c(Cl)c1C(=O)C([H])([H])C([H])([H])N1C([H])([H])C1([H])C([H])([H])[H]


 25 26  0  0  0  0  0  0  0  0999 V2000
   13.9776   23.8931   -2.3391 C   0  0  0  0  0  0  0  0  0  0  0  0
   13.2157   24.9636   -1.9033 C   0  0  0  0  0  0  0  0  0  0  0  0
   12.3415   24.8286   -0.8583 C   0  0  0  0  0  0  0  0  0  0  0  0
   12.1841   23.6442   -0.2009 C   0  0  0  0  0  0  0  0  0  0  0  0
   12.9425   22.5456   -0.6264 C   0  0  0  0  0  0  0  0  0  0  0  0
   12.7400   21.0089    0.2141 Cl  0  0  0  0  0  0  0  0  0  0  0  0
   13.8147   22.6947   -1.6806 C   0  0  0  0  0  0  0  0  0  0  0  0
   14.7492   21.3201   -2.2174 Cl  0  0  0  0  0  0  0  0  0  0  0  0
   15.1475   24.1166   -3.6206 S   0  0  0  0  0  0  0  0  0  0  0  0
   15.2806   22.7613   -4.3179 O   0  0  0  0  0  0  0  0  0  0  0  0
   16.4499   24.5853   -3.1086 O   0  0  0  0  0  0  0  0  0  0  0  0
   14.4118   25.2660   -4.7606 C   0  0  0  0  0  0  0  0  0  0  0  0
   14.9958   25.1779   -6.1266 C   0  0  0  0  0  0  0  0  0  0  0  0
   16.1225   26.2219   -6.1891 C   0  0  0  0  0  0  0  0  0  0  0  0
   15.8703   27.2870   -5.1593 C   0  0  0  0  0  0  0  0  0  0  0  0
   15.3941   29.6115   -4.6863 C   0  0  0  0  0  0  0  0  0  0  0  0
   16.2224   28.6744   -5.5564 C   0  0  0  0  0  0  0  0  0  0  0  0
   11.3416   23.5065    1.0177 C   0  0  0  0  0  0  0  0  0  0  0  0
   10.5709   24.3713    1.3202 O   0  0  0  0  0  0  0  0  0  0  0  0
   11.5543   22.2703    1.7664 C   0  0  0  0  0  0  0  0  0  0  0  0
   10.3710   21.5334    2.2564 C   0  0  0  0  0  0  0  0  0  0  0  0
    9.6675   21.9300    3.3853 N   0  0  0  0  0  0  0  0  0  0  0  0
    9.9792   22.5671    4.5727 C   0  0  0  0  0  0  0  0  0  0  0  0
    9.8119   21.0463    4.5597 C   0  0  0  0  0  0  0  0  0  0  0  0
   11.0830   20.2622    4.6744 C   0  0  0  0  0  0  0  0  0  0  0  0
 16 17  1  0  0  0
 17 15  1  0  0  0
 15 14  1  0  0  0
 14 13  1  0  0  0
 13 12  1  0  0  0
 12  9  1  0  0  0
  9 10  2  0  0  0
  9 11  2  0  0  0
  9  1  1  0  0  0
  1  2  2  0  0  0
  2  3  1  0  0  0
  3  4  2  0  0  0
  4 18  1  0  0  0
 18 19  2  0  0  0
 18 20  1  0  0  0
 20 21  1  0  0  0
 21 22  1  0  0  0
 22 23  1  0  0  0
 23 24  1  0  0  0
 24 25  1  0  0  0
  4  5  1  0  0  0
  5  6  1  0  0  0
  5  7  2  0  0  0
  7  8  1  0  0  0
  7  1  1  0  0  0
 24 22  1  0  0  0
M  END
> <minimizedAffinity>
-3.19933

> <CNNscore>
0.2096359134

> <CNNaffinity>
6.3973760605

> <CNN_VS>
1.3411197662

> <CNNaffinity_variance>
0.0733142346

$$$$
[H]c1c([H])c(S(=O)(=O)C([H])([H])C([H])([H])C([H])([H])C([H])([H])C([H])([H])C([H])([H])[H])c(Cl)c(Cl)c1C(=O)C([H])([H])C([H])([H])N1C([H])([H])C1([H])C([H])([H])[H]


 25 26  0  0  0  0  0  0  0  0999 V2000
   15.2202   24.0324   -1.7471 C   0  0  0  0  0  0  0  0  0  0  0  0
   15.1326   24.3496   -0.4024 C   0  0  0  0  0  0  0  0  0  0  0  0
   14.5557   23.4864    0.4901 C   0  0  0  0  0  0  0  0  0  0  0  0
   14.0479   22.2823    0.1003 C   0  0  0  0  0  0  0  0  0  0  0  0
   14.1224   21.9409   -1.2566 C   0  0  0  0  0  0  0  0  0  0  0  0
   13.4621   20.3886   -1.7697 Cl  0  0  0  0  0  0  0  0  0  0  0  0
   14.7016   22.8198   -2.1433 C   0  0  0  0  0  0  0  0  0  0  0  0
   14.7814   22.3973   -3.8362 Cl  0  0  0  0  0  0  0  0  0  0  0  0
   16.0381   25.1169   -2.8498 S   0  0  0  0  0  0  0  0  0  0  0  0
   16.9816   24.2468   -3.6826 O   0  0  0  0  0  0  0  0  0  0  0  0
   16.7767   26.1789   -2.1392 O   0  0  0  0  0  0  0  0  0  0  0  0
   14.7779   25.7667   -3.9228 C   0  0  0  0  0  0  0  0  0  0  0  0
   13.7599   26.5727   -3.1957 C   0  0  0  0  0  0  0  0  0  0  0  0
   12.6546   25.5954   -2.7638 C   0  0  0  0  0  0  0  0  0  0  0  0
   12.2836   25.8661   -1.3328 C   0  0  0  0  0  0  0  0  0  0  0  0
   10.9691   23.8693   -1.7048 C   0  0  0  0  0  0  0  0  0  0  0  0
   11.5536   24.7791   -0.6316 C   0  0  0  0  0  0  0  0  0  0  0  0
   13.5373   21.2736    1.0675 C   0  0  0  0  0  0  0  0  0  0  0  0
   14.2872   20.4922    1.5778 O   0  0  0  0  0  0  0  0  0  0  0  0
   12.0972   21.3349    1.3054 C   0  0  0  0  0  0  0  0  0  0  0  0
   11.6077   22.1283    2.4517 C   0  0  0  0  0  0  0  0  0  0  0  0
   10.3897   21.8689    3.0649 N   0  0  0  0  0  0  0  0  0  0  0  0
    9.0655   21.8478    2.6661 C   0  0  0  0  0  0  0  0  0  0  0  0
    9.5999   23.0633    3.4263 C   0  0  0  0  0  0  0  0  0  0  0  0
    9.8044   24.2953    2.5992 C   0  0  0  0  0  0  0  0  0  0  0  0
 16 17  1  0  0  0
 17 15  1  0  0  0
 15 14  1  0  0  0
 14 13  1  0  0  0
 13 12  1  0  0  0
 12  9  1  0  0  0
  9 10  2  0  0  0
  9 11  2  0  0  0
  9  1  1  0  0  0
  1  2  2  0  0  0
  2  3  1  0  0  0
  3  4  2  0  0  0
  4 18  1  0  0  0
 18 19  2  0  0  0
 18 20  1  0  0  0
 20 21  1  0  0  0
 21 22  1  0  0  0
 22 23  1  0  0  0
 23 24  1  0  0  0
 24 25  1  0  0  0
  4  5  1  0  0  0
  5  6  1  0  0  0
  5  7  2  0  0  0
  7  8  1  0  0  0
  7  1  1  0  0  0
 24 22  1  0  0  0
M  END
> <minimizedAffinity>
-5.18674

> <CNNscore>
0.2053993046

> <CNNaffinity>
6.8481597900

> <CNN_VS>
1.4066072702

> <CNNaffinity_variance>
0.0915639922

$$$$
[H]c1c([H])c(S(=O)(=O)C([H])([H])C([H])([H])C([H])([H])C([H])([H])C([H])([H])C([H])([H])[H])c(Cl)c(Cl)c1C(=O)C([H])([H])C([H])([H])N1C([H])([H])C1([H])C([H])([H])[H]


 25 26  0  0  0  0  0  0  0  0999 V2000
   10.1247   22.1786    1.3708 C   0  0  0  0  0  0  0  0  0  0  0  0
   10.6733   20.9759    0.9597 C   0  0  0  0  0  0  0  0  0  0  0  0
   11.9494   20.9139    0.4675 C   0  0  0  0  0  0  0  0  0  0  0  0
   12.7346   22.0240    0.3632 C   0  0  0  0  0  0  0  0  0  0  0  0
   12.1995   23.2533    0.7702 C   0  0  0  0  0  0  0  0  0  0  0  0
   13.2060   24.6944    0.6324 Cl  0  0  0  0  0  0  0  0  0  0  0  0
   10.9140   23.3015    1.2596 C   0  0  0  0  0  0  0  0  0  0  0  0
   10.2450   24.8373    1.7540 Cl  0  0  0  0  0  0  0  0  0  0  0  0
    8.5232   22.2141    2.0741 S   0  0  0  0  0  0  0  0  0  0  0  0
    7.9872   20.7837    1.9870 O   0  0  0  0  0  0  0  0  0  0  0  0
    7.6318   23.1630    1.3789 O   0  0  0  0  0  0  0  0  0  0  0  0
    8.7501   22.6264    3.7889 C   0  0  0  0  0  0  0  0  0  0  0  0
    7.9181   23.7826    4.2195 C   0  0  0  0  0  0  0  0  0  0  0  0
    8.7593   24.5734    5.2345 C   0  0  0  0  0  0  0  0  0  0  0  0
    8.7256   26.0330    4.8774 C   0  0  0  0  0  0  0  0  0  0  0  0
    7.6184   27.6142    3.4189 C   0  0  0  0  0  0  0  0  0  0  0  0
    7.3941   26.5864    4.5210 C   0  0  0  0  0  0  0  0  0  0  0  0
   14.1646   21.9624   -0.0428 C   0  0  0  0  0  0  0  0  0  0  0  0
   15.0269   21.9196    0.7867 O   0  0  0  0  0  0  0  0  0  0  0  0
   14.3867   21.9680   -1.4867 C   0  0  0  0  0  0  0  0  0  0  0  0
   14.2420   23.2456   -2.2147 C   0  0  0  0  0  0  0  0  0  0  0  0
   15.2290   23.7306   -3.0616 N   0  0  0  0  0  0  0  0  0  0  0  0
   16.0917   24.8116   -3.0594 C   0  0  0  0  0  0  0  0  0  0  0  0
   14.8242   24.8661   -3.9147 C   0  0  0  0  0  0  0  0  0  0  0  0
   13.7406   25.7604   -3.3955 C   0  0  0  0  0  0  0  0  0  0  0  0
 16 17  1  0  0  0
 17 15  1  0  0  0
 15 14  1  0  0  0
 14 13  1  0  0  0
 13 12  1  0  0  0
 12  9  1  0  0  0
  9 10  2  0  0  0
  9 11  2  0  0  0
  9  1  1  0  0  0
  1  2  2  0  0  0
  2  3  1  0  0  0
  3  4  2  0  0  0
  4 18  1  0  0  0
 18 19  2  0  0  0
 18 20  1  0  0  0
 20 21  1  0  0  0
 21 22  1  0  0  0
 22 23  1  0  0  0
 23 24  1  0  0  0
 24 25  1  0  0  0
  4  5  1  0  0  0
  5  6  1  0  0  0
  5  7  2  0  0  0
  7  8  1  0  0  0
  7  1  1  0  0  0
 24 22  1  0  0  0
M  END
> <minimizedAffinity>
-6.47601

> <CNNscore>
0.2005926669

> <CNNaffinity>
6.6258859634

> <CNN_VS>
1.3291041851

> <CNNaffinity_variance>
0.2490695268

$$$$
[H]c1c([H])c(S(=O)(=O)C([H])([H])C([H])([H])C([H])([H])C([H])([H])C([H])([H])C([H])([H])[H])c(Cl)c(Cl)c1C(=O)C([H])([H])C([H])([H])N1C([H])([H])C1([H])C([H])([H])[H]


 25 26  0  0  0  0  0  0  0  0999 V2000
   11.9137   23.4731   -0.0273 C   0  0  0  0  0  0  0  0  0  0  0  0
   11.7064   22.6037   -1.0845 C   0  0  0  0  0  0  0  0  0  0  0  0
   12.6518   22.4429   -2.0617 C   0  0  0  0  0  0  0  0  0  0  0  0
   13.8336   23.1231   -2.0378 C   0  0  0  0  0  0  0  0  0  0  0  0
   14.0643   24.0112   -0.9789 C   0  0  0  0  0  0  0  0  0  0  0  0
   15.5871   24.8995   -0.9443 Cl  0  0  0  0  0  0  0  0  0  0  0  0
   13.1036   24.1658   -0.0055 C   0  0  0  0  0  0  0  0  0  0  0  0
   13.3885   25.2834    1.3062 Cl  0  0  0  0  0  0  0  0  0  0  0  0
   10.7251   23.5947    1.2507 S   0  0  0  0  0  0  0  0  0  0  0  0
   10.6200   25.0817    1.5954 O   0  0  0  0  0  0  0  0  0  0  0  0
   11.0981   22.7960    2.4344 O   0  0  0  0  0  0  0  0  0  0  0  0
    9.1827   23.0723    0.5367 C   0  0  0  0  0  0  0  0  0  0  0  0
    8.7440   21.7365    1.0244 C   0  0  0  0  0  0  0  0  0  0  0  0
    8.8394   20.7796   -0.1749 C   0  0  0  0  0  0  0  0  0  0  0  0
    7.4605   20.3140   -0.5497 C   0  0  0  0  0  0  0  0  0  0  0  0
    5.2945   21.3864   -0.6614 C   0  0  0  0  0  0  0  0  0  0  0  0
    6.3478   20.8297    0.2884 C   0  0  0  0  0  0  0  0  0  0  0  0
   14.9281   22.8681   -3.0127 C   0  0  0  0  0  0  0  0  0  0  0  0
   15.6903   21.9607   -2.8417 O   0  0  0  0  0  0  0  0  0  0  0  0
   14.9713   23.8020   -4.1352 C   0  0  0  0  0  0  0  0  0  0  0  0
   15.6131   25.1170   -3.9306 C   0  0  0  0  0  0  0  0  0  0  0  0
   15.2399   26.2428   -4.6517 N   0  0  0  0  0  0  0  0  0  0  0  0
   15.8299   27.0428   -5.6133 C   0  0  0  0  0  0  0  0  0  0  0  0
   15.7970   27.5189   -4.1596 C   0  0  0  0  0  0  0  0  0  0  0  0
   17.1083   27.4604   -3.4379 C   0  0  0  0  0  0  0  0  0  0  0  0
 16 17  1  0  0  0
 17 15  1  0  0  0
 15 14  1  0  0  0
 14 13  1  0  0  0
 13 12  1  0  0  0
 12  9  1  0  0  0
  9 10  2  0  0  0
  9 11  2  0  0  0
  9  1  1  0  0  0
  1  2  2  0  0  0
  2  3  1  0  0  0
  3  4  2  0  0  0
  4 18  1  0  0  0
 18 19  2  0  0  0
 18 20  1  0  0  0
 20 21  1  0  0  0
 21 22  1  0  0  0
 22 23  1  0  0  0
 23 24  1  0  0  0
 24 25  1  0  0  0
  4  5  1  0  0  0
  5  6  1  0  0  0
  5  7  2  0  0  0
  7  8  1  0  0  0
  7  1  1  0  0  0
 24 22  1  0  0  0
M  END
> <minimizedAffinity>
-3.93219

> <CNNscore>
0.1986427456

> <CNNaffinity>
6.8308258057

> <CNN_VS>
1.3568940163

> <CNNaffinity_variance>
0.3207986653

$$$$
[H]c1c([H])c(S(=O)(=O)C([H])([H])C([H])([H])C([H])([H])C([H])([H])C([H])([H])C([H])([H])[H])c(Cl)c(Cl)c1C(=O)C([H])([H])C([H])([H])N1C([H])([H])C1([H])C([H])([H])[H]


 25 26  0  0  0  0  0  0  0  0999 V2000
   13.6714   24.0813   -2.2440 C   0  0  0  0  0  0  0  0  0  0  0  0
   12.7837   25.1424   -2.1958 C   0  0  0  0  0  0  0  0  0  0  0  0
   11.7518   25.1590   -1.2960 C   0  0  0  0  0  0  0  0  0  0  0  0
   11.5539   24.1412   -0.4101 C   0  0  0  0  0  0  0  0  0  0  0  0
   12.4381   23.0548   -0.4424 C   0  0  0  0  0  0  0  0  0  0  0  0
   12.1852   21.7317    0.6953 Cl  0  0  0  0  0  0  0  0  0  0  0  0
   13.4688   23.0497   -1.3546 C   0  0  0  0  0  0  0  0  0  0  0  0
   14.5616   21.6880   -1.4014 Cl  0  0  0  0  0  0  0  0  0  0  0  0
   15.0295   24.1269   -3.3460 S   0  0  0  0  0  0  0  0  0  0  0  0
   15.0826   22.7517   -4.0145 O   0  0  0  0  0  0  0  0  0  0  0  0
   16.2963   24.4350   -2.6544 O   0  0  0  0  0  0  0  0  0  0  0  0
   14.6175   25.3375   -4.5815 C   0  0  0  0  0  0  0  0  0  0  0  0
   14.3770   26.6893   -4.0074 C   0  0  0  0  0  0  0  0  0  0  0  0
   15.1176   27.6873   -4.9122 C   0  0  0  0  0  0  0  0  0  0  0  0
   16.5986   27.4610   -4.7933 C   0  0  0  0  0  0  0  0  0  0  0  0
   18.7168   28.2394   -3.9209 C   0  0  0  0  0  0  0  0  0  0  0  0
   17.2482   28.0194   -3.5799 C   0  0  0  0  0  0  0  0  0  0  0  0
   10.5235   24.1968    0.6617 C   0  0  0  0  0  0  0  0  0  0  0  0
   10.7424   24.7870    1.6802 O   0  0  0  0  0  0  0  0  0  0  0  0
    9.2867   23.4834    0.3527 C   0  0  0  0  0  0  0  0  0  0  0  0
    8.1525   23.6044    1.2919 C   0  0  0  0  0  0  0  0  0  0  0  0
    8.1210   22.9301    2.5048 N   0  0  0  0  0  0  0  0  0  0  0  0
    8.5798   21.7120    2.9722 C   0  0  0  0  0  0  0  0  0  0  0  0
    7.1020   21.8662    2.6073 C   0  0  0  0  0  0  0  0  0  0  0  0
    6.6839   21.1938    1.3358 C   0  0  0  0  0  0  0  0  0  0  0  0
 16 17  1  0  0  0
 17 15  1  0  0  0
 15 14  1  0  0  0
 14 13  1  0  0  0
 13 12  1  0  0  0
 12  9  1  0  0  0
  9 10  2  0  0  0
  9 11  2  0  0  0
  9  1  1  0  0  0
  1  2  2  0  0  0
  2  3  1  0  0  0
  3  4  2  0  0  0
  4 18  1  0  0  0
 18 19  2  0  0  0
 18 20  1  0  0  0
 20 21  1  0  0  0
 21 22  1  0  0  0
 22 23  1  0  0  0
 23 24  1  0  0  0
 24 25  1  0  0  0
  4  5  1  0  0  0
  5  6  1  0  0  0
  5  7  2  0  0  0
  7  8  1  0  0  0
  7  1  1  0  0  0
 24 22  1  0  0  0
M  END
> <minimizedAffinity>
-6.65666

> <CNNscore>
0.1949607879

> <CNNaffinity>
6.4452452660

> <CNN_VS>
1.2565701008

> <CNNaffinity_variance>
0.1718433797

$$$$
[H]OC([H])([H])C([H])([H])N1C([H])([H])C([H])([H])N(c2c(Cl)c([H])c3nc(SC(C([H])([H])[H])(C([H])([H])[H])C([H])([H])[H])n([H])c3c2[H])[C@]([H])(C([H])([H])[H])C1([H])[H]


 27 29  0  0  0  0  0  0  0  0999 V2000
   13.2288   24.3819   -1.5372 C   0  0  0  0  0  0  0  0  0  0  0  0
   14.3122   24.4333   -2.4314 C   0  0  0  0  0  0  0  0  0  0  0  0
   14.3729   25.3387   -3.4630 C   0  0  0  0  0  0  0  0  0  0  0  0
   15.3052   25.5467   -4.4108 N   0  0  0  0  0  0  0  0  0  0  0  0
   14.8518   26.5635   -5.1652 C   0  0  0  0  0  0  0  0  0  0  0  0
   13.6636   26.9810   -4.6993 N   0  0  0  0  0  0  0  0  0  0  0  0
   13.3191   26.2460   -3.6336 C   0  0  0  0  0  0  0  0  0  0  0  0
   12.2484   26.2090   -2.7649 C   0  0  0  0  0  0  0  0  0  0  0  0
   12.2026   25.2847   -1.7253 C   0  0  0  0  0  0  0  0  0  0  0  0
   10.7834   25.3079   -0.6952 Cl  0  0  0  0  0  0  0  0  0  0  0  0
   16.1918   25.0010   -4.5039 H   0  0  0  0  0  0  0  0  0  0  0  0
   15.2319   24.2192    0.8258 C   0  0  0  0  0  0  0  0  0  0  0  0
   13.9481   23.5134    0.7537 C   0  0  0  0  0  0  0  0  0  0  0  0
   14.2627   22.0637    1.1454 C   0  0  0  0  0  0  0  0  0  0  0  0
   13.0744   21.4881    1.7008 N   0  0  0  0  0  0  0  0  0  0  0  0
   11.9876   21.8087    0.8542 C   0  0  0  0  0  0  0  0  0  0  0  0
   12.4597   22.2470   -0.5573 C   0  0  0  0  0  0  0  0  0  0  0  0
   13.2543   23.4538   -0.4898 N   0  0  0  0  0  0  0  0  0  0  0  0
   13.3215   20.1093    1.9616 C   0  0  0  0  0  0  0  0  0  0  0  0
   14.3184   19.4368    1.0829 C   0  0  0  0  0  0  0  0  0  0  0  0
   15.4740   20.2429    1.0575 O   0  0  0  0  0  0  0  0  0  0  0  0
   15.4492   20.9499    1.7391 H   0  0  0  0  0  0  0  0  0  0  0  0
   15.7285   27.2293   -6.5673 S   0  0  0  0  0  0  0  0  0  0  0  0
   15.9436   25.8703   -7.7626 C   0  0  0  0  0  0  0  0  0  0  0  0
   16.1111   24.5960   -6.9744 C   0  0  0  0  0  0  0  0  0  0  0  0
   14.6713   25.7344   -8.5762 C   0  0  0  0  0  0  0  0  0  0  0  0
   17.1272   26.1992   -8.6203 C   0  0  0  0  0  0  0  0  0  0  0  0
 12 13  1  0  0  0
 13 14  1  0  0  0
 14 15  1  0  0  0
 15 19  1  0  0  0
 19 20  1  0  0  0
 20 21  1  0  0  0
 15 16  1  0  0  0
 16 17  1  0  0  0
 17 18  1  0  0  0
 18  1  1  0  0  0
  1  2  2  0  0  0
  2  3  1  0  0  0
  3  4  1  0  0  0
  4  5  1  0  0  0
  5 23  1  0  0  0
 23 24  1  0  0  0
 24 25  1  0  0  0
 24 26  1  0  0  0
 24 27  1  0  0  0
  5  6  2  0  0  0
  6  7  1  0  0  0
  7  8  1  0  0  0
  8  9  2  0  0  0
  9 10  1  0  0  0
 18 13  1  0  0  0
  9  1  1  0  0  0
  7  3  2  0  0  0
 21 22  1  0  0  0
  4 11  1  0  0  0
M  END
> <minimizedAffinity>
3.13574

> <CNNscore>
0.5630048513

> <CNNaffinity>
7.3972434998

> <CNN_VS>
4.1646838188

> <CNNaffinity_variance>
1.1382147074

$$$$
[H]OC([H])([H])C([H])([H])N1C([H])([H])C([H])([H])N(c2c(Cl)c([H])c3nc(SC(C([H])([H])[H])(C([H])([H])[H])C([H])([H])[H])n([H])c3c2[H])[C@]([H])(C([H])([H])[H])C1([H])[H]


 27 29  0  0  0  0  0  0  0  0999 V2000
   14.7630   24.0655   -4.1324 C   0  0  0  0  0  0  0  0  0  0  0  0
   14.8645   25.4642   -4.2285 C   0  0  0  0  0  0  0  0  0  0  0  0
   15.3496   26.0917   -5.3505 C   0  0  0  0  0  0  0  0  0  0  0  0
   15.5241   27.3951   -5.6358 N   0  0  0  0  0  0  0  0  0  0  0  0
   16.0327   27.4412   -6.8798 C   0  0  0  0  0  0  0  0  0  0  0  0
   16.1728   26.1952   -7.3605 N   0  0  0  0  0  0  0  0  0  0  0  0
   15.7589   25.3132   -6.4410 C   0  0  0  0  0  0  0  0  0  0  0  0
   15.6659   23.9393   -6.3630 C   0  0  0  0  0  0  0  0  0  0  0  0
   15.1726   23.3197   -5.2185 C   0  0  0  0  0  0  0  0  0  0  0  0
   15.1212   21.5666   -5.2159 Cl  0  0  0  0  0  0  0  0  0  0  0  0
   15.2953   28.1824   -4.9875 H   0  0  0  0  0  0  0  0  0  0  0  0
   12.4781   25.1688   -2.3480 C   0  0  0  0  0  0  0  0  0  0  0  0
   13.0054   23.8009   -2.2993 C   0  0  0  0  0  0  0  0  0  0  0  0
   13.2451   23.5142   -0.8111 C   0  0  0  0  0  0  0  0  0  0  0  0
   13.1439   22.0993   -0.6117 N   0  0  0  0  0  0  0  0  0  0  0  0
   13.8942   21.4534   -1.6219 C   0  0  0  0  0  0  0  0  0  0  0  0
   14.9070   22.4146   -2.2985 C   0  0  0  0  0  0  0  0  0  0  0  0
   14.2266   23.5003   -2.9697 N   0  0  0  0  0  0  0  0  0  0  0  0
   13.4780   21.8106    0.7430 C   0  0  0  0  0  0  0  0  0  0  0  0
   12.5259   22.2992    1.7790 C   0  0  0  0  0  0  0  0  0  0  0  0
   11.4560   22.9266    1.1101 O   0  0  0  0  0  0  0  0  0  0  0  0
   11.4698   22.7544    0.1432 H   0  0  0  0  0  0  0  0  0  0  0  0
   16.4461   28.9527   -7.7297 S   0  0  0  0  0  0  0  0  0  0  0  0
   16.1175   30.3257   -6.5770 C   0  0  0  0  0  0  0  0  0  0  0  0
   15.9420   29.7312   -5.2026 C   0  0  0  0  0  0  0  0  0  0  0  0
   17.3400   31.2215   -6.5291 C   0  0  0  0  0  0  0  0  0  0  0  0
   14.9048   31.0550   -7.0690 C   0  0  0  0  0  0  0  0  0  0  0  0
 12 13  1  0  0  0
 13 14  1  0  0  0
 14 15  1  0  0  0
 15 19  1  0  0  0
 19 20  1  0  0  0
 20 21  1  0  0  0
 15 16  1  0  0  0
 16 17  1  0  0  0
 17 18  1  0  0  0
 18  1  1  0  0  0
  1  2  2  0  0  0
  2  3  1  0  0  0
  3  4  1  0  0  0
  4  5  1  0  0  0
  5 23  1  0  0  0
 23 24  1  0  0  0
 24 25  1  0  0  0
 24 26  1  0  0  0
 24 27  1  0  0  0
  5  6  2  0  0  0
  6  7  1  0  0  0
  7  8  1  0  0  0
  8  9  2  0  0  0
  9 10  1  0  0  0
 18 13  1  0  0  0
  9  1  1  0  0  0
  7  3  2  0  0  0
 21 22  1  0  0  0
  4 11  1  0  0  0
M  END
> <minimizedAffinity>
19.33762

> <CNNscore>
0.5011515021

> <CNNaffinity>
6.6685228348

> <CNN_VS>
3.3419401646

> <CNNaffinity_variance>
0.7327710986

$$$$
[H]OC([H])([H])C([H])([H])N1C([H])([H])C([H])([H])N(c2c(Cl)c([H])c3nc(SC(C([H])([H])[H])(C([H])([H])[H])C([H])([H])[H])n([H])c3c2[H])[C@]([H])(C([H])([H])[H])C1([H])[H]


 27 29  0  0  0  0  0  0  0  0999 V2000
   11.9693   21.2350   -1.4766 C   0  0  0  0  0  0  0  0  0  0  0  0
   12.4533   22.4008   -0.8580 C   0  0  0  0  0  0  0  0  0  0  0  0
   13.6954   22.9192   -1.1341 C   0  0  0  0  0  0  0  0  0  0  0  0
   14.3325   24.0047   -0.6581 N   0  0  0  0  0  0  0  0  0  0  0  0
   15.5271   24.0380   -1.2747 C   0  0  0  0  0  0  0  0  0  0  0  0
   15.6338   22.9972   -2.1165 N   0  0  0  0  0  0  0  0  0  0  0  0
   14.5126   22.2657   -2.0657 C   0  0  0  0  0  0  0  0  0  0  0  0
   14.0528   21.1205   -2.6818 C   0  0  0  0  0  0  0  0  0  0  0  0
   12.7919   20.6085   -2.3900 C   0  0  0  0  0  0  0  0  0  0  0  0
   12.3169   19.1335   -3.2113 Cl  0  0  0  0  0  0  0  0  0  0  0  0
   13.9378   24.6637    0.0507 H   0  0  0  0  0  0  0  0  0  0  0  0
    9.5362   20.9580   -3.3807 C   0  0  0  0  0  0  0  0  0  0  0  0
    9.6379   20.3621   -2.0443 C   0  0  0  0  0  0  0  0  0  0  0  0
    8.3161   20.7090   -1.3467 C   0  0  0  0  0  0  0  0  0  0  0  0
    8.0592   19.7024   -0.3606 N   0  0  0  0  0  0  0  0  0  0  0  0
    9.2495   19.4836    0.3717 C   0  0  0  0  0  0  0  0  0  0  0  0
   10.2563   20.6527    0.2076 C   0  0  0  0  0  0  0  0  0  0  0  0
   10.6795   20.7868   -1.1691 N   0  0  0  0  0  0  0  0  0  0  0  0
    6.8951   20.0757    0.3712 C   0  0  0  0  0  0  0  0  0  0  0  0
    6.5177   21.5158    0.3266 C   0  0  0  0  0  0  0  0  0  0  0  0
    5.6236   21.6872   -0.7491 O   0  0  0  0  0  0  0  0  0  0  0  0
    5.3077   20.8300   -1.1101 H   0  0  0  0  0  0  0  0  0  0  0  0
   16.7588   25.2946   -0.9892 S   0  0  0  0  0  0  0  0  0  0  0  0
   17.3413   25.0977    0.7265 C   0  0  0  0  0  0  0  0  0  0  0  0
   16.8451   23.7634    1.2231 C   0  0  0  0  0  0  0  0  0  0  0  0
   18.8566   25.0426    0.7207 C   0  0  0  0  0  0  0  0  0  0  0  0
   16.8238   26.2579    1.5208 C   0  0  0  0  0  0  0  0  0  0  0  0
 12 13  1  0  0  0
 13 14  1  0  0  0
 14 15  1  0  0  0
 15 19  1  0  0  0
 19 20  1  0  0  0
 20 21  1  0  0  0
 15 16  1  0  0  0
 16 17  1  0  0  0
 17 18  1  0  0  0
 18  1  1  0  0  0
  1  2  2  0  0  0
  2  3  1  0  0  0
  3  4  1  0  0  0
  4  5  1  0  0  0
  5 23  1  0  0  0
 23 24  1  0  0  0
 24 25  1  0  0  0
 24 26  1  0  0  0
 24 27  1  0  0  0
  5  6  2  0  0  0
  6  7  1  0  0  0
  7  8  1  0  0  0
  8  9  2  0  0  0
  9 10  1  0  0  0
 18 13  1  0  0  0
  9  1  1  0  0  0
  7  3  2  0  0  0
 21 22  1  0  0  0
  4 11  1  0  0  0
M  END
> <minimizedAffinity>
15.31782

> <CNNscore>
0.4063686430

> <CNNaffinity>
6.6320390701

> <CNN_VS>
2.6950526237

> <CNNaffinity_variance>
1.6087661982

$$$$
[H]OC([H])([H])C([H])([H])N1C([H])([H])C([H])([H])N(c2c(Cl)c([H])c3nc(SC(C([H])([H])[H])(C([H])([H])[H])C([H])([H])[H])n([H])c3c2[H])[C@]([H])(C([H])([H])[H])C1([H])[H]


 27 29  0  0  0  0  0  0  0  0999 V2000
   14.2856   24.7613   -1.9256 C   0  0  0  0  0  0  0  0  0  0  0  0
   12.9944   24.2098   -1.8570 C   0  0  0  0  0  0  0  0  0  0  0  0
   12.5594   23.4869   -0.7726 C   0  0  0  0  0  0  0  0  0  0  0  0
   11.3824   22.8866   -0.5175 N   0  0  0  0  0  0  0  0  0  0  0  0
   11.5057   22.3219    0.6968 C   0  0  0  0  0  0  0  0  0  0  0  0
   12.7315   22.5638    1.1887 N   0  0  0  0  0  0  0  0  0  0  0  0
   13.4309   23.2900    0.3066 C   0  0  0  0  0  0  0  0  0  0  0  0
   14.7013   23.8244    0.2553 C   0  0  0  0  0  0  0  0  0  0  0  0
   15.1262   24.5538   -0.8514 C   0  0  0  0  0  0  0  0  0  0  0  0
   16.7692   25.1667   -0.8238 Cl  0  0  0  0  0  0  0  0  0  0  0  0
   10.5618   22.8855   -1.1649 H   0  0  0  0  0  0  0  0  0  0  0  0
   12.5247   26.7317   -3.5501 C   0  0  0  0  0  0  0  0  0  0  0  0
   13.9859   26.6345   -3.6346 C   0  0  0  0  0  0  0  0  0  0  0  0
   14.3004   26.5874   -5.1356 C   0  0  0  0  0  0  0  0  0  0  0  0
   15.6189   27.1131   -5.3276 N   0  0  0  0  0  0  0  0  0  0  0  0
   16.4768   26.5219   -4.3709 C   0  0  0  0  0  0  0  0  0  0  0  0
   15.8690   25.2293   -3.7651 C   0  0  0  0  0  0  0  0  0  0  0  0
   14.6450   25.5148   -3.0490 N   0  0  0  0  0  0  0  0  0  0  0  0
   15.9658   26.9678   -6.7019 C   0  0  0  0  0  0  0  0  0  0  0  0
   15.4150   25.7741   -7.4019 C   0  0  0  0  0  0  0  0  0  0  0  0
   16.1977   25.5589   -8.5538 O   0  0  0  0  0  0  0  0  0  0  0  0
   17.0161   26.1021   -8.5541 H   0  0  0  0  0  0  0  0  0  0  0  0
   10.2101   21.3974    1.4996 S   0  0  0  0  0  0  0  0  0  0  0  0
    8.9662   22.6000    2.0725 C   0  0  0  0  0  0  0  0  0  0  0  0
    8.2492   21.9851    3.2478 C   0  0  0  0  0  0  0  0  0  0  0  0
    9.6840   23.8364    2.5777 C   0  0  0  0  0  0  0  0  0  0  0  0
    8.0618   22.9070    0.9183 C   0  0  0  0  0  0  0  0  0  0  0  0
 12 13  1  0  0  0
 13 14  1  0  0  0
 14 15  1  0  0  0
 15 19  1  0  0  0
 19 20  1  0  0  0
 20 21  1  0  0  0
 15 16  1  0  0  0
 16 17  1  0  0  0
 17 18  1  0  0  0
 18  1  1  0  0  0
  1  2  2  0  0  0
  2  3  1  0  0  0
  3  4  1  0  0  0
  4  5  1  0  0  0
  5 23  1  0  0  0
 23 24  1  0  0  0
 24 25  1  0  0  0
 24 26  1  0  0  0
 24 27  1  0  0  0
  5  6  2  0  0  0
  6  7  1  0  0  0
  7  8  1  0  0  0
  8  9  2  0  0  0
  9 10  1  0  0  0
 18 13  1  0  0  0
  9  1  1  0  0  0
  7  3  2  0  0  0
 21 22  1  0  0  0
  4 11  1  0  0  0
M  END
> <minimizedAffinity>
-7.67487

> <CNNscore>
0.3328330219

> <CNNaffinity>
7.4494237900

> <CNN_VS>
2.4794142246

> <CNNaffinity_variance>
0.3711854815

$$$$
[H]OC([H])([H])C([H])([H])N1C([H])([H])C([H])([H])N(c2c(Cl)c([H])c3nc(SC(C([H])([H])[H])(C([H])([H])[H])C([H])([H])[H])n([H])c3c2[H])[C@]([H])(C([H])([H])[H])C1([H])[H]


 27 29  0  0  0  0  0  0  0  0999 V2000
   13.2990   24.6685   -1.7257 C   0  0  0  0  0  0  0  0  0  0  0  0
   11.9140   24.4335   -1.6758 C   0  0  0  0  0  0  0  0  0  0  0  0
   11.2712   24.0650   -0.5187 C   0  0  0  0  0  0  0  0  0  0  0  0
    9.9766   23.7981   -0.2663 N   0  0  0  0  0  0  0  0  0  0  0  0
    9.9062   23.4882    1.0404 C   0  0  0  0  0  0  0  0  0  0  0  0
   11.1286   23.5597    1.5914 N   0  0  0  0  0  0  0  0  0  0  0  0
   12.0191   23.9173    0.6566 C   0  0  0  0  0  0  0  0  0  0  0  0
   13.3792   24.1441    0.6249 C   0  0  0  0  0  0  0  0  0  0  0  0
   14.0148   24.5163   -0.5561 C   0  0  0  0  0  0  0  0  0  0  0  0
   15.7511   24.7548   -0.4902 Cl  0  0  0  0  0  0  0  0  0  0  0  0
    9.2111   23.8368   -0.9769 H   0  0  0  0  0  0  0  0  0  0  0  0
   15.2755   23.0932   -3.5241 C   0  0  0  0  0  0  0  0  0  0  0  0
   14.5349   24.2930   -3.9283 C   0  0  0  0  0  0  0  0  0  0  0  0
   15.5780   25.2096   -4.5810 C   0  0  0  0  0  0  0  0  0  0  0  0
   14.9003   26.0511   -5.5214 N   0  0  0  0  0  0  0  0  0  0  0  0
   13.7420   26.5712   -4.8981 C   0  0  0  0  0  0  0  0  0  0  0  0
   13.8126   26.4574   -3.3523 C   0  0  0  0  0  0  0  0  0  0  0  0
   13.8774   25.0743   -2.9340 N   0  0  0  0  0  0  0  0  0  0  0  0
   15.8392   26.9838   -6.0491 C   0  0  0  0  0  0  0  0  0  0  0  0
   16.3706   27.9995   -5.0981 C   0  0  0  0  0  0  0  0  0  0  0  0
   15.7174   29.2182   -5.3699 O   0  0  0  0  0  0  0  0  0  0  0  0
   14.9523   29.1030   -5.9751 H   0  0  0  0  0  0  0  0  0  0  0  0
    8.3946   23.0525    1.8789 S   0  0  0  0  0  0  0  0  0  0  0  0
    8.3665   23.9736    3.4513 C   0  0  0  0  0  0  0  0  0  0  0  0
    6.9514   23.9409    3.9704 C   0  0  0  0  0  0  0  0  0  0  0  0
    9.2337   23.2420    4.4573 C   0  0  0  0  0  0  0  0  0  0  0  0
    8.8682   25.3587    3.1786 C   0  0  0  0  0  0  0  0  0  0  0  0
 12 13  1  0  0  0
 13 14  1  0  0  0
 14 15  1  0  0  0
 15 19  1  0  0  0
 19 20  1  0  0  0
 20 21  1  0  0  0
 15 16  1  0  0  0
 16 17  1  0  0  0
 17 18  1  0  0  0
 18  1  1  0  0  0
  1  2  2  0  0  0
  2  3  1  0  0  0
  3  4  1  0  0  0
  4  5  1  0  0  0
  5 23  1  0  0  0
 23 24  1  0  0  0
 24 25  1  0  0  0
 24 26  1  0  0  0
 24 27  1  0  0  0
  5  6  2  0  0  0
  6  7  1  0  0  0
  7  8  1  0  0  0
  8  9  2  0  0  0
  9 10  1  0  0  0
 18 13  1  0  0  0
  9  1  1  0  0  0
  7  3  2  0  0  0
 21 22  1  0  0  0
  4 11  1  0  0  0
M  END
> <minimizedAffinity>
-7.72023

> <CNNscore>
0.3184635043

> <CNNaffinity>
7.2876343727

> <CNN_VS>
2.3208456039

> <CNNaffinity_variance>
0.0600308292

$$$$
[H]OC([H])([H])C([H])([H])N1C([H])([H])C([H])([H])N(c2c(Cl)c([H])c3nc(SC(C([H])([H])[H])(C([H])([H])[H])C([H])([H])[H])n([H])c3c2[H])[C@]([H])(C([H])([H])[H])C1([H])[H]


 27 29  0  0  0  0  0  0  0  0999 V2000
   11.3215   21.0212   -0.5657 C   0  0  0  0  0  0  0  0  0  0  0  0
   11.6989   22.2555   -0.0090 C   0  0  0  0  0  0  0  0  0  0  0  0
   13.0030   22.6880    0.0065 C   0  0  0  0  0  0  0  0  0  0  0  0
   13.5607   23.8162    0.4828 N   0  0  0  0  0  0  0  0  0  0  0  0
   14.8781   23.7176    0.2314 C   0  0  0  0  0  0  0  0  0  0  0  0
   15.1373   22.5546   -0.3877 N   0  0  0  0  0  0  0  0  0  0  0  0
   13.9959   21.8727   -0.5522 C   0  0  0  0  0  0  0  0  0  0  0  0
   13.6424   20.6584   -1.1026 C   0  0  0  0  0  0  0  0  0  0  0  0
   12.3165   20.2352   -1.1094 C   0  0  0  0  0  0  0  0  0  0  0  0
   11.9812   18.6634   -1.8115 Cl  0  0  0  0  0  0  0  0  0  0  0  0
   13.0346   24.5897    0.9490 H   0  0  0  0  0  0  0  0  0  0  0  0
    9.3727   20.9727   -2.9787 C   0  0  0  0  0  0  0  0  0  0  0  0
    9.1267   20.3397   -1.6786 C   0  0  0  0  0  0  0  0  0  0  0  0
    7.7076   20.7687   -1.2836 C   0  0  0  0  0  0  0  0  0  0  0  0
    7.1651   19.7615   -0.4216 N   0  0  0  0  0  0  0  0  0  0  0  0
    8.1397   19.4367    0.5507 C   0  0  0  0  0  0  0  0  0  0  0  0
    9.2345   20.5302    0.6645 C   0  0  0  0  0  0  0  0  0  0  0  0
    9.9681   20.6642   -0.5749 N   0  0  0  0  0  0  0  0  0  0  0  0
    5.8931   20.2041    0.0433 C   0  0  0  0  0  0  0  0  0  0  0  0
    5.7711   21.6544    0.3600 C   0  0  0  0  0  0  0  0  0  0  0  0
    5.6331   22.3452   -0.8605 O   0  0  0  0  0  0  0  0  0  0  0  0
    5.4673   21.7381   -1.6146 H   0  0  0  0  0  0  0  0  0  0  0  0
   16.0706   24.9677    0.6708 S   0  0  0  0  0  0  0  0  0  0  0  0
   17.6624   24.1221    0.9406 C   0  0  0  0  0  0  0  0  0  0  0  0
   17.3579   22.7086    1.3678 C   0  0  0  0  0  0  0  0  0  0  0  0
   18.4008   24.0454   -0.3815 C   0  0  0  0  0  0  0  0  0  0  0  0
   18.4260   24.9021    1.9668 C   0  0  0  0  0  0  0  0  0  0  0  0
 12 13  1  0  0  0
 13 14  1  0  0  0
 14 15  1  0  0  0
 15 19  1  0  0  0
 19 20  1  0  0  0
 20 21  1  0  0  0
 15 16  1  0  0  0
 16 17  1  0  0  0
 17 18  1  0  0  0
 18  1  1  0  0  0
  1  2  2  0  0  0
  2  3  1  0  0  0
  3  4  1  0  0  0
  4  5  1  0  0  0
  5 23  1  0  0  0
 23 24  1  0  0  0
 24 25  1  0  0  0
 24 26  1  0  0  0
 24 27  1  0  0  0
  5  6  2  0  0  0
  6  7  1  0  0  0
  7  8  1  0  0  0
  8  9  2  0  0  0
  9 10  1  0  0  0
 18 13  1  0  0  0
  9  1  1  0  0  0
  7  3  2  0  0  0
 21 22  1  0  0  0
  4 11  1  0  0  0
M  END
> <minimizedAffinity>
7.89107

> <CNNscore>
0.2703214884

> <CNNaffinity>
6.1859025955

> <CNN_VS>
1.6721824408

> <CNNaffinity_variance>
0.3968649805

$$$$
[H]OC([H])([H])C([H])([H])N1C([H])([H])C([H])([H])N(c2c(Cl)c([H])c3nc(SC(C([H])([H])[H])(C([H])([H])[H])C([H])([H])[H])n([H])c3c2[H])[C@]([H])(C([H])([H])[H])C1([H])[H]


 27 29  0  0  0  0  0  0  0  0999 V2000
   12.0051   22.4241    0.5727 C   0  0  0  0  0  0  0  0  0  0  0  0
   12.1175   23.5856   -0.2111 C   0  0  0  0  0  0  0  0  0  0  0  0
   13.3097   23.9891   -0.7623 C   0  0  0  0  0  0  0  0  0  0  0  0
   13.6217   25.0501   -1.5289 N   0  0  0  0  0  0  0  0  0  0  0  0
   14.9384   24.9530   -1.7845 C   0  0  0  0  0  0  0  0  0  0  0  0
   15.4373   23.8566   -1.1912 N   0  0  0  0  0  0  0  0  0  0  0  0
   14.4575   23.2178   -0.5380 C   0  0  0  0  0  0  0  0  0  0  0  0
   14.3646   22.0752    0.2289 C   0  0  0  0  0  0  0  0  0  0  0  0
   13.1489   21.6811    0.7804 C   0  0  0  0  0  0  0  0  0  0  0  0
   13.1481   20.2262    1.7598 Cl  0  0  0  0  0  0  0  0  0  0  0  0
   12.9418   25.7805   -1.8399 H   0  0  0  0  0  0  0  0  0  0  0  0
    9.7967   20.7615   -0.8347 C   0  0  0  0  0  0  0  0  0  0  0  0
    9.8429   21.0662    0.5994 C   0  0  0  0  0  0  0  0  0  0  0  0
    8.4342   21.5616    0.9517 C   0  0  0  0  0  0  0  0  0  0  0  0
    8.2016   21.2834    2.3374 N   0  0  0  0  0  0  0  0  0  0  0  0
    9.3383   21.6968    3.0707 C   0  0  0  0  0  0  0  0  0  0  0  0
   10.2223   22.6850    2.2648 C   0  0  0  0  0  0  0  0  0  0  0  0
   10.7496   22.0590    1.0721 N   0  0  0  0  0  0  0  0  0  0  0  0
    6.9430   21.8420    2.7036 C   0  0  0  0  0  0  0  0  0  0  0  0
    6.6457   21.9072    4.1616 C   0  0  0  0  0  0  0  0  0  0  0  0
    6.5201   20.5837    4.6288 O   0  0  0  0  0  0  0  0  0  0  0  0
    6.8242   19.9252    3.9665 H   0  0  0  0  0  0  0  0  0  0  0  0
   15.8493   26.1267   -2.7697 S   0  0  0  0  0  0  0  0  0  0  0  0
   15.0526   26.1877   -4.4078 C   0  0  0  0  0  0  0  0  0  0  0  0
   15.2342   24.8361   -5.0506 C   0  0  0  0  0  0  0  0  0  0  0  0
   13.5636   26.3999   -4.2150 C   0  0  0  0  0  0  0  0  0  0  0  0
   15.6841   27.3042   -5.1818 C   0  0  0  0  0  0  0  0  0  0  0  0
 12 13  1  0  0  0
 13 14  1  0  0  0
 14 15  1  0  0  0
 15 19  1  0  0  0
 19 20  1  0  0  0
 20 21  1  0  0  0
 15 16  1  0  0  0
 16 17  1  0  0  0
 17 18  1  0  0  0
 18  1  1  0  0  0
  1  2  2  0  0  0
  2  3  1  0  0  0
  3  4  1  0  0  0
  4  5  1  0  0  0
  5 23  1  0  0  0
 23 24  1  0  0  0
 24 25  1  0  0  0
 24 26  1  0  0  0
 24 27  1  0  0  0
  5  6  2  0  0  0
  6  7  1  0  0  0
  7  8  1  0  0  0
  8  9  2  0  0  0
  9 10  1  0  0  0
 18 13  1  0  0  0
  9  1  1  0  0  0
  7  3  2  0  0  0
 21 22  1  0  0  0
  4 11  1  0  0  0
M  END
> <minimizedAffinity>
-6.45681

> <CNNscore>
0.2376559228

> <CNNaffinity>
6.8802466393

> <CNN_VS>
1.6351313591

> <CNNaffinity_variance>
0.6116663218

$$$$
[H]OC([H])([H])C([H])([H])N1C([H])([H])C([H])([H])N(c2c(Cl)c([H])c3nc(SC(C([H])([H])[H])(C([H])([H])[H])C([H])([H])[H])n([H])c3c2[H])[C@]([H])(C([H])([H])[H])C1([H])[H]


 27 29  0  0  0  0  0  0  0  0999 V2000
   11.8133   22.4171    0.8404 C   0  0  0  0  0  0  0  0  0  0  0  0
   12.7202   23.4829    0.7070 C   0  0  0  0  0  0  0  0  0  0  0  0
   13.5077   23.6440   -0.4072 C   0  0  0  0  0  0  0  0  0  0  0  0
   14.4220   24.5796   -0.7229 N   0  0  0  0  0  0  0  0  0  0  0  0
   14.8895   24.2504   -1.9401 C   0  0  0  0  0  0  0  0  0  0  0  0
   14.2813   23.1349   -2.3747 N   0  0  0  0  0  0  0  0  0  0  0  0
   13.4064   22.7151   -1.4511 C   0  0  0  0  0  0  0  0  0  0  0  0
   12.5214   21.6635   -1.3361 C   0  0  0  0  0  0  0  0  0  0  0  0
   11.7313   21.5147   -0.2000 C   0  0  0  0  0  0  0  0  0  0  0  0
   10.6587   20.1282   -0.1465 Cl  0  0  0  0  0  0  0  0  0  0  0  0
   14.6849   25.3856   -0.1115 H   0  0  0  0  0  0  0  0  0  0  0  0
   11.8973   20.2710    3.0786 C   0  0  0  0  0  0  0  0  0  0  0  0
   11.2162   21.5667    3.1728 C   0  0  0  0  0  0  0  0  0  0  0  0
    9.8188   21.2485    3.7206 C   0  0  0  0  0  0  0  0  0  0  0  0
    9.3417   22.4072    4.4145 N   0  0  0  0  0  0  0  0  0  0  0  0
    9.5799   23.5408    3.6027 C   0  0  0  0  0  0  0  0  0  0  0  0
    9.8316   23.1528    2.1217 C   0  0  0  0  0  0  0  0  0  0  0  0
   11.0200   22.3386    1.9909 N   0  0  0  0  0  0  0  0  0  0  0  0
    8.0001   22.1636    4.8280 C   0  0  0  0  0  0  0  0  0  0  0  0
    7.1637   21.3386    3.9125 C   0  0  0  0  0  0  0  0  0  0  0  0
    6.3497   22.2190    3.1722 O   0  0  0  0  0  0  0  0  0  0  0  0
    6.6243   23.1562    3.2772 H   0  0  0  0  0  0  0  0  0  0  0  0
   16.1326   25.1830   -2.8135 S   0  0  0  0  0  0  0  0  0  0  0  0
   15.2952   26.0454   -4.1835 C   0  0  0  0  0  0  0  0  0  0  0  0
   13.9035   26.3909   -3.7180 C   0  0  0  0  0  0  0  0  0  0  0  0
   16.0197   27.3505   -4.4496 C   0  0  0  0  0  0  0  0  0  0  0  0
   15.3157   25.1377   -5.3752 C   0  0  0  0  0  0  0  0  0  0  0  0
 12 13  1  0  0  0
 13 14  1  0  0  0
 14 15  1  0  0  0
 15 19  1  0  0  0
 19 20  1  0  0  0
 20 21  1  0  0  0
 15 16  1  0  0  0
 16 17  1  0  0  0
 17 18  1  0  0  0
 18  1  1  0  0  0
  1  2  2  0  0  0
  2  3  1  0  0  0
  3  4  1  0  0  0
  4  5  1  0  0  0
  5 23  1  0  0  0
 23 24  1  0  0  0
 24 25  1  0  0  0
 24 26  1  0  0  0
 24 27  1  0  0  0
  5  6  2  0  0  0
  6  7  1  0  0  0
  7  8  1  0  0  0
  8  9  2  0  0  0
  9 10  1  0  0  0
 18 13  1  0  0  0
  9  1  1  0  0  0
  7  3  2  0  0  0
 21 22  1  0  0  0
  4 11  1  0  0  0
M  END
> <minimizedAffinity>
-7.92596

> <CNNscore>
0.2361346334

> <CNNaffinity>
6.7099509239

> <CNN_VS>
1.5844517946

> <CNNaffinity_variance>
0.1634744108

$$$$
[H]OC([H])([H])C([H])([H])N1C([H])([H])C([H])([H])N(c2c(Cl)c([H])c3nc(SC(C([H])([H])[H])(C([H])([H])[H])C([H])([H])[H])n([H])c3c2[H])[C@]([H])(C([H])([H])[H])C1([H])[H]


 27 29  0  0  0  0  0  0  0  0999 V2000
   11.6078   22.6985   -0.0628 C   0  0  0  0  0  0  0  0  0  0  0  0
   12.1226   23.9791   -0.3292 C   0  0  0  0  0  0  0  0  0  0  0  0
   13.1912   24.1828   -1.1684 C   0  0  0  0  0  0  0  0  0  0  0  0
   13.8231   25.3089   -1.5473 N   0  0  0  0  0  0  0  0  0  0  0  0
   14.8033   24.9247   -2.3840 C   0  0  0  0  0  0  0  0  0  0  0  0
   14.7841   23.5895   -2.5246 N   0  0  0  0  0  0  0  0  0  0  0  0
   13.7927   23.0770   -1.7835 C   0  0  0  0  0  0  0  0  0  0  0  0
   13.2998   21.8135   -1.5328 C   0  0  0  0  0  0  0  0  0  0  0  0
   12.2166   21.6248   -0.6793 C   0  0  0  0  0  0  0  0  0  0  0  0
   11.6869   19.9747   -0.4107 Cl  0  0  0  0  0  0  0  0  0  0  0  0
   13.5678   26.2710   -1.2285 H   0  0  0  0  0  0  0  0  0  0  0  0
   11.5588   21.9720    2.9526 C   0  0  0  0  0  0  0  0  0  0  0  0
   10.4360   22.5422    2.2004 C   0  0  0  0  0  0  0  0  0  0  0  0
    9.2243   21.6749    2.5659 C   0  0  0  0  0  0  0  0  0  0  0  0
    8.0462   22.4760    2.4168 N   0  0  0  0  0  0  0  0  0  0  0  0
    8.1253   23.1565    1.1793 C   0  0  0  0  0  0  0  0  0  0  0  0
    9.1602   22.5065    0.2233 C   0  0  0  0  0  0  0  0  0  0  0  0
   10.4949   22.5735    0.7768 N   0  0  0  0  0  0  0  0  0  0  0  0
    6.9080   21.6491    2.6419 C   0  0  0  0  0  0  0  0  0  0  0  0
    6.1625   21.2036    1.4319 C   0  0  0  0  0  0  0  0  0  0  0  0
    6.3406   19.8108    1.3125 O   0  0  0  0  0  0  0  0  0  0  0  0
    6.7445   19.4174    2.1168 H   0  0  0  0  0  0  0  0  0  0  0  0
   15.9387   26.0522   -3.1698 S   0  0  0  0  0  0  0  0  0  0  0  0
   15.1431   26.6370   -4.7017 C   0  0  0  0  0  0  0  0  0  0  0  0
   15.2283   25.5204   -5.7112 C   0  0  0  0  0  0  0  0  0  0  0  0
   13.6731   26.8817   -4.4216 C   0  0  0  0  0  0  0  0  0  0  0  0
   15.8485   27.8857   -5.1350 C   0  0  0  0  0  0  0  0  0  0  0  0
 12 13  1  0  0  0
 13 14  1  0  0  0
 14 15  1  0  0  0
 15 19  1  0  0  0
 19 20  1  0  0  0
 20 21  1  0  0  0
 15 16  1  0  0  0
 16 17  1  0  0  0
 17 18  1  0  0  0
 18  1  1  0  0  0
  1  2  2  0  0  0
  2  3  1  0  0  0
  3  4  1  0  0  0
  4  5  1  0  0  0
  5 23  1  0  0  0
 23 24  1  0  0  0
 24 25  1  0  0  0
 24 26  1  0  0  0
 24 27  1  0  0  0
  5  6  2  0  0  0
  6  7  1  0  0  0
  7  8  1  0  0  0
  8  9  2  0  0  0
  9 10  1  0  0  0
 18 13  1  0  0  0
  9  1  1  0  0  0
  7  3  2  0  0  0
 21 22  1  0  0  0
  4 11  1  0  0  0
M  END
> <minimizedAffinity>
-6.60050

> <CNNscore>
0.2119556367

> <CNNaffinity>
6.7707009315

> <CNN_VS>
1.4350882769

> <CNNaffinity_variance>
0.3877028227

$$$$
[H]c1nc(N([H])S(=O)(=O)c2c([H])c(Cl)c(N(C([H])([H])[H])[C@]3([H])C([H])([H])N(C([H])([H])c4c([H])c([H])c(Cl)c([H])c4[H])C([H])([H])C3([H])[H])c([H])c2F)c([H])s1


 33 36  0  0  0  0  0  0  0  0999 V2000
   12.0092   22.5923   -1.2516 C   0  0  0  0  0  0  0  0  0  0  0  0
   11.9584   23.9557   -1.4483 C   0  0  0  0  0  0  0  0  0  0  0  0
   13.0926   24.6909   -1.7080 C   0  0  0  0  0  0  0  0  0  0  0  0
   13.0282   26.0427   -1.9013 F   0  0  0  0  0  0  0  0  0  0  0  0
   14.3544   24.0942   -1.7858 C   0  0  0  0  0  0  0  0  0  0  0  0
   14.3951   22.7326   -1.5885 C   0  0  0  0  0  0  0  0  0  0  0  0
   13.2541   22.0036   -1.3286 C   0  0  0  0  0  0  0  0  0  0  0  0
   13.3499   20.2531   -1.0799 Cl  0  0  0  0  0  0  0  0  0  0  0  0
   15.7623   25.0699   -2.1439 S   0  0  0  0  0  0  0  0  0  0  0  0
   16.6444   24.2209   -3.0409 O   0  0  0  0  0  0  0  0  0  0  0  0
   16.5541   25.3727   -0.9174 O   0  0  0  0  0  0  0  0  0  0  0  0
   15.4011   26.4977   -3.0065 N   0  0  0  0  0  0  0  0  0  0  0  0
   15.1130   27.3300   -2.4503 H   0  0  0  0  0  0  0  0  0  0  0  0
   15.4810   26.5849   -4.4597 C   0  0  0  0  0  0  0  0  0  0  0  0
   14.9456   25.5998   -5.2583 C   0  0  0  0  0  0  0  0  0  0  0  0
   15.3088   26.1880   -6.8185 S   0  0  0  0  0  0  0  0  0  0  0  0
   16.1074   27.6286   -6.3726 C   0  0  0  0  0  0  0  0  0  0  0  0
   16.0535   27.5828   -5.0537 N   0  0  0  0  0  0  0  0  0  0  0  0
   10.0631   21.2944   -2.0789 C   0  0  0  0  0  0  0  0  0  0  0  0
   10.8616   21.8077   -0.9824 N   0  0  0  0  0  0  0  0  0  0  0  0
   10.4602   21.5017    0.3512 C   0  0  0  0  0  0  0  0  0  0  0  0
   10.1079   22.7218    1.1772 C   0  0  0  0  0  0  0  0  0  0  0  0
    9.3276   22.0698    2.3135 C   0  0  0  0  0  0  0  0  0  0  0  0
    8.5723   21.0286    1.6931 N   0  0  0  0  0  0  0  0  0  0  0  0
    9.1222   20.7503    0.4017 C   0  0  0  0  0  0  0  0  0  0  0  0
    7.1816   21.3706    1.6951 C   0  0  0  0  0  0  0  0  0  0  0  0
    6.5879   20.9972    0.3884 C   0  0  0  0  0  0  0  0  0  0  0  0
    7.0049   19.8245   -0.2498 C   0  0  0  0  0  0  0  0  0  0  0  0
    6.4881   19.4195   -1.4610 C   0  0  0  0  0  0  0  0  0  0  0  0
    5.5261   20.1786   -2.0855 C   0  0  0  0  0  0  0  0  0  0  0  0
    4.8850   19.6441   -3.6227 Cl  0  0  0  0  0  0  0  0  0  0  0  0
    5.0917   21.3339   -1.4923 C   0  0  0  0  0  0  0  0  0  0  0  0
    5.6266   21.7245   -0.2692 C   0  0  0  0  0  0  0  0  0  0  0  0
 19 20  1  0  0  0
 20  1  1  0  0  0
  1  2  2  0  0  0
  2  3  1  0  0  0
  3  4  1  0  0  0
  3  5  2  0  0  0
  5  9  1  0  0  0
  9 10  2  0  0  0
  9 11  2  0  0  0
  9 12  1  0  0  0
 12 14  1  0  0  0
 14 15  2  0  0  0
 15 16  1  0  0  0
 16 17  1  0  0  0
 17 18  2  0  0  0
  5  6  1  0  0  0
  6  7  2  0  0  0
  7  8  1  0  0  0
 20 21  1  0  0  0
 21 22  1  0  0  0
 22 23  1  0  0  0
 23 24  1  0  0  0
 24 26  1  0  0  0
 26 27  1  0  0  0
 27 28  2  0  0  0
 28 29  1  0  0  0
 29 30  2  0  0  0
 30 31  1  0  0  0
 30 32  1  0  0  0
 32 33  2  0  0  0
 24 25  1  0  0  0
  7  1  1  0  0  0
 25 21  1  0  0  0
 18 14  1  0  0  0
 33 27  1  0  0  0
 12 13  1  0  0  0
M  END
> <minimizedAffinity>
-7.68419

> <CNNscore>
0.3976423740

> <CNNaffinity>
7.4559998512

> <CNN_VS>
2.9648215771

> <CNNaffinity_variance>
0.1116979942

$$$$
[H]c1nc(N([H])S(=O)(=O)c2c([H])c(Cl)c(N(C([H])([H])[H])[C@]3([H])C([H])([H])N(C([H])([H])c4c([H])c([H])c(Cl)c([H])c4[H])C([H])([H])C3([H])[H])c([H])c2F)c([H])s1


 33 36  0  0  0  0  0  0  0  0999 V2000
   10.0862   22.4094    0.2509 C   0  0  0  0  0  0  0  0  0  0  0  0
   10.3944   23.7388    0.0564 C   0  0  0  0  0  0  0  0  0  0  0  0
   11.6977   24.1746   -0.0197 C   0  0  0  0  0  0  0  0  0  0  0  0
   11.9896   25.4961   -0.2129 F   0  0  0  0  0  0  0  0  0  0  0  0
   12.7762   23.2928    0.0960 C   0  0  0  0  0  0  0  0  0  0  0  0
   12.4588   21.9676    0.2895 C   0  0  0  0  0  0  0  0  0  0  0  0
   11.1504   21.5394    0.3649 C   0  0  0  0  0  0  0  0  0  0  0  0
   10.7846   19.8251    0.6154 Cl  0  0  0  0  0  0  0  0  0  0  0  0
   14.4146   23.8940   -0.0334 S   0  0  0  0  0  0  0  0  0  0  0  0
   15.2761   22.9427    0.7770 O   0  0  0  0  0  0  0  0  0  0  0  0
   14.5608   25.2438    0.5826 O   0  0  0  0  0  0  0  0  0  0  0  0
   15.0219   23.8808   -1.6285 N   0  0  0  0  0  0  0  0  0  0  0  0
   15.5787   23.0497   -1.9191 H   0  0  0  0  0  0  0  0  0  0  0  0
   14.7915   24.9690   -2.5710 C   0  0  0  0  0  0  0  0  0  0  0  0
   15.8453   25.6505   -3.1366 C   0  0  0  0  0  0  0  0  0  0  0  0
   15.0326   26.7790   -4.1258 S   0  0  0  0  0  0  0  0  0  0  0  0
   13.4264   26.3265   -3.7689 C   0  0  0  0  0  0  0  0  0  0  0  0
   13.5976   25.3361   -2.9120 N   0  0  0  0  0  0  0  0  0  0  0  0
    8.3032   20.8949   -0.5760 C   0  0  0  0  0  0  0  0  0  0  0  0
    8.7568   21.9291    0.3341 N   0  0  0  0  0  0  0  0  0  0  0  0
    7.8364   22.4368    1.2977 C   0  0  0  0  0  0  0  0  0  0  0  0
    7.2139   21.3658    2.1698 C   0  0  0  0  0  0  0  0  0  0  0  0
    6.6805   22.2188    3.3157 C   0  0  0  0  0  0  0  0  0  0  0  0
    7.6733   23.2248    3.5206 N   0  0  0  0  0  0  0  0  0  0  0  0
    8.5257   23.2888    2.3730 C   0  0  0  0  0  0  0  0  0  0  0  0
    8.3495   22.9937    4.7616 C   0  0  0  0  0  0  0  0  0  0  0  0
    9.3681   21.9331    4.5694 C   0  0  0  0  0  0  0  0  0  0  0  0
    9.1230   20.6442    5.0544 C   0  0  0  0  0  0  0  0  0  0  0  0
   10.0257   19.6145    4.9026 C   0  0  0  0  0  0  0  0  0  0  0  0
   11.2182   19.8365    4.2543 C   0  0  0  0  0  0  0  0  0  0  0  0
   12.3484   18.5137    4.0738 Cl  0  0  0  0  0  0  0  0  0  0  0  0
   11.4949   21.0853    3.7652 C   0  0  0  0  0  0  0  0  0  0  0  0
   10.5697   22.1109    3.9291 C   0  0  0  0  0  0  0  0  0  0  0  0
 19 20  1  0  0  0
 20  1  1  0  0  0
  1  2  2  0  0  0
  2  3  1  0  0  0
  3  4  1  0  0  0
  3  5  2  0  0  0
  5  9  1  0  0  0
  9 10  2  0  0  0
  9 11  2  0  0  0
  9 12  1  0  0  0
 12 14  1  0  0  0
 14 15  2  0  0  0
 15 16  1  0  0  0
 16 17  1  0  0  0
 17 18  2  0  0  0
  5  6  1  0  0  0
  6  7  2  0  0  0
  7  8  1  0  0  0
 20 21  1  0  0  0
 21 22  1  0  0  0
 22 23  1  0  0  0
 23 24  1  0  0  0
 24 26  1  0  0  0
 26 27  1  0  0  0
 27 28  2  0  0  0
 28 29  1  0  0  0
 29 30  2  0  0  0
 30 31  1  0  0  0
 30 32  1  0  0  0
 32 33  2  0  0  0
 24 25  1  0  0  0
  7  1  1  0  0  0
 25 21  1  0  0  0
 18 14  1  0  0  0
 33 27  1  0  0  0
 12 13  1  0  0  0
M  END
> <minimizedAffinity>
-7.16014

> <CNNscore>
0.3682127297

> <CNNaffinity>
7.5735712051

> <CNN_VS>
2.7886853218

> <CNNaffinity_variance>
0.0482231975

$$$$
[H]c1nc(N([H])S(=O)(=O)c2c([H])c(Cl)c(N(C([H])([H])[H])[C@]3([H])C([H])([H])N(C([H])([H])c4c([H])c([H])c(Cl)c([H])c4[H])C([H])([H])C3([H])[H])c([H])c2F)c([H])s1


 33 36  0  0  0  0  0  0  0  0999 V2000
   11.7582   22.3323   -1.1438 C   0  0  0  0  0  0  0  0  0  0  0  0
   11.6681   23.6796   -1.4207 C   0  0  0  0  0  0  0  0  0  0  0  0
   12.7833   24.4356   -1.7020 C   0  0  0  0  0  0  0  0  0  0  0  0
   12.6799   25.7712   -1.9749 F   0  0  0  0  0  0  0  0  0  0  0  0
   14.0647   23.8773   -1.7217 C   0  0  0  0  0  0  0  0  0  0  0  0
   14.1448   22.5315   -1.4446 C   0  0  0  0  0  0  0  0  0  0  0  0
   13.0226   21.7815   -1.1635 C   0  0  0  0  0  0  0  0  0  0  0  0
   13.1690   20.0523   -0.8115 Cl  0  0  0  0  0  0  0  0  0  0  0  0
   15.4478   24.8767   -2.1102 S   0  0  0  0  0  0  0  0  0  0  0  0
   16.3340   24.0353   -3.0105 O   0  0  0  0  0  0  0  0  0  0  0  0
   16.2506   25.2085   -0.8984 O   0  0  0  0  0  0  0  0  0  0  0  0
   15.0463   26.2874   -2.9829 N   0  0  0  0  0  0  0  0  0  0  0  0
   14.6072   27.0677   -2.4505 H   0  0  0  0  0  0  0  0  0  0  0  0
   15.2924   26.4292   -4.4129 C   0  0  0  0  0  0  0  0  0  0  0  0
   15.6998   27.6314   -4.9452 C   0  0  0  0  0  0  0  0  0  0  0  0
   15.8337   27.2452   -6.6020 S   0  0  0  0  0  0  0  0  0  0  0  0
   15.3715   25.6044   -6.5235 C   0  0  0  0  0  0  0  0  0  0  0  0
   15.1394   25.4396   -5.2337 N   0  0  0  0  0  0  0  0  0  0  0  0
    9.8178   21.0007   -1.9298 C   0  0  0  0  0  0  0  0  0  0  0  0
   10.6310   21.5272   -0.8504 N   0  0  0  0  0  0  0  0  0  0  0  0
   10.2646   21.2129    0.4913 C   0  0  0  0  0  0  0  0  0  0  0  0
   10.4901   22.3496    1.4672 C   0  0  0  0  0  0  0  0  0  0  0  0
    9.6240   21.8873    2.6340 C   0  0  0  0  0  0  0  0  0  0  0  0
    8.4708   21.3013    2.0286 N   0  0  0  0  0  0  0  0  0  0  0  0
    8.7503   21.0184    0.6540 C   0  0  0  0  0  0  0  0  0  0  0  0
    7.3285   22.1358    2.2521 C   0  0  0  0  0  0  0  0  0  0  0  0
    7.7190   23.2702    3.1239 C   0  0  0  0  0  0  0  0  0  0  0  0
    8.0300   24.5072    2.5497 C   0  0  0  0  0  0  0  0  0  0  0  0
    8.3937   25.6008    3.3046 C   0  0  0  0  0  0  0  0  0  0  0  0
    8.4605   25.4980    4.6745 C   0  0  0  0  0  0  0  0  0  0  0  0
    8.9246   26.9001    5.6119 Cl  0  0  0  0  0  0  0  0  0  0  0  0
    8.1633   24.3033    5.2742 C   0  0  0  0  0  0  0  0  0  0  0  0
    7.7983   23.2116    4.4934 C   0  0  0  0  0  0  0  0  0  0  0  0
 19 20  1  0  0  0
 20  1  1  0  0  0
  1  2  2  0  0  0
  2  3  1  0  0  0
  3  4  1  0  0  0
  3  5  2  0  0  0
  5  9  1  0  0  0
  9 10  2  0  0  0
  9 11  2  0  0  0
  9 12  1  0  0  0
 12 14  1  0  0  0
 14 15  2  0  0  0
 15 16  1  0  0  0
 16 17  1  0  0  0
 17 18  2  0  0  0
  5  6  1  0  0  0
  6  7  2  0  0  0
  7  8  1  0  0  0
 20 21  1  0  0  0
 21 22  1  0  0  0
 22 23  1  0  0  0
 23 24  1  0  0  0
 24 26  1  0  0  0
 26 27  1  0  0  0
 27 28  2  0  0  0
 28 29  1  0  0  0
 29 30  2  0  0  0
 30 31  1  0  0  0
 30 32  1  0  0  0
 32 33  2  0  0  0
 24 25  1  0  0  0
  7  1  1  0  0  0
 25 21  1  0  0  0
 18 14  1  0  0  0
 33 27  1  0  0  0
 12 13  1  0  0  0
M  END
> <minimizedAffinity>
-7.27276

> <CNNscore>
0.3451310992

> <CNNaffinity>
7.4526109695

> <CNN_VS>
2.5721278191

> <CNNaffinity_variance>
0.0849315375

$$$$
[H]c1nc(N([H])S(=O)(=O)c2c([H])c(Cl)c(N(C([H])([H])[H])[C@]3([H])C([H])([H])N(C([H])([H])c4c([H])c([H])c(Cl)c([H])c4[H])C([H])([H])C3([H])[H])c([H])c2F)c([H])s1


 33 36  0  0  0  0  0  0  0  0999 V2000
    9.5868   21.5040   -0.8549 C   0  0  0  0  0  0  0  0  0  0  0  0
    9.8088   22.8345   -1.1384 C   0  0  0  0  0  0  0  0  0  0  0  0
   11.0330   23.4250   -0.9213 C   0  0  0  0  0  0  0  0  0  0  0  0
   11.2398   24.7458   -1.2069 F   0  0  0  0  0  0  0  0  0  0  0  0
   12.1144   22.7070   -0.4026 C   0  0  0  0  0  0  0  0  0  0  0  0
   11.8835   21.3792   -0.1231 C   0  0  0  0  0  0  0  0  0  0  0  0
   10.6540   20.7956   -0.3433 C   0  0  0  0  0  0  0  0  0  0  0  0
   10.3980   19.0838    0.0305 Cl  0  0  0  0  0  0  0  0  0  0  0  0
   13.6578   23.4983   -0.1691 S   0  0  0  0  0  0  0  0  0  0  0  0
   14.3992   22.6747    0.8681 O   0  0  0  0  0  0  0  0  0  0  0  0
   13.4989   24.8683    0.3972 O   0  0  0  0  0  0  0  0  0  0  0  0
   14.6294   23.5254   -1.5721 N   0  0  0  0  0  0  0  0  0  0  0  0
   15.2265   22.6914   -1.7539 H   0  0  0  0  0  0  0  0  0  0  0  0
   14.6488   24.6510   -2.4985 C   0  0  0  0  0  0  0  0  0  0  0  0
   15.8374   25.1494   -2.9820 C   0  0  0  0  0  0  0  0  0  0  0  0
   15.2941   26.4155   -3.9890 S   0  0  0  0  0  0  0  0  0  0  0  0
   13.6148   26.2409   -3.7412 C   0  0  0  0  0  0  0  0  0  0  0  0
   13.5593   25.2232   -2.9012 N   0  0  0  0  0  0  0  0  0  0  0  0
    8.1877   19.9178   -2.1522 C   0  0  0  0  0  0  0  0  0  0  0  0
    8.3400   20.8670   -1.0662 N   0  0  0  0  0  0  0  0  0  0  0  0
    7.2132   21.1326   -0.2336 C   0  0  0  0  0  0  0  0  0  0  0  0
    6.6726   19.9050    0.4707 C   0  0  0  0  0  0  0  0  0  0  0  0
    5.8339   20.5604    1.5626 C   0  0  0  0  0  0  0  0  0  0  0  0
    6.5896   21.6998    1.9750 N   0  0  0  0  0  0  0  0  0  0  0  0
    7.5746   21.9992    0.9812 C   0  0  0  0  0  0  0  0  0  0  0  0
    7.1084   21.4869    3.2928 C   0  0  0  0  0  0  0  0  0  0  0  0
    7.4805   22.7946    3.8853 C   0  0  0  0  0  0  0  0  0  0  0  0
    8.7971   23.2537    3.7736 C   0  0  0  0  0  0  0  0  0  0  0  0
    9.2044   24.4614    4.2966 C   0  0  0  0  0  0  0  0  0  0  0  0
    8.3026   25.2630    4.9568 C   0  0  0  0  0  0  0  0  0  0  0  0
    8.8432   26.7920    5.6124 Cl  0  0  0  0  0  0  0  0  0  0  0  0
    7.0041   24.8482    5.0870 C   0  0  0  0  0  0  0  0  0  0  0  0
    6.6137   23.6253    4.5514 C   0  0  0  0  0  0  0  0  0  0  0  0
 19 20  1  0  0  0
 20  1  1  0  0  0
  1  2  2  0  0  0
  2  3  1  0  0  0
  3  4  1  0  0  0
  3  5  2  0  0  0
  5  9  1  0  0  0
  9 10  2  0  0  0
  9 11  2  0  0  0
  9 12  1  0  0  0
 12 14  1  0  0  0
 14 15  2  0  0  0
 15 16  1  0  0  0
 16 17  1  0  0  0
 17 18  2  0  0  0
  5  6  1  0  0  0
  6  7  2  0  0  0
  7  8  1  0  0  0
 20 21  1  0  0  0
 21 22  1  0  0  0
 22 23  1  0  0  0
 23 24  1  0  0  0
 24 26  1  0  0  0
 26 27  1  0  0  0
 27 28  2  0  0  0
 28 29  1  0  0  0
 29 30  2  0  0  0
 30 31  1  0  0  0
 30 32  1  0  0  0
 32 33  2  0  0  0
 24 25  1  0  0  0
  7  1  1  0  0  0
 25 21  1  0  0  0
 18 14  1  0  0  0
 33 27  1  0  0  0
 12 13  1  0  0  0
M  END
> <minimizedAffinity>
-6.19487

> <CNNscore>
0.2339978367

> <CNNaffinity>
7.1193609238

> <CNN_VS>
1.6659150124

> <CNNaffinity_variance>
0.0435584560

$$$$
[H]c1nc(N([H])S(=O)(=O)c2c([H])c(Cl)c(N(C([H])([H])[H])[C@]3([H])C([H])([H])N(C([H])([H])c4c([H])c([H])c(Cl)c([H])c4[H])C([H])([H])C3([H])[H])c([H])c2F)c([H])s1


 33 36  0  0  0  0  0  0  0  0999 V2000
   12.4537   22.3788    0.6979 C   0  0  0  0  0  0  0  0  0  0  0  0
   13.2546   23.4981    0.7735 C   0  0  0  0  0  0  0  0  0  0  0  0
   13.9884   23.9356   -0.3056 C   0  0  0  0  0  0  0  0  0  0  0  0
   14.7789   25.0475   -0.2172 F   0  0  0  0  0  0  0  0  0  0  0  0
   13.9600   23.2685   -1.5337 C   0  0  0  0  0  0  0  0  0  0  0  0
   13.1572   22.1525   -1.5999 C   0  0  0  0  0  0  0  0  0  0  0  0
   12.4255   21.7208   -0.5140 C   0  0  0  0  0  0  0  0  0  0  0  0
   11.4051   20.2792   -0.6405 Cl  0  0  0  0  0  0  0  0  0  0  0  0
   14.8919   23.8804   -2.8827 S   0  0  0  0  0  0  0  0  0  0  0  0
   14.9763   22.7435   -3.8847 O   0  0  0  0  0  0  0  0  0  0  0  0
   16.2898   24.2138   -2.4857 O   0  0  0  0  0  0  0  0  0  0  0  0
   14.1530   25.1954   -3.6815 N   0  0  0  0  0  0  0  0  0  0  0  0
   13.1368   25.3468   -3.5096 H   0  0  0  0  0  0  0  0  0  0  0  0
   14.8819   26.0889   -4.5737 C   0  0  0  0  0  0  0  0  0  0  0  0
   15.0451   25.7809   -5.9053 C   0  0  0  0  0  0  0  0  0  0  0  0
   15.9413   27.1229   -6.4605 S   0  0  0  0  0  0  0  0  0  0  0  0
   16.0547   27.9839   -4.9916 C   0  0  0  0  0  0  0  0  0  0  0  0
   15.4008   27.1987   -4.1547 N   0  0  0  0  0  0  0  0  0  0  0  0
   12.1855   20.8084    2.6000 C   0  0  0  0  0  0  0  0  0  0  0  0
   11.6871   21.9027    1.7890 N   0  0  0  0  0  0  0  0  0  0  0  0
   10.4229   22.4727    2.1208 C   0  0  0  0  0  0  0  0  0  0  0  0
   10.1242   23.7634    1.3861 C   0  0  0  0  0  0  0  0  0  0  0  0
    8.6164   23.8565    1.5938 C   0  0  0  0  0  0  0  0  0  0  0  0
    8.1453   22.5125    1.4884 N   0  0  0  0  0  0  0  0  0  0  0  0
    9.2475   21.6120    1.6359 C   0  0  0  0  0  0  0  0  0  0  0  0
    7.3957   22.3545    0.2785 C   0  0  0  0  0  0  0  0  0  0  0  0
    6.9510   20.9443    0.1634 C   0  0  0  0  0  0  0  0  0  0  0  0
    7.4982   20.1266   -0.8308 C   0  0  0  0  0  0  0  0  0  0  0  0
    7.1318   18.8076   -0.9860 C   0  0  0  0  0  0  0  0  0  0  0  0
    6.1962   18.2513   -0.1452 C   0  0  0  0  0  0  0  0  0  0  0  0
    5.7471   16.5746   -0.3617 Cl  0  0  0  0  0  0  0  0  0  0  0  0
    5.6374   19.0197    0.8409 C   0  0  0  0  0  0  0  0  0  0  0  0
    6.0214   20.3493    0.9802 C   0  0  0  0  0  0  0  0  0  0  0  0
 19 20  1  0  0  0
 20  1  1  0  0  0
  1  2  2  0  0  0
  2  3  1  0  0  0
  3  4  1  0  0  0
  3  5  2  0  0  0
  5  9  1  0  0  0
  9 10  2  0  0  0
  9 11  2  0  0  0
  9 12  1  0  0  0
 12 14  1  0  0  0
 14 15  2  0  0  0
 15 16  1  0  0  0
 16 17  1  0  0  0
 17 18  2  0  0  0
  5  6  1  0  0  0
  6  7  2  0  0  0
  7  8  1  0  0  0
 20 21  1  0  0  0
 21 22  1  0  0  0
 22 23  1  0  0  0
 23 24  1  0  0  0
 24 26  1  0  0  0
 26 27  1  0  0  0
 27 28  2  0  0  0
 28 29  1  0  0  0
 29 30  2  0  0  0
 30 31  1  0  0  0
 30 32  1  0  0  0
 32 33  2  0  0  0
 24 25  1  0  0  0
  7  1  1  0  0  0
 25 21  1  0  0  0
 18 14  1  0  0  0
 33 27  1  0  0  0
 12 13  1  0  0  0
M  END
> <minimizedAffinity>
-7.60227

> <CNNscore>
0.2185847014

> <CNNaffinity>
7.2468442917

> <CNN_VS>
1.5840493441

> <CNNaffinity_variance>
0.2492492199

$$$$
[H]c1nc(N([H])S(=O)(=O)c2c([H])c(Cl)c(N(C([H])([H])[H])[C@]3([H])C([H])([H])N(C([H])([H])c4c([H])c([H])c(Cl)c([H])c4[H])C([H])([H])C3([H])[H])c([H])c2F)c([H])s1


 33 36  0  0  0  0  0  0  0  0999 V2000
   10.5033   22.6610    0.4007 C   0  0  0  0  0  0  0  0  0  0  0  0
   10.8288   24.0000    0.3675 C   0  0  0  0  0  0  0  0  0  0  0  0
   11.9104   24.4631   -0.3467 C   0  0  0  0  0  0  0  0  0  0  0  0
   12.2221   25.7940   -0.3712 F   0  0  0  0  0  0  0  0  0  0  0  0
   12.7348   23.6007   -1.0752 C   0  0  0  0  0  0  0  0  0  0  0  0
   12.4017   22.2658   -1.0366 C   0  0  0  0  0  0  0  0  0  0  0  0
   11.3166   21.8101   -0.3184 C   0  0  0  0  0  0  0  0  0  0  0  0
   10.9226   20.0840   -0.2940 Cl  0  0  0  0  0  0  0  0  0  0  0  0
   14.0828   24.2432   -1.9876 S   0  0  0  0  0  0  0  0  0  0  0  0
   14.4504   23.1753   -3.0017 O   0  0  0  0  0  0  0  0  0  0  0  0
   15.2825   24.4573   -1.1287 O   0  0  0  0  0  0  0  0  0  0  0  0
   13.7003   25.6552   -2.8668 N   0  0  0  0  0  0  0  0  0  0  0  0
   12.7561   26.0687   -2.7161 H   0  0  0  0  0  0  0  0  0  0  0  0
   14.6302   26.2829   -3.7979 C   0  0  0  0  0  0  0  0  0  0  0  0
   14.3465   26.3516   -5.1431 C   0  0  0  0  0  0  0  0  0  0  0  0
   15.7255   27.1578   -5.7437 S   0  0  0  0  0  0  0  0  0  0  0  0
   16.5692   27.3576   -4.2739 C   0  0  0  0  0  0  0  0  0  0  0  0
   15.7507   26.7969   -3.4020 N   0  0  0  0  0  0  0  0  0  0  0  0
    8.0656   22.2259    0.5578 C   0  0  0  0  0  0  0  0  0  0  0  0
    9.3982   22.1526    1.1255 N   0  0  0  0  0  0  0  0  0  0  0  0
    9.5558   21.5626    2.4140 C   0  0  0  0  0  0  0  0  0  0  0  0
   10.8300   21.9753    3.1220 C   0  0  0  0  0  0  0  0  0  0  0  0
   10.4920   21.5748    4.5540 C   0  0  0  0  0  0  0  0  0  0  0  0
    9.1097   21.8974    4.7113 N   0  0  0  0  0  0  0  0  0  0  0  0
    8.5146   22.0706    3.4216 C   0  0  0  0  0  0  0  0  0  0  0  0
    8.9699   23.0160    5.5947 C   0  0  0  0  0  0  0  0  0  0  0  0
    8.4595   24.1788    4.8287 C   0  0  0  0  0  0  0  0  0  0  0  0
    7.0883   24.4552    4.8250 C   0  0  0  0  0  0  0  0  0  0  0  0
    6.5525   25.5230    4.1388 C   0  0  0  0  0  0  0  0  0  0  0  0
    7.3749   26.3623    3.4240 C   0  0  0  0  0  0  0  0  0  0  0  0
    6.6716   27.7114    2.5607 Cl  0  0  0  0  0  0  0  0  0  0  0  0
    8.7234   26.1248    3.4032 C   0  0  0  0  0  0  0  0  0  0  0  0
    9.2437   25.0412    4.1030 C   0  0  0  0  0  0  0  0  0  0  0  0
 19 20  1  0  0  0
 20  1  1  0  0  0
  1  2  2  0  0  0
  2  3  1  0  0  0
  3  4  1  0  0  0
  3  5  2  0  0  0
  5  9  1  0  0  0
  9 10  2  0  0  0
  9 11  2  0  0  0
  9 12  1  0  0  0
 12 14  1  0  0  0
 14 15  2  0  0  0
 15 16  1  0  0  0
 16 17  1  0  0  0
 17 18  2  0  0  0
  5  6  1  0  0  0
  6  7  2  0  0  0
  7  8  1  0  0  0
 20 21  1  0  0  0
 21 22  1  0  0  0
 22 23  1  0  0  0
 23 24  1  0  0  0
 24 26  1  0  0  0
 26 27  1  0  0  0
 27 28  2  0  0  0
 28 29  1  0  0  0
 29 30  2  0  0  0
 30 31  1  0  0  0
 30 32  1  0  0  0
 32 33  2  0  0  0
 24 25  1  0  0  0
  7  1  1  0  0  0
 25 21  1  0  0  0
 18 14  1  0  0  0
 33 27  1  0  0  0
 12 13  1  0  0  0
M  END
> <minimizedAffinity>
-8.42571

> <CNNscore>
0.2134610265

> <CNNaffinity>
6.9022903442

> <CNN_VS>
1.4733699560

> <CNNaffinity_variance>
0.3713887334

$$$$
[H]c1nc(N([H])S(=O)(=O)c2c([H])c(Cl)c(N(C([H])([H])[H])[C@]3([H])C([H])([H])N(C([H])([H])c4c([H])c([H])c(Cl)c([H])c4[H])C([H])([H])C3([H])[H])c([H])c2F)c([H])s1


 33 36  0  0  0  0  0  0  0  0999 V2000
   10.3104   22.5463    1.5380 C   0  0  0  0  0  0  0  0  0  0  0  0
   10.5642   23.8131    1.0576 C   0  0  0  0  0  0  0  0  0  0  0  0
   11.8190   24.1869    0.6332 C   0  0  0  0  0  0  0  0  0  0  0  0
   12.0571   25.4468    0.1588 F   0  0  0  0  0  0  0  0  0  0  0  0
   12.9009   23.3023    0.6670 C   0  0  0  0  0  0  0  0  0  0  0  0
   12.6378   22.0397    1.1476 C   0  0  0  0  0  0  0  0  0  0  0  0
   11.3779   21.6734    1.5710 C   0  0  0  0  0  0  0  0  0  0  0  0
   11.0815   20.0387    2.1835 Cl  0  0  0  0  0  0  0  0  0  0  0  0
   14.4708   23.8191    0.0919 S   0  0  0  0  0  0  0  0  0  0  0  0
   15.4825   22.8972    0.7479 O   0  0  0  0  0  0  0  0  0  0  0  0
   14.7954   25.2052    0.5349 O   0  0  0  0  0  0  0  0  0  0  0  0
   14.6670   23.6547   -1.5956 N   0  0  0  0  0  0  0  0  0  0  0  0
   14.8361   22.6951   -1.9641 H   0  0  0  0  0  0  0  0  0  0  0  0
   14.6072   24.7868   -2.5123 C   0  0  0  0  0  0  0  0  0  0  0  0
   15.7425   25.2541   -3.1349 C   0  0  0  0  0  0  0  0  0  0  0  0
   15.1190   26.5438   -4.0623 S   0  0  0  0  0  0  0  0  0  0  0  0
   13.4779   26.4166   -3.6122 C   0  0  0  0  0  0  0  0  0  0  0  0
   13.4946   25.3940   -2.7764 N   0  0  0  0  0  0  0  0  0  0  0  0
    8.1194   21.4855    1.0577 C   0  0  0  0  0  0  0  0  0  0  0  0
    9.0318   22.1307    1.9823 N   0  0  0  0  0  0  0  0  0  0  0  0
    8.6065   22.3289    3.3288 C   0  0  0  0  0  0  0  0  0  0  0  0
    9.7477   22.4333    4.3197 C   0  0  0  0  0  0  0  0  0  0  0  0
    9.0267   23.0660    5.5051 C   0  0  0  0  0  0  0  0  0  0  0  0
    8.1143   24.0002    4.9267 N   0  0  0  0  0  0  0  0  0  0  0  0
    7.9457   23.6989    3.5381 C   0  0  0  0  0  0  0  0  0  0  0  0
    8.5466   25.3368    5.2053 C   0  0  0  0  0  0  0  0  0  0  0  0
    7.6017   26.2931    4.5791 C   0  0  0  0  0  0  0  0  0  0  0  0
    8.0826   27.2495    3.6787 C   0  0  0  0  0  0  0  0  0  0  0  0
    7.2561   28.1613    3.0594 C   0  0  0  0  0  0  0  0  0  0  0  0
    5.9055   28.1512    3.3191 C   0  0  0  0  0  0  0  0  0  0  0  0
    4.8762   29.3187    2.5208 Cl  0  0  0  0  0  0  0  0  0  0  0  0
    5.3964   27.2299    4.1951 C   0  0  0  0  0  0  0  0  0  0  0  0
    6.2484   26.3182    4.8096 C   0  0  0  0  0  0  0  0  0  0  0  0
 19 20  1  0  0  0
 20  1  1  0  0  0
  1  2  2  0  0  0
  2  3  1  0  0  0
  3  4  1  0  0  0
  3  5  2  0  0  0
  5  9  1  0  0  0
  9 10  2  0  0  0
  9 11  2  0  0  0
  9 12  1  0  0  0
 12 14  1  0  0  0
 14 15  2  0  0  0
 15 16  1  0  0  0
 16 17  1  0  0  0
 17 18  2  0  0  0
  5  6  1  0  0  0
  6  7  2  0  0  0
  7  8  1  0  0  0
 20 21  1  0  0  0
 21 22  1  0  0  0
 22 23  1  0  0  0
 23 24  1  0  0  0
 24 26  1  0  0  0
 26 27  1  0  0  0
 27 28  2  0  0  0
 28 29  1  0  0  0
 29 30  2  0  0  0
 30 31  1  0  0  0
 30 32  1  0  0  0
 32 33  2  0  0  0
 24 25  1  0  0  0
  7  1  1  0  0  0
 25 21  1  0  0  0
 18 14  1  0  0  0
 33 27  1  0  0  0
 12 13  1  0  0  0
M  END
> <minimizedAffinity>
-8.24514

> <CNNscore>
0.1768629700

> <CNNaffinity>
7.1196928024

> <CNN_VS>
1.2592099905

> <CNNaffinity_variance>
0.1103908047

$$$$
[H]c1nc(N([H])S(=O)(=O)c2c([H])c(Cl)c(N(C([H])([H])[H])[C@]3([H])C([H])([H])N(C([H])([H])c4c([H])c([H])c(Cl)c([H])c4[H])C([H])([H])C3([H])[H])c([H])c2F)c([H])s1


 33 36  0  0  0  0  0  0  0  0999 V2000
    8.7594   21.5325    3.1045 C   0  0  0  0  0  0  0  0  0  0  0  0
    8.3708   21.4187    1.7869 C   0  0  0  0  0  0  0  0  0  0  0  0
    9.2902   21.3801    0.7633 C   0  0  0  0  0  0  0  0  0  0  0  0
    8.8912   21.2670   -0.5394 F   0  0  0  0  0  0  0  0  0  0  0  0
   10.6648   21.4541    1.0059 C   0  0  0  0  0  0  0  0  0  0  0  0
   11.0434   21.5670    2.3244 C   0  0  0  0  0  0  0  0  0  0  0  0
   10.1159   21.6053    3.3438 C   0  0  0  0  0  0  0  0  0  0  0  0
   10.6445   21.7520    5.0273 Cl  0  0  0  0  0  0  0  0  0  0  0  0
   11.7936   21.3749   -0.3291 S   0  0  0  0  0  0  0  0  0  0  0  0
   11.4282   22.5195   -1.2564 O   0  0  0  0  0  0  0  0  0  0  0  0
   11.6394   20.1156   -1.1123 O   0  0  0  0  0  0  0  0  0  0  0  0
   13.4187   21.6099    0.1370 N   0  0  0  0  0  0  0  0  0  0  0  0
   13.9041   20.8085    0.5920 H   0  0  0  0  0  0  0  0  0  0  0  0
   14.1285   22.8654   -0.0765 C   0  0  0  0  0  0  0  0  0  0  0  0
   14.7428   23.1356   -1.2783 C   0  0  0  0  0  0  0  0  0  0  0  0
   15.3976   24.6846   -0.9882 S   0  0  0  0  0  0  0  0  0  0  0  0
   14.8614   24.8956    0.6180 C   0  0  0  0  0  0  0  0  0  0  0  0
   14.2098   23.7696    0.8466 N   0  0  0  0  0  0  0  0  0  0  0  0
    7.9755   20.6465    5.2855 C   0  0  0  0  0  0  0  0  0  0  0  0
    7.8394   21.5754    4.1800 N   0  0  0  0  0  0  0  0  0  0  0  0
    6.7681   22.5159    4.2114 C   0  0  0  0  0  0  0  0  0  0  0  0
    6.3465   22.9134    5.6112 C   0  0  0  0  0  0  0  0  0  0  0  0
    5.5621   24.1864    5.3121 C   0  0  0  0  0  0  0  0  0  0  0  0
    6.2884   24.8302    4.2645 N   0  0  0  0  0  0  0  0  0  0  0  0
    7.1775   23.8879    3.6568 C   0  0  0  0  0  0  0  0  0  0  0  0
    6.9173   26.0147    4.7669 C   0  0  0  0  0  0  0  0  0  0  0  0
    6.4565   27.1818    3.9764 C   0  0  0  0  0  0  0  0  0  0  0  0
    7.2428   27.6548    2.9207 C   0  0  0  0  0  0  0  0  0  0  0  0
    6.8679   28.7300    2.1453 C   0  0  0  0  0  0  0  0  0  0  0  0
    5.6818   29.3787    2.3982 C   0  0  0  0  0  0  0  0  0  0  0  0
    5.2270   30.7414    1.4002 Cl  0  0  0  0  0  0  0  0  0  0  0  0
    4.8840   28.9455    3.4235 C   0  0  0  0  0  0  0  0  0  0  0  0
    5.2814   27.8578    4.1942 C   0  0  0  0  0  0  0  0  0  0  0  0
 19 20  1  0  0  0
 20  1  1  0  0  0
  1  2  2  0  0  0
  2  3  1  0  0  0
  3  4  1  0  0  0
  3  5  2  0  0  0
  5  9  1  0  0  0
  9 10  2  0  0  0
  9 11  2  0  0  0
  9 12  1  0  0  0
 12 14  1  0  0  0
 14 15  2  0  0  0
 15 16  1  0  0  0
 16 17  1  0  0  0
 17 18  2  0  0  0
  5  6  1  0  0  0
  6  7  2  0  0  0
  7  8  1  0  0  0
 20 21  1  0  0  0
 21 22  1  0  0  0
 22 23  1  0  0  0
 23 24  1  0  0  0
 24 26  1  0  0  0
 26 27  1  0  0  0
 27 28  2  0  0  0
 28 29  1  0  0  0
 29 30  2  0  0  0
 30 31  1  0  0  0
 30 32  1  0  0  0
 32 33  2  0  0  0
 24 25  1  0  0  0
  7  1  1  0  0  0
 25 21  1  0  0  0
 18 14  1  0  0  0
 33 27  1  0  0  0
 12 13  1  0  0  0
M  END
> <minimizedAffinity>
-6.70188

> <CNNscore>
0.1753567308

> <CNNaffinity>
6.6883330345

> <CNN_VS>
1.1728441715

> <CNNaffinity_variance>
0.7118921876

$$$$
[H]c1nc(N([H])S(=O)(=O)c2c([H])c(Cl)c(N(C([H])([H])[H])[C@]3([H])C([H])([H])N(C([H])([H])c4c([H])c([H])c(Cl)c([H])c4[H])C([H])([H])C3([H])[H])c([H])c2F)c([H])s1


 33 36  0  0  0  0  0  0  0  0999 V2000
    9.6646   23.3138    1.2239 C   0  0  0  0  0  0  0  0  0  0  0  0
    9.9408   24.4875    1.8919 C   0  0  0  0  0  0  0  0  0  0  0  0
    9.1650   24.9203    2.9431 C   0  0  0  0  0  0  0  0  0  0  0  0
    9.4500   26.0865    3.5971 F   0  0  0  0  0  0  0  0  0  0  0  0
    8.0573   24.1929    3.3883 C   0  0  0  0  0  0  0  0  0  0  0  0
    7.7897   23.0222    2.7158 C   0  0  0  0  0  0  0  0  0  0  0  0
    8.5718   22.5961    1.6634 C   0  0  0  0  0  0  0  0  0  0  0  0
    8.1929   21.0838    0.8239 Cl  0  0  0  0  0  0  0  0  0  0  0  0
    7.1183   24.7738    4.7460 S   0  0  0  0  0  0  0  0  0  0  0  0
    8.0683   25.6053    5.5885 O   0  0  0  0  0  0  0  0  0  0  0  0
    6.6390   23.6558    5.6080 O   0  0  0  0  0  0  0  0  0  0  0  0
    5.8273   25.7952    4.2952 N   0  0  0  0  0  0  0  0  0  0  0  0
    4.8650   25.4006    4.3543 H   0  0  0  0  0  0  0  0  0  0  0  0
    6.0256   27.1665    3.8416 C   0  0  0  0  0  0  0  0  0  0  0  0
    5.6257   28.2326    4.6150 C   0  0  0  0  0  0  0  0  0  0  0  0
    6.0823   29.5554    3.6382 S   0  0  0  0  0  0  0  0  0  0  0  0
    6.7443   28.6906    2.3244 C   0  0  0  0  0  0  0  0  0  0  0  0
    6.5807   27.4359    2.7033 N   0  0  0  0  0  0  0  0  0  0  0  0
   10.1100   23.2379   -1.2158 C   0  0  0  0  0  0  0  0  0  0  0  0
   10.4423   22.8413    0.1391 N   0  0  0  0  0  0  0  0  0  0  0  0
   11.5577   21.9757    0.3389 C   0  0  0  0  0  0  0  0  0  0  0  0
   12.1930   21.4925   -0.9488 C   0  0  0  0  0  0  0  0  0  0  0  0
   13.5405   21.0064   -0.4262 C   0  0  0  0  0  0  0  0  0  0  0  0
   13.9094   21.9512    0.5792 N   0  0  0  0  0  0  0  0  0  0  0  0
   12.7548   22.7001    0.9711 C   0  0  0  0  0  0  0  0  0  0  0  0
   15.0131   22.7408    0.1215 C   0  0  0  0  0  0  0  0  0  0  0  0
   14.5396   23.6747   -0.9287 C   0  0  0  0  0  0  0  0  0  0  0  0
   13.6656   24.7121   -0.5874 C   0  0  0  0  0  0  0  0  0  0  0  0
   13.1947   25.6156   -1.5147 C   0  0  0  0  0  0  0  0  0  0  0  0
   13.5836   25.5154   -2.8301 C   0  0  0  0  0  0  0  0  0  0  0  0
   12.9725   26.6742   -3.9893 Cl  0  0  0  0  0  0  0  0  0  0  0  0
   14.4385   24.5130   -3.2038 C   0  0  0  0  0  0  0  0  0  0  0  0
   14.9021   23.6113   -2.2515 C   0  0  0  0  0  0  0  0  0  0  0  0
 19 20  1  0  0  0
 20  1  1  0  0  0
  1  2  2  0  0  0
  2  3  1  0  0  0
  3  4  1  0  0  0
  3  5  2  0  0  0
  5  9  1  0  0  0
  9 10  2  0  0  0
  9 11  2  0  0  0
  9 12  1  0  0  0
 12 14  1  0  0  0
 14 15  2  0  0  0
 15 16  1  0  0  0
 16 17  1  0  0  0
 17 18  2  0  0  0
  5  6  1  0  0  0
  6  7  2  0  0  0
  7  8  1  0  0  0
 20 21  1  0  0  0
 21 22  1  0  0  0
 22 23  1  0  0  0
 23 24  1  0  0  0
 24 26  1  0  0  0
 26 27  1  0  0  0
 27 28  2  0  0  0
 28 29  1  0  0  0
 29 30  2  0  0  0
 30 31  1  0  0  0
 30 32  1  0  0  0
 32 33  2  0  0  0
 24 25  1  0  0  0
  7  1  1  0  0  0
 25 21  1  0  0  0
 18 14  1  0  0  0
 33 27  1  0  0  0
 12 13  1  0  0  0
M  END
> <minimizedAffinity>
-7.69097

> <CNNscore>
0.1660872698

> <CNNaffinity>
7.1375389099

> <CNN_VS>
1.1854543686

> <CNNaffinity_variance>
0.1208555922

$$$$
[H]OC1([H])C([H])([H])OC([H])([H])C([H])([H])C1(c1c([H])c([H])c(C(F)(F)F)c([H])c1F)N([H])C(=O)c1c([H])nn2c([H])c(C([H])([H])[H])c([H])nc12


 33 36  0  0  0  0  0  0  0  0999 V2000
   12.8044   23.8601   -0.8954 C   0  0  0  0  0  0  0  0  0  0  0  0
   12.8846   24.9441    0.0138 C   0  0  0  0  0  0  0  0  0  0  0  0
   13.7939   24.8384    1.2288 C   0  0  0  0  0  0  0  0  0  0  0  0
   14.5406   23.7285    1.3794 O   0  0  0  0  0  0  0  0  0  0  0  0
   14.9663   23.1362    0.2526 C   0  0  0  0  0  0  0  0  0  0  0  0
   14.1885   23.1677   -0.9789 C   0  0  0  0  0  0  0  0  0  0  0  0
   14.9774   23.7718   -1.9790 O   0  0  0  0  0  0  0  0  0  0  0  0
   15.4248   23.1181   -2.5290 H   0  0  0  0  0  0  0  0  0  0  0  0
   11.8491   22.7656   -0.8628 C   0  0  0  0  0  0  0  0  0  0  0  0
   10.6393   23.0302   -0.1972 C   0  0  0  0  0  0  0  0  0  0  0  0
    9.5803   22.1520   -0.1966 C   0  0  0  0  0  0  0  0  0  0  0  0
    9.6319   20.9608   -0.8416 C   0  0  0  0  0  0  0  0  0  0  0  0
   10.8174   20.6618   -1.5158 C   0  0  0  0  0  0  0  0  0  0  0  0
   11.8622   21.5690   -1.4969 C   0  0  0  0  0  0  0  0  0  0  0  0
   12.9758   21.1960   -2.1305 F   0  0  0  0  0  0  0  0  0  0  0  0
    8.4798   20.0307   -0.8770 C   0  0  0  0  0  0  0  0  0  0  0  0
    7.8517   20.0748   -2.1273 F   0  0  0  0  0  0  0  0  0  0  0  0
    8.9358   18.7628   -0.6010 F   0  0  0  0  0  0  0  0  0  0  0  0
    7.5467   20.2845    0.1256 F   0  0  0  0  0  0  0  0  0  0  0  0
   13.4054   25.5851   -2.5529 C   0  0  0  0  0  0  0  0  0  0  0  0
   14.1105   26.1077   -1.6418 O   0  0  0  0  0  0  0  0  0  0  0  0
   12.6690   24.3717   -2.2983 N   0  0  0  0  0  0  0  0  0  0  0  0
   12.1177   23.9589   -3.0305 H   0  0  0  0  0  0  0  0  0  0  0  0
   16.1665   25.6666   -8.6580 C   0  0  0  0  0  0  0  0  0  0  0  0
   15.4493   25.7691   -7.3374 C   0  0  0  0  0  0  0  0  0  0  0  0
   15.6196   24.8307   -6.3435 C   0  0  0  0  0  0  0  0  0  0  0  0
   14.9723   24.9426   -5.1682 N   0  0  0  0  0  0  0  0  0  0  0  0
   14.1513   25.9733   -4.9483 C   0  0  0  0  0  0  0  0  0  0  0  0
   13.4082   26.3006   -3.8028 C   0  0  0  0  0  0  0  0  0  0  0  0
   12.7758   27.4575   -4.1455 C   0  0  0  0  0  0  0  0  0  0  0  0
   13.1252   27.7918   -5.4063 N   0  0  0  0  0  0  0  0  0  0  0  0
   13.9667   26.8882   -5.8898 N   0  0  0  0  0  0  0  0  0  0  0  0
   14.5868   26.8345   -7.0955 C   0  0  0  0  0  0  0  0  0  0  0  0
 24 25  1  0  0  0
 25 26  1  0  0  0
 26 27  2  0  0  0
 27 28  1  0  0  0
 28 29  2  0  0  0
 29 20  1  0  0  0
 20 21  2  0  0  0
 20 22  1  0  0  0
 22  1  1  0  0  0
  1  9  1  0  0  0
  9 10  2  0  0  0
 10 11  1  0  0  0
 11 12  2  0  0  0
 12 16  1  0  0  0
 16 17  1  0  0  0
 16 18  1  0  0  0
 16 19  1  0  0  0
 12 13  1  0  0  0
 13 14  2  0  0  0
 14 15  1  0  0  0
  1  2  1  0  0  0
  2  3  1  0  0  0
  3  4  1  0  0  0
  4  5  1  0  0  0
  5  6  1  0  0  0
  6  7  1  0  0  0
 29 30  1  0  0  0
 30 31  2  0  0  0
 31 32  1  0  0  0
 32 33  1  0  0  0
 33 25  2  0  0  0
 32 28  1  0  0  0
  6  1  1  0  0  0
 14  9  1  0  0  0
 22 23  1  0  0  0
  7  8  1  0  0  0
M  END
> <minimizedAffinity>
-1.51904

> <CNNscore>
0.5243620872

> <CNNaffinity>
7.2414422035

> <CNN_VS>
3.7971377373

> <CNNaffinity_variance>
1.0496485233

$$$$
[H]OC1([H])C([H])([H])OC([H])([H])C([H])([H])C1(c1c([H])c([H])c(C(F)(F)F)c([H])c1F)N([H])C(=O)c1c([H])nn2c([H])c(C([H])([H])[H])c([H])nc12


 33 36  0  0  0  0  0  0  0  0999 V2000
   11.0192   23.7543    0.4513 C   0  0  0  0  0  0  0  0  0  0  0  0
    9.8030   23.2351   -0.0583 C   0  0  0  0  0  0  0  0  0  0  0  0
    8.7786   22.6466    0.9000 C   0  0  0  0  0  0  0  0  0  0  0  0
    9.0376   22.6821    2.2205 O   0  0  0  0  0  0  0  0  0  0  0  0
    9.7457   23.7327    2.6635 C   0  0  0  0  0  0  0  0  0  0  0  0
   10.7550   24.3870    1.8413 C   0  0  0  0  0  0  0  0  0  0  0  0
   10.3928   25.7421    1.7003 O   0  0  0  0  0  0  0  0  0  0  0  0
   10.8507   26.3055    2.3351 H   0  0  0  0  0  0  0  0  0  0  0  0
   12.2736   23.0376    0.6080 C   0  0  0  0  0  0  0  0  0  0  0  0
   12.1968   21.6387    0.4909 C   0  0  0  0  0  0  0  0  0  0  0  0
   13.3088   20.8289    0.4753 C   0  0  0  0  0  0  0  0  0  0  0  0
   14.5652   21.3285    0.5744 C   0  0  0  0  0  0  0  0  0  0  0  0
   14.6830   22.7148    0.6912 C   0  0  0  0  0  0  0  0  0  0  0  0
   13.5432   23.4994    0.7020 C   0  0  0  0  0  0  0  0  0  0  0  0
   13.7342   24.8111    0.8559 F   0  0  0  0  0  0  0  0  0  0  0  0
   15.7662   20.4638    0.5174 C   0  0  0  0  0  0  0  0  0  0  0  0
   16.8539   21.0932    1.1344 F   0  0  0  0  0  0  0  0  0  0  0  0
   15.4732   19.2711    1.1365 F   0  0  0  0  0  0  0  0  0  0  0  0
   16.1110   20.0991   -0.7819 F   0  0  0  0  0  0  0  0  0  0  0  0
   11.9851   24.6700   -1.6254 C   0  0  0  0  0  0  0  0  0  0  0  0
   12.0642   23.4731   -2.0272 O   0  0  0  0  0  0  0  0  0  0  0  0
   11.4297   24.9674   -0.3283 N   0  0  0  0  0  0  0  0  0  0  0  0
   11.3633   25.9220   -0.0202 H   0  0  0  0  0  0  0  0  0  0  0  0
   16.5262   25.6102   -6.4624 C   0  0  0  0  0  0  0  0  0  0  0  0
   15.4496   25.5478   -5.4108 C   0  0  0  0  0  0  0  0  0  0  0  0
   15.1524   24.3799   -4.7439 C   0  0  0  0  0  0  0  0  0  0  0  0
   14.1889   24.3459   -3.8040 N   0  0  0  0  0  0  0  0  0  0  0  0
   13.5042   25.4528   -3.5028 C   0  0  0  0  0  0  0  0  0  0  0  0
   12.4926   25.6511   -2.5494 C   0  0  0  0  0  0  0  0  0  0  0  0
   12.1824   26.9716   -2.6750 C   0  0  0  0  0  0  0  0  0  0  0  0
   12.9608   27.5161   -3.6347 N   0  0  0  0  0  0  0  0  0  0  0  0
   13.7677   26.5891   -4.1328 N   0  0  0  0  0  0  0  0  0  0  0  0
   14.7241   26.6916   -5.0898 C   0  0  0  0  0  0  0  0  0  0  0  0
 24 25  1  0  0  0
 25 26  1  0  0  0
 26 27  2  0  0  0
 27 28  1  0  0  0
 28 29  2  0  0  0
 29 20  1  0  0  0
 20 21  2  0  0  0
 20 22  1  0  0  0
 22  1  1  0  0  0
  1  9  1  0  0  0
  9 10  2  0  0  0
 10 11  1  0  0  0
 11 12  2  0  0  0
 12 16  1  0  0  0
 16 17  1  0  0  0
 16 18  1  0  0  0
 16 19  1  0  0  0
 12 13  1  0  0  0
 13 14  2  0  0  0
 14 15  1  0  0  0
  1  2  1  0  0  0
  2  3  1  0  0  0
  3  4  1  0  0  0
  4  5  1  0  0  0
  5  6  1  0  0  0
  6  7  1  0  0  0
 29 30  1  0  0  0
 30 31  2  0  0  0
 31 32  1  0  0  0
 32 33  1  0  0  0
 33 25  2  0  0  0
 32 28  1  0  0  0
  6  1  1  0  0  0
 14  9  1  0  0  0
 22 23  1  0  0  0
  7  8  1  0  0  0
M  END
> <minimizedAffinity>
-1.28409

> <CNNscore>
0.5128942728

> <CNNaffinity>
7.1683664322

> <CNN_VS>
3.6766140461

> <CNNaffinity_variance>
0.7753109932

$$$$
[H]OC1([H])C([H])([H])OC([H])([H])C([H])([H])C1(c1c([H])c([H])c(C(F)(F)F)c([H])c1F)N([H])C(=O)c1c([H])nn2c([H])c(C([H])([H])[H])c([H])nc12


 33 36  0  0  0  0  0  0  0  0999 V2000
   11.5522   23.2838   -0.3561 C   0  0  0  0  0  0  0  0  0  0  0  0
   10.5339   22.5517   -1.0158 C   0  0  0  0  0  0  0  0  0  0  0  0
    9.5405   21.7425   -0.1958 C   0  0  0  0  0  0  0  0  0  0  0  0
    9.6275   21.7862    1.1468 O   0  0  0  0  0  0  0  0  0  0  0  0
   10.0536   22.9412    1.6817 C   0  0  0  0  0  0  0  0  0  0  0  0
   11.0029   23.8074    0.9953 C   0  0  0  0  0  0  0  0  0  0  0  0
   10.3970   25.0683    0.8207 O   0  0  0  0  0  0  0  0  0  0  0  0
   10.6540   25.6904    1.5114 H   0  0  0  0  0  0  0  0  0  0  0  0
   12.8965   22.8240   -0.0511 C   0  0  0  0  0  0  0  0  0  0  0  0
   13.8242   23.8264    0.2822 C   0  0  0  0  0  0  0  0  0  0  0  0
   15.0952   23.5481    0.7294 C   0  0  0  0  0  0  0  0  0  0  0  0
   15.5442   22.2778    0.8789 C   0  0  0  0  0  0  0  0  0  0  0  0
   14.6510   21.2535    0.5588 C   0  0  0  0  0  0  0  0  0  0  0  0
   13.3796   21.5695    0.1132 C   0  0  0  0  0  0  0  0  0  0  0  0
   12.5970   20.5381   -0.2100 F   0  0  0  0  0  0  0  0  0  0  0  0
   16.8975   21.9739    1.3983 C   0  0  0  0  0  0  0  0  0  0  0  0
   17.7508   23.0685    1.2148 F   0  0  0  0  0  0  0  0  0  0  0  0
   16.7899   21.6532    2.7314 F   0  0  0  0  0  0  0  0  0  0  0  0
   17.4593   20.8392    0.8177 F   0  0  0  0  0  0  0  0  0  0  0  0
   12.7409   24.4743   -2.1600 C   0  0  0  0  0  0  0  0  0  0  0  0
   13.2510   23.3561   -2.4593 O   0  0  0  0  0  0  0  0  0  0  0  0
   11.8026   24.5784   -1.0700 N   0  0  0  0  0  0  0  0  0  0  0  0
   11.3960   25.4695   -0.8442 H   0  0  0  0  0  0  0  0  0  0  0  0
   18.1523   28.0633   -3.8149 C   0  0  0  0  0  0  0  0  0  0  0  0
   16.8559   27.3412   -3.5569 C   0  0  0  0  0  0  0  0  0  0  0  0
   16.7941   26.2233   -2.7546 C   0  0  0  0  0  0  0  0  0  0  0  0
   15.6244   25.5944   -2.5331 N   0  0  0  0  0  0  0  0  0  0  0  0
   14.4997   26.0504   -3.0916 C   0  0  0  0  0  0  0  0  0  0  0  0
   13.1831   25.5764   -2.9749 C   0  0  0  0  0  0  0  0  0  0  0  0
   12.4589   26.4367   -3.7436 C   0  0  0  0  0  0  0  0  0  0  0  0
   13.2911   27.3579   -4.2747 N   0  0  0  0  0  0  0  0  0  0  0  0
   14.5322   27.1222   -3.8712 N   0  0  0  0  0  0  0  0  0  0  0  0
   15.6766   27.8013   -4.1359 C   0  0  0  0  0  0  0  0  0  0  0  0
 24 25  1  0  0  0
 25 26  1  0  0  0
 26 27  2  0  0  0
 27 28  1  0  0  0
 28 29  2  0  0  0
 29 20  1  0  0  0
 20 21  2  0  0  0
 20 22  1  0  0  0
 22  1  1  0  0  0
  1  9  1  0  0  0
  9 10  2  0  0  0
 10 11  1  0  0  0
 11 12  2  0  0  0
 12 16  1  0  0  0
 16 17  1  0  0  0
 16 18  1  0  0  0
 16 19  1  0  0  0
 12 13  1  0  0  0
 13 14  2  0  0  0
 14 15  1  0  0  0
  1  2  1  0  0  0
  2  3  1  0  0  0
  3  4  1  0  0  0
  4  5  1  0  0  0
  5  6  1  0  0  0
  6  7  1  0  0  0
 29 30  1  0  0  0
 30 31  2  0  0  0
 31 32  1  0  0  0
 32 33  1  0  0  0
 33 25  2  0  0  0
 32 28  1  0  0  0
  6  1  1  0  0  0
 14  9  1  0  0  0
 22 23  1  0  0  0
  7  8  1  0  0  0
M  END
> <minimizedAffinity>
-3.86083

> <CNNscore>
0.5047755837

> <CNNaffinity>
7.4103493690

> <CNN_VS>
3.7405633926

> <CNNaffinity_variance>
0.7019639015

$$$$
[H]OC1([H])C([H])([H])OC([H])([H])C([H])([H])C1(c1c([H])c([H])c(C(F)(F)F)c([H])c1F)N([H])C(=O)c1c([H])nn2c([H])c(C([H])([H])[H])c([H])nc12


 33 36  0  0  0  0  0  0  0  0999 V2000
   14.8517   26.6600   -3.8244 C   0  0  0  0  0  0  0  0  0  0  0  0
   15.8506   27.6457   -3.6272 C   0  0  0  0  0  0  0  0  0  0  0  0
   17.1265   27.5966   -4.4542 C   0  0  0  0  0  0  0  0  0  0  0  0
   17.2488   26.6394   -5.3927 O   0  0  0  0  0  0  0  0  0  0  0  0
   16.1180   26.2513   -6.0028 C   0  0  0  0  0  0  0  0  0  0  0  0
   14.8309   26.2544   -5.3202 C   0  0  0  0  0  0  0  0  0  0  0  0
   13.9555   27.0919   -6.0412 O   0  0  0  0  0  0  0  0  0  0  0  0
   13.3941   26.5918   -6.6451 H   0  0  0  0  0  0  0  0  0  0  0  0
   14.7119   25.4061   -3.1034 C   0  0  0  0  0  0  0  0  0  0  0  0
   13.6504   25.3454   -2.1835 C   0  0  0  0  0  0  0  0  0  0  0  0
   13.2984   24.1897   -1.5253 C   0  0  0  0  0  0  0  0  0  0  0  0
   13.9576   23.0211   -1.7190 C   0  0  0  0  0  0  0  0  0  0  0  0
   15.0183   23.0406   -2.6268 C   0  0  0  0  0  0  0  0  0  0  0  0
   15.3441   24.2204   -3.2723 C   0  0  0  0  0  0  0  0  0  0  0  0
   16.3935   24.1696   -4.0950 F   0  0  0  0  0  0  0  0  0  0  0  0
   13.5563   21.7659   -1.0429 C   0  0  0  0  0  0  0  0  0  0  0  0
   12.4289   21.9792   -0.2410 F   0  0  0  0  0  0  0  0  0  0  0  0
   13.3023   20.8159   -2.0045 F   0  0  0  0  0  0  0  0  0  0  0  0
   14.5788   21.2118   -0.2763 F   0  0  0  0  0  0  0  0  0  0  0  0
   13.4418   28.6754   -4.0103 C   0  0  0  0  0  0  0  0  0  0  0  0
   14.4844   29.2770   -4.3993 O   0  0  0  0  0  0  0  0  0  0  0  0
   13.4893   27.2708   -3.6873 N   0  0  0  0  0  0  0  0  0  0  0  0
   12.6543   26.7988   -3.3867 H   0  0  0  0  0  0  0  0  0  0  0  0
    7.1263   29.2459   -6.1763 C   0  0  0  0  0  0  0  0  0  0  0  0
    8.5149   29.2452   -5.5928 C   0  0  0  0  0  0  0  0  0  0  0  0
    9.3995   28.2150   -5.8237 C   0  0  0  0  0  0  0  0  0  0  0  0
   10.6381   28.2352   -5.2962 N   0  0  0  0  0  0  0  0  0  0  0  0
   11.0289   29.2628   -4.5372 C   0  0  0  0  0  0  0  0  0  0  0  0
   12.2666   29.5028   -3.9192 C   0  0  0  0  0  0  0  0  0  0  0  0
   12.0924   30.7028   -3.2985 C   0  0  0  0  0  0  0  0  0  0  0  0
   10.8383   31.1427   -3.5374 N   0  0  0  0  0  0  0  0  0  0  0  0
   10.1955   30.2653   -4.2961 N   0  0  0  0  0  0  0  0  0  0  0  0
    8.9347   30.3065   -4.7958 C   0  0  0  0  0  0  0  0  0  0  0  0
 24 25  1  0  0  0
 25 26  1  0  0  0
 26 27  2  0  0  0
 27 28  1  0  0  0
 28 29  2  0  0  0
 29 20  1  0  0  0
 20 21  2  0  0  0
 20 22  1  0  0  0
 22  1  1  0  0  0
  1  9  1  0  0  0
  9 10  2  0  0  0
 10 11  1  0  0  0
 11 12  2  0  0  0
 12 16  1  0  0  0
 16 17  1  0  0  0
 16 18  1  0  0  0
 16 19  1  0  0  0
 12 13  1  0  0  0
 13 14  2  0  0  0
 14 15  1  0  0  0
  1  2  1  0  0  0
  2  3  1  0  0  0
  3  4  1  0  0  0
  4  5  1  0  0  0
  5  6  1  0  0  0
  6  7  1  0  0  0
 29 30  1  0  0  0
 30 31  2  0  0  0
 31 32  1  0  0  0
 32 33  1  0  0  0
 33 25  2  0  0  0
 32 28  1  0  0  0
  6  1  1  0  0  0
 14  9  1  0  0  0
 22 23  1  0  0  0
  7  8  1  0  0  0
M  END
> <minimizedAffinity>
14.48968

> <CNNscore>
0.4673791528

> <CNNaffinity>
6.7597322464

> <CNN_VS>
3.1593580246

> <CNNaffinity_variance>
0.4841688275

$$$$
[H]OC1([H])C([H])([H])OC([H])([H])C([H])([H])C1(c1c([H])c([H])c(C(F)(F)F)c([H])c1F)N([H])C(=O)c1c([H])nn2c([H])c(C([H])([H])[H])c([H])nc12


 33 36  0  0  0  0  0  0  0  0999 V2000
   15.0559   26.4448   -4.1912 C   0  0  0  0  0  0  0  0  0  0  0  0
   15.0236   25.3959   -5.1435 C   0  0  0  0  0  0  0  0  0  0  0  0
   15.6188   25.6189   -6.5256 C   0  0  0  0  0  0  0  0  0  0  0  0
   16.2090   26.7997   -6.7894 O   0  0  0  0  0  0  0  0  0  0  0  0
   16.8255   27.4036   -5.7613 C   0  0  0  0  0  0  0  0  0  0  0  0
   16.3548   27.2668   -4.3893 C   0  0  0  0  0  0  0  0  0  0  0  0
   17.4018   26.7188   -3.6205 O   0  0  0  0  0  0  0  0  0  0  0  0
   17.9023   27.3997   -3.1559 H   0  0  0  0  0  0  0  0  0  0  0  0
   14.0242   27.4413   -3.9587 C   0  0  0  0  0  0  0  0  0  0  0  0
   14.4381   28.7819   -4.0490 C   0  0  0  0  0  0  0  0  0  0  0  0
   13.5599   29.8395   -3.9934 C   0  0  0  0  0  0  0  0  0  0  0  0
   12.2245   29.6598   -3.8446 C   0  0  0  0  0  0  0  0  0  0  0  0
   11.7739   28.3416   -3.7522 C   0  0  0  0  0  0  0  0  0  0  0  0
   12.6849   27.3017   -3.8135 C   0  0  0  0  0  0  0  0  0  0  0  0
   12.1835   26.0725   -3.6788 F   0  0  0  0  0  0  0  0  0  0  0  0
   11.2720   30.7938   -3.8248 C   0  0  0  0  0  0  0  0  0  0  0  0
   10.0001   30.3737   -4.2317 F   0  0  0  0  0  0  0  0  0  0  0  0
   11.2346   31.3082   -2.5498 F   0  0  0  0  0  0  0  0  0  0  0  0
   11.6865   31.8644   -4.6136 F   0  0  0  0  0  0  0  0  0  0  0  0
   14.6885   24.5970   -2.5990 C   0  0  0  0  0  0  0  0  0  0  0  0
   14.0571   24.0197   -3.5309 O   0  0  0  0  0  0  0  0  0  0  0  0
   15.2902   25.8890   -2.8185 N   0  0  0  0  0  0  0  0  0  0  0  0
   15.7970   26.3369   -2.0748 H   0  0  0  0  0  0  0  0  0  0  0  0
   11.3251   20.1272    1.0902 C   0  0  0  0  0  0  0  0  0  0  0  0
   12.2003   21.1204    0.3716 C   0  0  0  0  0  0  0  0  0  0  0  0
   11.9000   21.5702   -0.8951 C   0  0  0  0  0  0  0  0  0  0  0  0
   12.6932   22.4616   -1.5189 N   0  0  0  0  0  0  0  0  0  0  0  0
   13.7893   22.9258   -0.9127 C   0  0  0  0  0  0  0  0  0  0  0  0
   14.7302   23.8686   -1.3574 C   0  0  0  0  0  0  0  0  0  0  0  0
   15.6122   23.9599   -0.3233 C   0  0  0  0  0  0  0  0  0  0  0  0
   15.2164   23.1302    0.6658 N   0  0  0  0  0  0  0  0  0  0  0  0
   14.1033   22.5061    0.3050 N   0  0  0  0  0  0  0  0  0  0  0  0
   13.3484   21.6093    0.9883 C   0  0  0  0  0  0  0  0  0  0  0  0
 24 25  1  0  0  0
 25 26  1  0  0  0
 26 27  2  0  0  0
 27 28  1  0  0  0
 28 29  2  0  0  0
 29 20  1  0  0  0
 20 21  2  0  0  0
 20 22  1  0  0  0
 22  1  1  0  0  0
  1  9  1  0  0  0
  9 10  2  0  0  0
 10 11  1  0  0  0
 11 12  2  0  0  0
 12 16  1  0  0  0
 16 17  1  0  0  0
 16 18  1  0  0  0
 16 19  1  0  0  0
 12 13  1  0  0  0
 13 14  2  0  0  0
 14 15  1  0  0  0
  1  2  1  0  0  0
  2  3  1  0  0  0
  3  4  1  0  0  0
  4  5  1  0  0  0
  5  6  1  0  0  0
  6  7  1  0  0  0
 29 30  1  0  0  0
 30 31  2  0  0  0
 31 32  1  0  0  0
 32 33  1  0  0  0
 33 25  2  0  0  0
 32 28  1  0  0  0
  6  1  1  0  0  0
 14  9  1  0  0  0
 22 23  1  0  0  0
  7  8  1  0  0  0
M  END
> <minimizedAffinity>
7.17101

> <CNNscore>
0.4602418542

> <CNNaffinity>
7.4163637161

> <CNN_VS>
3.4133210182

> <CNNaffinity_variance>
1.0531324148

$$$$
[H]OC1([H])C([H])([H])OC([H])([H])C([H])([H])C1(c1c([H])c([H])c(C(F)(F)F)c([H])c1F)N([H])C(=O)c1c([H])nn2c([H])c(C([H])([H])[H])c([H])nc12


 33 36  0  0  0  0  0  0  0  0999 V2000
   13.8055   26.9288   -3.5788 C   0  0  0  0  0  0  0  0  0  0  0  0
   13.7135   28.1412   -2.8508 C   0  0  0  0  0  0  0  0  0  0  0  0
   12.7062   29.1981   -3.2779 C   0  0  0  0  0  0  0  0  0  0  0  0
   11.8895   28.9278   -4.3133 O   0  0  0  0  0  0  0  0  0  0  0  0
   11.5224   27.6459   -4.4673 C   0  0  0  0  0  0  0  0  0  0  0  0
   12.3961   26.5413   -4.0943 C   0  0  0  0  0  0  0  0  0  0  0  0
   11.7238   25.7567   -3.1352 O   0  0  0  0  0  0  0  0  0  0  0  0
   11.2859   24.9960   -3.5347 H   0  0  0  0  0  0  0  0  0  0  0  0
   14.6930   26.6490   -4.6948 C   0  0  0  0  0  0  0  0  0  0  0  0
   14.6241   25.3460   -5.2184 C   0  0  0  0  0  0  0  0  0  0  0  0
   15.2939   24.9630   -6.3574 C   0  0  0  0  0  0  0  0  0  0  0  0
   16.0740   25.8225   -7.0577 C   0  0  0  0  0  0  0  0  0  0  0  0
   16.1671   27.1273   -6.5696 C   0  0  0  0  0  0  0  0  0  0  0  0
   15.4786   27.4787   -5.4218 C   0  0  0  0  0  0  0  0  0  0  0  0
   15.6479   28.7317   -4.9954 F   0  0  0  0  0  0  0  0  0  0  0  0
   16.7642   25.4250   -8.3064 C   0  0  0  0  0  0  0  0  0  0  0  0
   17.8552   26.2667   -8.5535 F   0  0  0  0  0  0  0  0  0  0  0  0
   17.1714   24.1174   -8.1810 F   0  0  0  0  0  0  0  0  0  0  0  0
   15.9193   25.4155   -9.4138 F   0  0  0  0  0  0  0  0  0  0  0  0
   15.3276   25.8999   -1.9330 C   0  0  0  0  0  0  0  0  0  0  0  0
   16.0679   26.9125   -2.0970 O   0  0  0  0  0  0  0  0  0  0  0  0
   14.0799   25.7866   -2.6471 N   0  0  0  0  0  0  0  0  0  0  0  0
   13.4940   24.9823   -2.5046 H   0  0  0  0  0  0  0  0  0  0  0  0
   13.7372   20.2485    1.2974 C   0  0  0  0  0  0  0  0  0  0  0  0
   14.2453   21.4999    0.6307 C   0  0  0  0  0  0  0  0  0  0  0  0
   13.4966   22.1803   -0.3040 C   0  0  0  0  0  0  0  0  0  0  0  0
   13.9673   23.2997   -0.8857 N   0  0  0  0  0  0  0  0  0  0  0  0
   15.1749   23.7694   -0.5607 C   0  0  0  0  0  0  0  0  0  0  0  0
   15.8427   24.9188   -1.0130 C   0  0  0  0  0  0  0  0  0  0  0  0
   17.0216   24.8992   -0.3307 C   0  0  0  0  0  0  0  0  0  0  0  0
   17.0459   23.8139    0.4724 N   0  0  0  0  0  0  0  0  0  0  0  0
   15.9175   23.1313    0.3331 N   0  0  0  0  0  0  0  0  0  0  0  0
   15.5037   21.9987    0.9551 C   0  0  0  0  0  0  0  0  0  0  0  0
 24 25  1  0  0  0
 25 26  1  0  0  0
 26 27  2  0  0  0
 27 28  1  0  0  0
 28 29  2  0  0  0
 29 20  1  0  0  0
 20 21  2  0  0  0
 20 22  1  0  0  0
 22  1  1  0  0  0
  1  9  1  0  0  0
  9 10  2  0  0  0
 10 11  1  0  0  0
 11 12  2  0  0  0
 12 16  1  0  0  0
 16 17  1  0  0  0
 16 18  1  0  0  0
 16 19  1  0  0  0
 12 13  1  0  0  0
 13 14  2  0  0  0
 14 15  1  0  0  0
  1  2  1  0  0  0
  2  3  1  0  0  0
  3  4  1  0  0  0
  4  5  1  0  0  0
  5  6  1  0  0  0
  6  7  1  0  0  0
 29 30  1  0  0  0
 30 31  2  0  0  0
 31 32  1  0  0  0
 32 33  1  0  0  0
 33 25  2  0  0  0
 32 28  1  0  0  0
  6  1  1  0  0  0
 14  9  1  0  0  0
 22 23  1  0  0  0
  7  8  1  0  0  0
M  END
> <minimizedAffinity>
14.57448

> <CNNscore>
0.4523937106

> <CNNaffinity>
6.9536352158

> <CNN_VS>
3.1457808018

> <CNNaffinity_variance>
1.0645420551

$$$$
[H]OC1([H])C([H])([H])OC([H])([H])C([H])([H])C1(c1c([H])c([H])c(C(F)(F)F)c([H])c1F)N([H])C(=O)c1c([H])nn2c([H])c(C([H])([H])[H])c([H])nc12


 33 36  0  0  0  0  0  0  0  0999 V2000
   12.7066   22.7357   -0.9245 C   0  0  0  0  0  0  0  0  0  0  0  0
   12.3857   21.4160   -1.3292 C   0  0  0  0  0  0  0  0  0  0  0  0
   13.4489   20.3303   -1.2589 C   0  0  0  0  0  0  0  0  0  0  0  0
   14.6596   20.6462   -0.7624 O   0  0  0  0  0  0  0  0  0  0  0  0
   14.6864   21.5816    0.1999 C   0  0  0  0  0  0  0  0  0  0  0  0
   13.7215   22.6723    0.2451 C   0  0  0  0  0  0  0  0  0  0  0  0
   13.0420   22.6040    1.4784 O   0  0  0  0  0  0  0  0  0  0  0  0
   13.4247   23.1986    2.1342 H   0  0  0  0  0  0  0  0  0  0  0  0
   13.1912   23.8123   -1.7716 C   0  0  0  0  0  0  0  0  0  0  0  0
   14.3302   23.5183   -2.5416 C   0  0  0  0  0  0  0  0  0  0  0  0
   14.8296   24.3771   -3.4933 C   0  0  0  0  0  0  0  0  0  0  0  0
   14.2540   25.5763   -3.7546 C   0  0  0  0  0  0  0  0  0  0  0  0
   13.1190   25.9043   -3.0105 C   0  0  0  0  0  0  0  0  0  0  0  0
   12.6429   25.0160   -2.0623 C   0  0  0  0  0  0  0  0  0  0  0  0
   11.5782   25.4161   -1.3645 F   0  0  0  0  0  0  0  0  0  0  0  0
   14.7648   26.4857   -4.8061 C   0  0  0  0  0  0  0  0  0  0  0  0
   15.4557   27.5598   -4.2328 F   0  0  0  0  0  0  0  0  0  0  0  0
   15.5843   25.7655   -5.6435 F   0  0  0  0  0  0  0  0  0  0  0  0
   13.7599   26.9673   -5.6419 F   0  0  0  0  0  0  0  0  0  0  0  0
   10.5488   22.4166    0.2273 C   0  0  0  0  0  0  0  0  0  0  0  0
   10.7307   21.1755    0.0637 O   0  0  0  0  0  0  0  0  0  0  0  0
   11.5328   23.3640   -0.2348 N   0  0  0  0  0  0  0  0  0  0  0  0
   11.3839   24.3481   -0.0935 H   0  0  0  0  0  0  0  0  0  0  0  0
    7.8652   26.6326    4.6912 C   0  0  0  0  0  0  0  0  0  0  0  0
    8.3169   25.6316    3.6603 C   0  0  0  0  0  0  0  0  0  0  0  0
    9.6034   25.6254    3.1685 C   0  0  0  0  0  0  0  0  0  0  0  0
    9.9887   24.7194    2.2500 N   0  0  0  0  0  0  0  0  0  0  0  0
    9.1223   23.8070    1.8012 C   0  0  0  0  0  0  0  0  0  0  0  0
    9.3132   22.7641    0.8805 C   0  0  0  0  0  0  0  0  0  0  0  0
    8.0969   22.1533    0.8249 C   0  0  0  0  0  0  0  0  0  0  0  0
    7.2472   22.7903    1.6589 N   0  0  0  0  0  0  0  0  0  0  0  0
    7.8768   23.7936    2.2552 N   0  0  0  0  0  0  0  0  0  0  0  0
    7.4241   24.6781    3.1792 C   0  0  0  0  0  0  0  0  0  0  0  0
 24 25  1  0  0  0
 25 26  1  0  0  0
 26 27  2  0  0  0
 27 28  1  0  0  0
 28 29  2  0  0  0
 29 20  1  0  0  0
 20 21  2  0  0  0
 20 22  1  0  0  0
 22  1  1  0  0  0
  1  9  1  0  0  0
  9 10  2  0  0  0
 10 11  1  0  0  0
 11 12  2  0  0  0
 12 16  1  0  0  0
 16 17  1  0  0  0
 16 18  1  0  0  0
 16 19  1  0  0  0
 12 13  1  0  0  0
 13 14  2  0  0  0
 14 15  1  0  0  0
  1  2  1  0  0  0
  2  3  1  0  0  0
  3  4  1  0  0  0
  4  5  1  0  0  0
  5  6  1  0  0  0
  6  7  1  0  0  0
 29 30  1  0  0  0
 30 31  2  0  0  0
 31 32  1  0  0  0
 32 33  1  0  0  0
 33 25  2  0  0  0
 32 28  1  0  0  0
  6  1  1  0  0  0
 14  9  1  0  0  0
 22 23  1  0  0  0
  7  8  1  0  0  0
M  END
> <minimizedAffinity>
-10.59268

> <CNNscore>
0.4476516843

> <CNNaffinity>
7.0189008713

> <CNN_VS>
3.1420228481

> <CNNaffinity_variance>
0.1218629479

$$$$
[H]OC1([H])C([H])([H])OC([H])([H])C([H])([H])C1(c1c([H])c([H])c(C(F)(F)F)c([H])c1F)N([H])C(=O)c1c([H])nn2c([H])c(C([H])([H])[H])c([H])nc12


 33 36  0  0  0  0  0  0  0  0999 V2000
   14.6045   25.5575   -2.5671 C   0  0  0  0  0  0  0  0  0  0  0  0
   15.5118   26.2098   -1.6956 C   0  0  0  0  0  0  0  0  0  0  0  0
   16.5645   27.1448   -2.2716 C   0  0  0  0  0  0  0  0  0  0  0  0
   16.5714   27.3664   -3.5994 O   0  0  0  0  0  0  0  0  0  0  0  0
   15.3792   27.3456   -4.2158 C   0  0  0  0  0  0  0  0  0  0  0  0
   14.2878   26.4949   -3.7600 C   0  0  0  0  0  0  0  0  0  0  0  0
   13.1879   27.3216   -3.4530 O   0  0  0  0  0  0  0  0  0  0  0  0
   12.5603   27.3725   -4.1835 H   0  0  0  0  0  0  0  0  0  0  0  0
   14.7657   24.2437   -3.1668 C   0  0  0  0  0  0  0  0  0  0  0  0
   15.2184   24.2311   -4.4978 C   0  0  0  0  0  0  0  0  0  0  0  0
   15.5535   23.0734   -5.1612 C   0  0  0  0  0  0  0  0  0  0  0  0
   15.4677   21.8552   -4.5725 C   0  0  0  0  0  0  0  0  0  0  0  0
   15.0227   21.8263   -3.2494 C   0  0  0  0  0  0  0  0  0  0  0  0
   14.6956   23.0103   -2.6120 C   0  0  0  0  0  0  0  0  0  0  0  0
   14.2412   22.8988   -1.3624 F   0  0  0  0  0  0  0  0  0  0  0  0
   15.8657   20.6107   -5.2699 C   0  0  0  0  0  0  0  0  0  0  0  0
   16.5100   19.7372   -4.3858 F   0  0  0  0  0  0  0  0  0  0  0  0
   14.7376   20.0292   -5.7997 F   0  0  0  0  0  0  0  0  0  0  0  0
   16.6809   20.8450   -6.3748 F   0  0  0  0  0  0  0  0  0  0  0  0
   13.2839   25.0327   -0.5509 C   0  0  0  0  0  0  0  0  0  0  0  0
   14.3885   24.8018    0.0207 O   0  0  0  0  0  0  0  0  0  0  0  0
   13.2519   25.4621   -1.9272 N   0  0  0  0  0  0  0  0  0  0  0  0
   12.3701   25.6511   -2.3711 H   0  0  0  0  0  0  0  0  0  0  0  0
    7.9760   21.0276    0.2786 C   0  0  0  0  0  0  0  0  0  0  0  0
    9.1244   22.0011    0.2307 C   0  0  0  0  0  0  0  0  0  0  0  0
   10.1580   21.8617   -0.6690 C   0  0  0  0  0  0  0  0  0  0  0  0
   11.1735   22.7452   -0.6985 N   0  0  0  0  0  0  0  0  0  0  0  0
   11.1916   23.7771    0.1499 C   0  0  0  0  0  0  0  0  0  0  0  0
   12.1223   24.8212    0.2737 C   0  0  0  0  0  0  0  0  0  0  0  0
   11.6219   25.5839    1.2854 C   0  0  0  0  0  0  0  0  0  0  0  0
   10.4722   25.0294    1.7259 N   0  0  0  0  0  0  0  0  0  0  0  0
   10.2111   23.9321    1.0285 N   0  0  0  0  0  0  0  0  0  0  0  0
    9.1599   23.0783    1.1117 C   0  0  0  0  0  0  0  0  0  0  0  0
 24 25  1  0  0  0
 25 26  1  0  0  0
 26 27  2  0  0  0
 27 28  1  0  0  0
 28 29  2  0  0  0
 29 20  1  0  0  0
 20 21  2  0  0  0
 20 22  1  0  0  0
 22  1  1  0  0  0
  1  9  1  0  0  0
  9 10  2  0  0  0
 10 11  1  0  0  0
 11 12  2  0  0  0
 12 16  1  0  0  0
 16 17  1  0  0  0
 16 18  1  0  0  0
 16 19  1  0  0  0
 12 13  1  0  0  0
 13 14  2  0  0  0
 14 15  1  0  0  0
  1  2  1  0  0  0
  2  3  1  0  0  0
  3  4  1  0  0  0
  4  5  1  0  0  0
  5  6  1  0  0  0
  6  7  1  0  0  0
 29 30  1  0  0  0
 30 31  2  0  0  0
 31 32  1  0  0  0
 32 33  1  0  0  0
 33 25  2  0  0  0
 32 28  1  0  0  0
  6  1  1  0  0  0
 14  9  1  0  0  0
 22 23  1  0  0  0
  7  8  1  0  0  0
M  END
> <minimizedAffinity>
6.25798

> <CNNscore>
0.4113201201

> <CNNaffinity>
6.9369125366

> <CNN_VS>
2.8532917500

> <CNNaffinity_variance>
0.9509226680

$$$$
[H]OC1([H])C([H])([H])OC([H])([H])C([H])([H])C1(c1c([H])c([H])c(C(F)(F)F)c([H])c1F)N([H])C(=O)c1c([H])nn2c([H])c(C([H])([H])[H])c([H])nc12


 33 36  0  0  0  0  0  0  0  0999 V2000
   14.3292   24.4269   -2.6295 C   0  0  0  0  0  0  0  0  0  0  0  0
   14.5762   23.2799   -3.4244 C   0  0  0  0  0  0  0  0  0  0  0  0
   15.9488   23.0819   -4.0497 C   0  0  0  0  0  0  0  0  0  0  0  0
   16.9124   23.9842   -3.7862 O   0  0  0  0  0  0  0  0  0  0  0  0
   16.8778   24.5602   -2.5743 C   0  0  0  0  0  0  0  0  0  0  0  0
   15.6263   24.8028   -1.8690 C   0  0  0  0  0  0  0  0  0  0  0  0
   15.6821   24.1255   -0.6338 O   0  0  0  0  0  0  0  0  0  0  0  0
   15.9534   24.7084    0.0849 H   0  0  0  0  0  0  0  0  0  0  0  0
   13.7877   25.6978   -3.0800 C   0  0  0  0  0  0  0  0  0  0  0  0
   12.5323   26.0482   -2.5531 C   0  0  0  0  0  0  0  0  0  0  0  0
   11.9481   27.2748   -2.7695 C   0  0  0  0  0  0  0  0  0  0  0  0
   12.5472   28.2369   -3.5132 C   0  0  0  0  0  0  0  0  0  0  0  0
   13.7969   27.9270   -4.0533 C   0  0  0  0  0  0  0  0  0  0  0  0
   14.3558   26.6839   -3.8142 C   0  0  0  0  0  0  0  0  0  0  0  0
   15.5334   26.4475   -4.3955 F   0  0  0  0  0  0  0  0  0  0  0  0
   11.9400   29.5727   -3.7150 C   0  0  0  0  0  0  0  0  0  0  0  0
   11.7687   30.2244   -2.4879 F   0  0  0  0  0  0  0  0  0  0  0  0
   12.7573   30.3008   -4.5477 F   0  0  0  0  0  0  0  0  0  0  0  0
   10.7233   29.5190   -4.3911 F   0  0  0  0  0  0  0  0  0  0  0  0
   13.5809   22.7204   -1.0133 C   0  0  0  0  0  0  0  0  0  0  0  0
   14.4344   21.9521   -1.5438 O   0  0  0  0  0  0  0  0  0  0  0  0
   13.4306   24.0759   -1.4817 N   0  0  0  0  0  0  0  0  0  0  0  0
   12.7555   24.6821   -1.0491 H   0  0  0  0  0  0  0  0  0  0  0  0
    7.3101   21.8044    1.1640 C   0  0  0  0  0  0  0  0  0  0  0  0
    8.7667   21.9127    0.7963 C   0  0  0  0  0  0  0  0  0  0  0  0
    9.1773   22.4980   -0.3809 C   0  0  0  0  0  0  0  0  0  0  0  0
   10.4848   22.5888   -0.6893 N   0  0  0  0  0  0  0  0  0  0  0  0
   11.4080   22.1098    0.1491 C   0  0  0  0  0  0  0  0  0  0  0  0
   12.8083   22.1239    0.0457 C   0  0  0  0  0  0  0  0  0  0  0  0
   13.2247   21.5160    1.1914 C   0  0  0  0  0  0  0  0  0  0  0  0
   12.1435   21.1702    1.9228 N   0  0  0  0  0  0  0  0  0  0  0  0
   11.0394   21.5380    1.2869 N   0  0  0  0  0  0  0  0  0  0  0  0
    9.7401   21.4136    1.6573 C   0  0  0  0  0  0  0  0  0  0  0  0
 24 25  1  0  0  0
 25 26  1  0  0  0
 26 27  2  0  0  0
 27 28  1  0  0  0
 28 29  2  0  0  0
 29 20  1  0  0  0
 20 21  2  0  0  0
 20 22  1  0  0  0
 22  1  1  0  0  0
  1  9  1  0  0  0
  9 10  2  0  0  0
 10 11  1  0  0  0
 11 12  2  0  0  0
 12 16  1  0  0  0
 16 17  1  0  0  0
 16 18  1  0  0  0
 16 19  1  0  0  0
 12 13  1  0  0  0
 13 14  2  0  0  0
 14 15  1  0  0  0
  1  2  1  0  0  0
  2  3  1  0  0  0
  3  4  1  0  0  0
  4  5  1  0  0  0
  5  6  1  0  0  0
  6  7  1  0  0  0
 29 30  1  0  0  0
 30 31  2  0  0  0
 31 32  1  0  0  0
 32 33  1  0  0  0
 33 25  2  0  0  0
 32 28  1  0  0  0
  6  1  1  0  0  0
 14  9  1  0  0  0
 22 23  1  0  0  0
  7  8  1  0  0  0
M  END
> <minimizedAffinity>
7.78723

> <CNNscore>
0.4026059508

> <CNNaffinity>
6.7122941017

> <CNN_VS>
2.7024095058

> <CNNaffinity_variance>
1.4173587561

$$$$
[H]OC(=O)C([H])([H])C([H])([H])[C@@]([H])(C(=O)N1C([H])([H])C([H])([H])C([H])([H])[C@@]1([H])C(=O)N([H])[C@]([H])(C(=O)OC([H])([H])[H])C([H])([H])c1c([H])c([H])c([H])c([H])c1[H])N([H])C(=O)[C@@]([H])(N([H])C(=O)OC([H])([H])c1c([H])c([H])c([H])c([H])c1[H])[C@@]([H])(C([H])([H])[H])C([H])([H])C([H])([H])[H]


 51 53  0  0  0  0  0  0  0  0999 V2000
   12.7425   24.2256   -1.5615 C   0  0  0  0  0  0  0  0  0  0  0  0
   13.6656   23.5941   -0.6618 C   0  0  0  0  0  0  0  0  0  0  0  0
   14.8434   24.2754   -0.6654 O   0  0  0  0  0  0  0  0  0  0  0  0
   13.7404   22.5165    0.1951 N   0  0  0  0  0  0  0  0  0  0  0  0
   14.9590   22.2393    1.0081 C   0  0  0  0  0  0  0  0  0  0  0  0
   15.2245   20.8032    0.6075 C   0  0  0  0  0  0  0  0  0  0  0  0
   13.8539   20.2211    0.5333 C   0  0  0  0  0  0  0  0  0  0  0  0
   12.8877   21.4344    0.5172 C   0  0  0  0  0  0  0  0  0  0  0  0
   12.2898   21.4522    1.8626 C   0  0  0  0  0  0  0  0  0  0  0  0
   12.3843   22.4621    2.5798 O   0  0  0  0  0  0  0  0  0  0  0  0
   11.6050   20.3089    2.3412 N   0  0  0  0  0  0  0  0  0  0  0  0
   11.4904   19.4434    1.7710 H   0  0  0  0  0  0  0  0  0  0  0  0
   11.0291   20.3305    3.7005 C   0  0  0  0  0  0  0  0  0  0  0  0
   11.1922   19.0225    4.3464 C   0  0  0  0  0  0  0  0  0  0  0  0
   12.3389   18.4381    4.3010 O   0  0  0  0  0  0  0  0  0  0  0  0
   10.2193   18.3463    5.0136 O   0  0  0  0  0  0  0  0  0  0  0  0
    9.7957   18.7162    6.3350 C   0  0  0  0  0  0  0  0  0  0  0  0
    9.5862   20.7032    3.5891 C   0  0  0  0  0  0  0  0  0  0  0  0
    9.0458   21.5493    4.6452 C   0  0  0  0  0  0  0  0  0  0  0  0
    7.6889   21.4118    4.9294 C   0  0  0  0  0  0  0  0  0  0  0  0
    7.1528   22.1726    5.9281 C   0  0  0  0  0  0  0  0  0  0  0  0
    7.9037   23.0670    6.6617 C   0  0  0  0  0  0  0  0  0  0  0  0
    9.2705   23.1796    6.3491 C   0  0  0  0  0  0  0  0  0  0  0  0
    9.8182   22.4305    5.3575 C   0  0  0  0  0  0  0  0  0  0  0  0
   10.4420   23.5478   -0.7106 C   0  0  0  0  0  0  0  0  0  0  0  0
   10.5220   22.5782   -1.5520 O   0  0  0  0  0  0  0  0  0  0  0  0
   11.5241   24.4274   -0.6519 N   0  0  0  0  0  0  0  0  0  0  0  0
   11.5463   25.2391   -0.0079 H   0  0  0  0  0  0  0  0  0  0  0  0
    9.2235   23.6074    0.0705 C   0  0  0  0  0  0  0  0  0  0  0  0
    8.3041   22.5438   -0.2420 N   0  0  0  0  0  0  0  0  0  0  0  0
    8.4286   21.1627   -0.0494 C   0  0  0  0  0  0  0  0  0  0  0  0
    9.3841   20.5311    0.4381 O   0  0  0  0  0  0  0  0  0  0  0  0
    7.3655   22.8480   -0.6976 H   0  0  0  0  0  0  0  0  0  0  0  0
    7.3542   20.3197   -0.4473 O   0  0  0  0  0  0  0  0  0  0  0  0
    7.2567   19.8070   -1.7507 C   0  0  0  0  0  0  0  0  0  0  0  0
    5.9232   19.3641   -2.1395 C   0  0  0  0  0  0  0  0  0  0  0  0
    5.2653   19.9983   -3.1885 C   0  0  0  0  0  0  0  0  0  0  0  0
    4.0095   19.6405   -3.6059 C   0  0  0  0  0  0  0  0  0  0  0  0
    3.3435   18.5990   -2.9663 C   0  0  0  0  0  0  0  0  0  0  0  0
    3.9894   17.9621   -1.9224 C   0  0  0  0  0  0  0  0  0  0  0  0
    5.2554   18.3357   -1.5150 C   0  0  0  0  0  0  0  0  0  0  0  0
    9.3944   23.6744    1.5720 C   0  0  0  0  0  0  0  0  0  0  0  0
   10.1611   24.9033    2.0389 C   0  0  0  0  0  0  0  0  0  0  0  0
    7.9548   24.9191    3.2250 C   0  0  0  0  0  0  0  0  0  0  0  0
    8.0022   23.8294    2.1714 C   0  0  0  0  0  0  0  0  0  0  0  0
   12.9462   25.4368   -2.3287 C   0  0  0  0  0  0  0  0  0  0  0  0
   13.8787   25.4371   -3.4961 C   0  0  0  0  0  0  0  0  0  0  0  0
   13.6391   26.6393   -4.3767 C   0  0  0  0  0  0  0  0  0  0  0  0
   12.6348   27.3590   -4.1896 O   0  0  0  0  0  0  0  0  0  0  0  0
   14.5074   26.9875   -5.4072 O   0  0  0  0  0  0  0  0  0  0  0  0
   14.6418   27.9196   -5.7223 H   0  0  0  0  0  0  0  0  0  0  0  0
 44 45  1  0  0  0
 45 42  1  0  0  0
 42 43  1  0  0  0
 42 29  1  0  0  0
 29 30  1  0  0  0
 30 31  1  0  0  0
 31 32  2  0  0  0
 31 34  1  0  0  0
 34 35  1  0  0  0
 35 36  1  0  0  0
 36 37  2  0  0  0
 37 38  1  0  0  0
 38 39  2  0  0  0
 39 40  1  0  0  0
 40 41  2  0  0  0
 29 25  1  0  0  0
 25 26  2  0  0  0
 25 27  1  0  0  0
 27  1  1  0  0  0
  1 46  1  0  0  0
 46 47  1  0  0  0
 47 48  1  0  0  0
 48 49  2  0  0  0
 48 50  1  0  0  0
  1  2  1  0  0  0
  2  3  2  0  0  0
  2  4  1  0  0  0
  4  5  1  0  0  0
  5  6  1  0  0  0
  6  7  1  0  0  0
  7  8  1  0  0  0
  8  9  1  0  0  0
  9 10  2  0  0  0
  9 11  1  0  0  0
 11 13  1  0  0  0
 13 18  1  0  0  0
 18 19  1  0  0  0
 19 20  2  0  0  0
 20 21  1  0  0  0
 21 22  2  0  0  0
 22 23  1  0  0  0
 23 24  2  0  0  0
 13 14  1  0  0  0
 14 15  2  0  0  0
 14 16  1  0  0  0
 16 17  1  0  0  0
 41 36  1  0  0  0
  8  4  1  0  0  0
 24 19  1  0  0  0
 30 33  1  0  0  0
 27 28  1  0  0  0
 50 51  1  0  0  0
 11 12  1  0  0  0
M  END
> <minimizedAffinity>
-7.65507

> <CNNscore>
0.6125867367

> <CNNaffinity>
7.8556952477

> <CNN_VS>
4.8122944832

> <CNNaffinity_variance>
0.3321343660

$$$$
[H]OC(=O)C([H])([H])C([H])([H])[C@@]([H])(C(=O)N1C([H])([H])C([H])([H])C([H])([H])[C@@]1([H])C(=O)N([H])[C@]([H])(C(=O)OC([H])([H])[H])C([H])([H])c1c([H])c([H])c([H])c([H])c1[H])N([H])C(=O)[C@@]([H])(N([H])C(=O)OC([H])([H])c1c([H])c([H])c([H])c([H])c1[H])[C@@]([H])(C([H])([H])[H])C([H])([H])C([H])([H])[H]


 51 53  0  0  0  0  0  0  0  0999 V2000
    9.6421   21.8034    5.4630 C   0  0  0  0  0  0  0  0  0  0  0  0
    9.4689   22.9870    4.6695 C   0  0  0  0  0  0  0  0  0  0  0  0
    9.1548   24.0355    5.4780 O   0  0  0  0  0  0  0  0  0  0  0  0
    9.5116   23.3955    3.3533 N   0  0  0  0  0  0  0  0  0  0  0  0
    9.2872   24.8165    2.9616 C   0  0  0  0  0  0  0  0  0  0  0  0
    8.1827   24.6392    1.9407 C   0  0  0  0  0  0  0  0  0  0  0  0
    8.5940   23.4009    1.2192 C   0  0  0  0  0  0  0  0  0  0  0  0
    9.6810   22.7434    2.1092 C   0  0  0  0  0  0  0  0  0  0  0  0
   10.9470   23.0023    1.4033 C   0  0  0  0  0  0  0  0  0  0  0  0
   12.0013   22.4677    1.7855 O   0  0  0  0  0  0  0  0  0  0  0  0
   10.9613   23.8684    0.2831 N   0  0  0  0  0  0  0  0  0  0  0  0
   10.0999   24.3300   -0.0807 H   0  0  0  0  0  0  0  0  0  0  0  0
   12.2405   24.1381   -0.4029 C   0  0  0  0  0  0  0  0  0  0  0  0
   13.1655   24.8389    0.4959 C   0  0  0  0  0  0  0  0  0  0  0  0
   12.8731   26.0275    0.8959 O   0  0  0  0  0  0  0  0  0  0  0  0
   14.3388   24.3375    0.9663 O   0  0  0  0  0  0  0  0  0  0  0  0
   15.6090   24.6989    0.4020 C   0  0  0  0  0  0  0  0  0  0  0  0
   11.9521   24.9503   -1.6237 C   0  0  0  0  0  0  0  0  0  0  0  0
   13.0567   25.1487   -2.5533 C   0  0  0  0  0  0  0  0  0  0  0  0
   13.9781   24.1101   -2.6667 C   0  0  0  0  0  0  0  0  0  0  0  0
   15.0139   24.2520   -3.5447 C   0  0  0  0  0  0  0  0  0  0  0  0
   15.1782   25.3812   -4.3193 C   0  0  0  0  0  0  0  0  0  0  0  0
   14.2289   26.4097   -4.1803 C   0  0  0  0  0  0  0  0  0  0  0  0
   13.1937   26.2839   -3.3103 C   0  0  0  0  0  0  0  0  0  0  0  0
    7.3853   20.6347    5.5920 C   0  0  0  0  0  0  0  0  0  0  0  0
    7.2650   21.2015    6.7404 O   0  0  0  0  0  0  0  0  0  0  0  0
    8.5588   20.8875    4.8798 N   0  0  0  0  0  0  0  0  0  0  0  0
    8.7445   20.4715    3.9490 H   0  0  0  0  0  0  0  0  0  0  0  0
    6.2795   19.7924    5.1844 C   0  0  0  0  0  0  0  0  0  0  0  0
    5.5471   20.3297    4.0668 N   0  0  0  0  0  0  0  0  0  0  0  0
    5.9577   20.5531    2.7472 C   0  0  0  0  0  0  0  0  0  0  0  0
    7.0724   20.3402    2.2356 O   0  0  0  0  0  0  0  0  0  0  0  0
    4.5157   20.6078    4.2664 H   0  0  0  0  0  0  0  0  0  0  0  0
    5.0211   21.0969    1.8250 O   0  0  0  0  0  0  0  0  0  0  0  0
    4.1251   20.2849    1.1114 C   0  0  0  0  0  0  0  0  0  0  0  0
    4.3335   20.2589   -0.3313 C   0  0  0  0  0  0  0  0  0  0  0  0
    4.4618   19.0385   -0.9868 C   0  0  0  0  0  0  0  0  0  0  0  0
    4.6648   18.9362   -2.3387 C   0  0  0  0  0  0  0  0  0  0  0  0
    4.7496   20.0916   -3.1103 C   0  0  0  0  0  0  0  0  0  0  0  0
    4.6230   21.3096   -2.4678 C   0  0  0  0  0  0  0  0  0  0  0  0
    4.4185   21.3942   -1.1042 C   0  0  0  0  0  0  0  0  0  0  0  0
    6.6123   18.3455    4.8950 C   0  0  0  0  0  0  0  0  0  0  0  0
    7.2691   17.6301    6.0667 C   0  0  0  0  0  0  0  0  0  0  0  0
    5.2804   16.8196    3.3944 C   0  0  0  0  0  0  0  0  0  0  0  0
    5.2899   17.6189    4.6830 C   0  0  0  0  0  0  0  0  0  0  0  0
   10.8520   21.0271    5.6377 C   0  0  0  0  0  0  0  0  0  0  0  0
   11.6145   20.5483    4.4453 C   0  0  0  0  0  0  0  0  0  0  0  0
   11.5853   19.0419    4.3564 C   0  0  0  0  0  0  0  0  0  0  0  0
   12.4491   18.4402    3.6831 O   0  0  0  0  0  0  0  0  0  0  0  0
   10.6188   18.2801    5.0066 O   0  0  0  0  0  0  0  0  0  0  0  0
   10.7717   17.3517    5.3242 H   0  0  0  0  0  0  0  0  0  0  0  0
 44 45  1  0  0  0
 45 42  1  0  0  0
 42 43  1  0  0  0
 42 29  1  0  0  0
 29 30  1  0  0  0
 30 31  1  0  0  0
 31 32  2  0  0  0
 31 34  1  0  0  0
 34 35  1  0  0  0
 35 36  1  0  0  0
 36 37  2  0  0  0
 37 38  1  0  0  0
 38 39  2  0  0  0
 39 40  1  0  0  0
 40 41  2  0  0  0
 29 25  1  0  0  0
 25 26  2  0  0  0
 25 27  1  0  0  0
 27  1  1  0  0  0
  1 46  1  0  0  0
 46 47  1  0  0  0
 47 48  1  0  0  0
 48 49  2  0  0  0
 48 50  1  0  0  0
  1  2  1  0  0  0
  2  3  2  0  0  0
  2  4  1  0  0  0
  4  5  1  0  0  0
  5  6  1  0  0  0
  6  7  1  0  0  0
  7  8  1  0  0  0
  8  9  1  0  0  0
  9 10  2  0  0  0
  9 11  1  0  0  0
 11 13  1  0  0  0
 13 18  1  0  0  0
 18 19  1  0  0  0
 19 20  2  0  0  0
 20 21  1  0  0  0
 21 22  2  0  0  0
 22 23  1  0  0  0
 23 24  2  0  0  0
 13 14  1  0  0  0
 14 15  2  0  0  0
 14 16  1  0  0  0
 16 17  1  0  0  0
 41 36  1  0  0  0
  8  4  1  0  0  0
 24 19  1  0  0  0
 30 33  1  0  0  0
 27 28  1  0  0  0
 50 51  1  0  0  0
 11 12  1  0  0  0
M  END
> <minimizedAffinity>
-8.96782

> <CNNscore>
0.3662566245

> <CNNaffinity>
6.8792686462

> <CNN_VS>
2.5195777416

> <CNNaffinity_variance>
0.8507531285

$$$$
[H]OC(=O)C([H])([H])C([H])([H])[C@@]([H])(C(=O)N1C([H])([H])C([H])([H])C([H])([H])[C@@]1([H])C(=O)N([H])[C@]([H])(C(=O)OC([H])([H])[H])C([H])([H])c1c([H])c([H])c([H])c([H])c1[H])N([H])C(=O)[C@@]([H])(N([H])C(=O)OC([H])([H])c1c([H])c([H])c([H])c([H])c1[H])[C@@]([H])(C([H])([H])[H])C([H])([H])C([H])([H])[H]


 51 53  0  0  0  0  0  0  0  0999 V2000
    9.7248   21.8972    4.7211 C   0  0  0  0  0  0  0  0  0  0  0  0
    9.3663   22.7203    3.6011 C   0  0  0  0  0  0  0  0  0  0  0  0
    8.8685   23.9053    4.0476 O   0  0  0  0  0  0  0  0  0  0  0  0
    9.3587   22.6886    2.2227 N   0  0  0  0  0  0  0  0  0  0  0  0
    8.9039   23.8531    1.4102 C   0  0  0  0  0  0  0  0  0  0  0  0
    7.8600   23.1805    0.5434 C   0  0  0  0  0  0  0  0  0  0  0  0
    8.4843   21.8619    0.2356 C   0  0  0  0  0  0  0  0  0  0  0  0
    9.6535   21.7107    1.2436 C   0  0  0  0  0  0  0  0  0  0  0  0
   10.8678   21.9348    0.4417 C   0  0  0  0  0  0  0  0  0  0  0  0
   11.3608   21.0100   -0.2255 O   0  0  0  0  0  0  0  0  0  0  0  0
   11.4778   23.2127    0.4342 N   0  0  0  0  0  0  0  0  0  0  0  0
   11.0936   24.0213    0.9690 H   0  0  0  0  0  0  0  0  0  0  0  0
   12.7078   23.4194   -0.3558 C   0  0  0  0  0  0  0  0  0  0  0  0
   13.8932   23.2959    0.5010 C   0  0  0  0  0  0  0  0  0  0  0  0
   14.3702   24.3487    1.0689 O   0  0  0  0  0  0  0  0  0  0  0  0
   14.5572   22.1391    0.7656 O   0  0  0  0  0  0  0  0  0  0  0  0
   14.6710   21.0816   -0.1992 C   0  0  0  0  0  0  0  0  0  0  0  0
   12.6342   24.7721   -0.9867 C   0  0  0  0  0  0  0  0  0  0  0  0
   13.3835   24.9590   -2.2225 C   0  0  0  0  0  0  0  0  0  0  0  0
   13.0559   26.0711   -2.9950 C   0  0  0  0  0  0  0  0  0  0  0  0
   13.7525   26.2903   -4.1484 C   0  0  0  0  0  0  0  0  0  0  0  0
   14.7639   25.4542   -4.5726 C   0  0  0  0  0  0  0  0  0  0  0  0
   15.0693   24.3417   -3.7680 C   0  0  0  0  0  0  0  0  0  0  0  0
   14.3844   24.1095   -2.6184 C   0  0  0  0  0  0  0  0  0  0  0  0
    7.6485   20.5729    5.3621 C   0  0  0  0  0  0  0  0  0  0  0  0
    7.4644   21.4781    6.2573 O   0  0  0  0  0  0  0  0  0  0  0  0
    8.7695   20.7106    4.5420 N   0  0  0  0  0  0  0  0  0  0  0  0
    9.0003   20.0282    3.7970 H   0  0  0  0  0  0  0  0  0  0  0  0
    6.6628   19.5120    5.3246 C   0  0  0  0  0  0  0  0  0  0  0  0
    5.8555   19.5381    4.1322 N   0  0  0  0  0  0  0  0  0  0  0  0
    5.5868   20.5929    3.2518 C   0  0  0  0  0  0  0  0  0  0  0  0
    5.9876   21.7702    3.3075 O   0  0  0  0  0  0  0  0  0  0  0  0
    5.3761   18.6003    3.8645 H   0  0  0  0  0  0  0  0  0  0  0  0
    4.7487   20.3468    2.1292 O   0  0  0  0  0  0  0  0  0  0  0  0
    5.2601   20.2696    0.8239 C   0  0  0  0  0  0  0  0  0  0  0  0
    5.7158   18.9452    0.4189 C   0  0  0  0  0  0  0  0  0  0  0  0
    6.5808   18.8154   -0.6629 C   0  0  0  0  0  0  0  0  0  0  0  0
    7.0462   17.6037   -1.1040 C   0  0  0  0  0  0  0  0  0  0  0  0
    6.6489   16.4377   -0.4559 C   0  0  0  0  0  0  0  0  0  0  0  0
    5.7893   16.5565    0.6208 C   0  0  0  0  0  0  0  0  0  0  0  0
    5.3302   17.7860    1.0521 C   0  0  0  0  0  0  0  0  0  0  0  0
    7.1850   18.1066    5.5254 C   0  0  0  0  0  0  0  0  0  0  0  0
    7.5522   17.7988    6.9699 C   0  0  0  0  0  0  0  0  0  0  0  0
    6.4901   15.7083    5.1798 C   0  0  0  0  0  0  0  0  0  0  0  0
    6.0393   17.1561    5.2007 C   0  0  0  0  0  0  0  0  0  0  0  0
   11.0367   21.3820    5.0539 C   0  0  0  0  0  0  0  0  0  0  0  0
   11.8276   20.6293    4.0340 C   0  0  0  0  0  0  0  0  0  0  0  0
   11.6664   19.1401    4.2188 C   0  0  0  0  0  0  0  0  0  0  0  0
   12.2263   18.3496    3.4295 O   0  0  0  0  0  0  0  0  0  0  0  0
   10.9066   18.5998    5.2523 O   0  0  0  0  0  0  0  0  0  0  0  0
   11.0875   17.7142    5.6634 H   0  0  0  0  0  0  0  0  0  0  0  0
 44 45  1  0  0  0
 45 42  1  0  0  0
 42 43  1  0  0  0
 42 29  1  0  0  0
 29 30  1  0  0  0
 30 31  1  0  0  0
 31 32  2  0  0  0
 31 34  1  0  0  0
 34 35  1  0  0  0
 35 36  1  0  0  0
 36 37  2  0  0  0
 37 38  1  0  0  0
 38 39  2  0  0  0
 39 40  1  0  0  0
 40 41  2  0  0  0
 29 25  1  0  0  0
 25 26  2  0  0  0
 25 27  1  0  0  0
 27  1  1  0  0  0
  1 46  1  0  0  0
 46 47  1  0  0  0
 47 48  1  0  0  0
 48 49  2  0  0  0
 48 50  1  0  0  0
  1  2  1  0  0  0
  2  3  2  0  0  0
  2  4  1  0  0  0
  4  5  1  0  0  0
  5  6  1  0  0  0
  6  7  1  0  0  0
  7  8  1  0  0  0
  8  9  1  0  0  0
  9 10  2  0  0  0
  9 11  1  0  0  0
 11 13  1  0  0  0
 13 18  1  0  0  0
 18 19  1  0  0  0
 19 20  2  0  0  0
 20 21  1  0  0  0
 21 22  2  0  0  0
 22 23  1  0  0  0
 23 24  2  0  0  0
 13 14  1  0  0  0
 14 15  2  0  0  0
 14 16  1  0  0  0
 16 17  1  0  0  0
 41 36  1  0  0  0
  8  4  1  0  0  0
 24 19  1  0  0  0
 30 33  1  0  0  0
 27 28  1  0  0  0
 50 51  1  0  0  0
 11 12  1  0  0  0
M  END
> <minimizedAffinity>
-8.62465

> <CNNscore>
0.3240557611

> <CNNaffinity>
7.1532106400

> <CNN_VS>
2.3180391788

> <CNNaffinity_variance>
0.5989829302

$$$$
[H]OC(=O)C([H])([H])C([H])([H])[C@@]([H])(C(=O)N1C([H])([H])C([H])([H])C([H])([H])[C@@]1([H])C(=O)N([H])[C@]([H])(C(=O)OC([H])([H])[H])C([H])([H])c1c([H])c([H])c([H])c([H])c1[H])N([H])C(=O)[C@@]([H])(N([H])C(=O)OC([H])([H])c1c([H])c([H])c([H])c([H])c1[H])[C@@]([H])(C([H])([H])[H])C([H])([H])C([H])([H])[H]


 51 53  0  0  0  0  0  0  0  0999 V2000
    9.5737   22.6290    3.7203 C   0  0  0  0  0  0  0  0  0  0  0  0
    9.1715   22.5360    2.3455 C   0  0  0  0  0  0  0  0  0  0  0  0
    8.0110   23.2227    2.1631 O   0  0  0  0  0  0  0  0  0  0  0  0
    9.5813   21.9676    1.1580 N   0  0  0  0  0  0  0  0  0  0  0  0
    8.8302   22.1716   -0.1137 C   0  0  0  0  0  0  0  0  0  0  0  0
    8.6157   20.7311   -0.5292 C   0  0  0  0  0  0  0  0  0  0  0  0
    9.9080   20.0843   -0.1621 C   0  0  0  0  0  0  0  0  0  0  0  0
   10.6237   21.0901    0.7771 C   0  0  0  0  0  0  0  0  0  0  0  0
   11.6971   21.6702   -0.0471 C   0  0  0  0  0  0  0  0  0  0  0  0
   12.0216   21.1391   -1.1223 O   0  0  0  0  0  0  0  0  0  0  0  0
   12.3644   22.8396    0.3915 N   0  0  0  0  0  0  0  0  0  0  0  0
   12.1186   23.3263    1.2804 H   0  0  0  0  0  0  0  0  0  0  0  0
   13.4543   23.3992   -0.4324 C   0  0  0  0  0  0  0  0  0  0  0  0
   14.6289   23.6867    0.3995 C   0  0  0  0  0  0  0  0  0  0  0  0
   14.9435   24.9121    0.6401 O   0  0  0  0  0  0  0  0  0  0  0  0
   15.4427   22.7544    0.9631 O   0  0  0  0  0  0  0  0  0  0  0  0
   15.3177   21.3527    0.6768 C   0  0  0  0  0  0  0  0  0  0  0  0
   12.9463   24.6368   -1.0984 C   0  0  0  0  0  0  0  0  0  0  0  0
   13.5588   24.9928   -2.3717 C   0  0  0  0  0  0  0  0  0  0  0  0
   13.0576   26.1208   -3.0177 C   0  0  0  0  0  0  0  0  0  0  0  0
   13.6224   26.4972   -4.2022 C   0  0  0  0  0  0  0  0  0  0  0  0
   14.6663   25.8038   -4.7779 C   0  0  0  0  0  0  0  0  0  0  0  0
   15.1485   24.6707   -4.0982 C   0  0  0  0  0  0  0  0  0  0  0  0
   14.5963   24.2829   -2.9196 C   0  0  0  0  0  0  0  0  0  0  0  0
    8.0097   23.1265    5.6650 C   0  0  0  0  0  0  0  0  0  0  0  0
    8.9838   23.8142    6.1476 O   0  0  0  0  0  0  0  0  0  0  0  0
    8.2256   22.4946    4.4393 N   0  0  0  0  0  0  0  0  0  0  0  0
    7.5004   21.9167    3.9767 H   0  0  0  0  0  0  0  0  0  0  0  0
    6.8041   23.0897    6.4673 C   0  0  0  0  0  0  0  0  0  0  0  0
    6.0996   24.3457    6.4794 N   0  0  0  0  0  0  0  0  0  0  0  0
    5.7320   25.1801    5.4170 C   0  0  0  0  0  0  0  0  0  0  0  0
    5.9424   25.0239    4.2000 O   0  0  0  0  0  0  0  0  0  0  0  0
    5.8021   24.7123    7.4582 H   0  0  0  0  0  0  0  0  0  0  0  0
    5.0257   26.3805    5.7062 O   0  0  0  0  0  0  0  0  0  0  0  0
    4.1529   26.9701    4.7778 C   0  0  0  0  0  0  0  0  0  0  0  0
    4.7513   28.0029    3.9406 C   0  0  0  0  0  0  0  0  0  0  0  0
    4.0927   28.4240    2.7898 C   0  0  0  0  0  0  0  0  0  0  0  0
    4.5963   29.3853    1.9523 C   0  0  0  0  0  0  0  0  0  0  0  0
    5.8195   29.9808    2.2464 C   0  0  0  0  0  0  0  0  0  0  0  0
    6.4817   29.5691    3.3885 C   0  0  0  0  0  0  0  0  0  0  0  0
    5.9594   28.5987    4.2216 C   0  0  0  0  0  0  0  0  0  0  0  0
    5.8209   21.9858    6.1466 C   0  0  0  0  0  0  0  0  0  0  0  0
    6.3718   20.5912    6.4066 C   0  0  0  0  0  0  0  0  0  0  0  0
    3.3234   22.2202    6.3943 C   0  0  0  0  0  0  0  0  0  0  0  0
    4.6545   22.1340    7.1156 C   0  0  0  0  0  0  0  0  0  0  0  0
   10.5454   21.8085    4.4131 C   0  0  0  0  0  0  0  0  0  0  0  0
   10.2893   20.3501    4.6127 C   0  0  0  0  0  0  0  0  0  0  0  0
   11.4535   19.5261    4.1193 C   0  0  0  0  0  0  0  0  0  0  0  0
   11.5528   18.3255    4.4512 O   0  0  0  0  0  0  0  0  0  0  0  0
   12.4394   20.0572    3.2927 O   0  0  0  0  0  0  0  0  0  0  0  0
   12.9534   19.5204    2.6342 H   0  0  0  0  0  0  0  0  0  0  0  0
 44 45  1  0  0  0
 45 42  1  0  0  0
 42 43  1  0  0  0
 42 29  1  0  0  0
 29 30  1  0  0  0
 30 31  1  0  0  0
 31 32  2  0  0  0
 31 34  1  0  0  0
 34 35  1  0  0  0
 35 36  1  0  0  0
 36 37  2  0  0  0
 37 38  1  0  0  0
 38 39  2  0  0  0
 39 40  1  0  0  0
 40 41  2  0  0  0
 29 25  1  0  0  0
 25 26  2  0  0  0
 25 27  1  0  0  0
 27  1  1  0  0  0
  1 46  1  0  0  0
 46 47  1  0  0  0
 47 48  1  0  0  0
 48 49  2  0  0  0
 48 50  1  0  0  0
  1  2  1  0  0  0
  2  3  2  0  0  0
  2  4  1  0  0  0
  4  5  1  0  0  0
  5  6  1  0  0  0
  6  7  1  0  0  0
  7  8  1  0  0  0
  8  9  1  0  0  0
  9 10  2  0  0  0
  9 11  1  0  0  0
 11 13  1  0  0  0
 13 18  1  0  0  0
 18 19  1  0  0  0
 19 20  2  0  0  0
 20 21  1  0  0  0
 21 22  2  0  0  0
 22 23  1  0  0  0
 23 24  2  0  0  0
 13 14  1  0  0  0
 14 15  2  0  0  0
 14 16  1  0  0  0
 16 17  1  0  0  0
 41 36  1  0  0  0
  8  4  1  0  0  0
 24 19  1  0  0  0
 30 33  1  0  0  0
 27 28  1  0  0  0
 50 51  1  0  0  0
 11 12  1  0  0  0
M  END
> <minimizedAffinity>
-8.56328

> <CNNscore>
0.3020833731

> <CNNaffinity>
7.3279905319

> <CNN_VS>
2.2136640549

> <CNNaffinity_variance>
0.1478491277

$$$$
[H]OC(=O)C([H])([H])C([H])([H])[C@@]([H])(C(=O)N1C([H])([H])C([H])([H])C([H])([H])[C@@]1([H])C(=O)N([H])[C@]([H])(C(=O)OC([H])([H])[H])C([H])([H])c1c([H])c([H])c([H])c([H])c1[H])N([H])C(=O)[C@@]([H])(N([H])C(=O)OC([H])([H])c1c([H])c([H])c([H])c([H])c1[H])[C@@]([H])(C([H])([H])[H])C([H])([H])C([H])([H])[H]


 51 53  0  0  0  0  0  0  0  0999 V2000
   12.6739   24.1518   -1.6026 C   0  0  0  0  0  0  0  0  0  0  0  0
   13.6126   23.5582   -0.6933 C   0  0  0  0  0  0  0  0  0  0  0  0
   14.7647   24.2822   -0.6909 O   0  0  0  0  0  0  0  0  0  0  0  0
   13.7203   22.4874    0.1687 N   0  0  0  0  0  0  0  0  0  0  0  0
   14.9420   22.2583    0.9920 C   0  0  0  0  0  0  0  0  0  0  0  0
   15.2630   20.8313    0.5994 C   0  0  0  0  0  0  0  0  0  0  0  0
   13.9152   20.1990    0.5174 C   0  0  0  0  0  0  0  0  0  0  0  0
   12.9054   21.3761    0.4889 C   0  0  0  0  0  0  0  0  0  0  0  0
   12.2969   21.3772    1.8297 C   0  0  0  0  0  0  0  0  0  0  0  0
   12.4488   22.3489    2.5888 O   0  0  0  0  0  0  0  0  0  0  0  0
   11.5361   20.2617    2.2559 N   0  0  0  0  0  0  0  0  0  0  0  0
   11.3719   19.4293    1.6496 H   0  0  0  0  0  0  0  0  0  0  0  0
   10.9497   20.2647    3.6109 C   0  0  0  0  0  0  0  0  0  0  0  0
   11.2276   18.9943    4.2918 C   0  0  0  0  0  0  0  0  0  0  0  0
   12.3955   18.4636    4.1790 O   0  0  0  0  0  0  0  0  0  0  0  0
   10.3439   18.3015    5.0587 O   0  0  0  0  0  0  0  0  0  0  0  0
    9.7681   18.8522    6.2535 C   0  0  0  0  0  0  0  0  0  0  0  0
    9.4795   20.4994    3.4816 C   0  0  0  0  0  0  0  0  0  0  0  0
    8.9162   21.5775    4.2840 C   0  0  0  0  0  0  0  0  0  0  0  0
    7.5288   21.7033    4.2838 C   0  0  0  0  0  0  0  0  0  0  0  0
    6.9646   22.6885    5.0420 C   0  0  0  0  0  0  0  0  0  0  0  0
    7.7161   23.5580    5.8043 C   0  0  0  0  0  0  0  0  0  0  0  0
    9.1138   23.4017    5.7822 C   0  0  0  0  0  0  0  0  0  0  0  0
    9.6900   22.4273    5.0320 C   0  0  0  0  0  0  0  0  0  0  0  0
   10.4967   23.1825   -0.7105 C   0  0  0  0  0  0  0  0  0  0  0  0
   10.7578   22.1642   -1.4519 O   0  0  0  0  0  0  0  0  0  0  0  0
   11.4162   24.2325   -0.7284 N   0  0  0  0  0  0  0  0  0  0  0  0
   11.2870   25.0940   -0.1671 H   0  0  0  0  0  0  0  0  0  0  0  0
    9.2657   23.1112    0.0497 C   0  0  0  0  0  0  0  0  0  0  0  0
    8.6931   21.7899    0.0678 N   0  0  0  0  0  0  0  0  0  0  0  0
    7.3512   21.3925    0.1045 C   0  0  0  0  0  0  0  0  0  0  0  0
    6.3319   22.1065    0.1378 O   0  0  0  0  0  0  0  0  0  0  0  0
    9.4020   20.9664    0.0504 H   0  0  0  0  0  0  0  0  0  0  0  0
    7.0523   20.0018    0.1094 O   0  0  0  0  0  0  0  0  0  0  0  0
    5.7393   19.5254    0.2525 C   0  0  0  0  0  0  0  0  0  0  0  0
    5.4899   18.7655    1.4715 C   0  0  0  0  0  0  0  0  0  0  0  0
    5.2128   19.4376    2.6576 C   0  0  0  0  0  0  0  0  0  0  0  0
    4.9737   18.7910    3.8425 C   0  0  0  0  0  0  0  0  0  0  0  0
    5.0044   17.4001    3.8847 C   0  0  0  0  0  0  0  0  0  0  0  0
    5.2787   16.7229    2.7106 C   0  0  0  0  0  0  0  0  0  0  0  0
    5.5171   17.3908    1.5250 C   0  0  0  0  0  0  0  0  0  0  0  0
    9.3247   23.6330    1.4683 C   0  0  0  0  0  0  0  0  0  0  0  0
   10.4132   24.6744    1.6846 C   0  0  0  0  0  0  0  0  0  0  0  0
    8.1722   25.4525    2.7781 C   0  0  0  0  0  0  0  0  0  0  0  0
    8.0175   24.3728    1.7245 C   0  0  0  0  0  0  0  0  0  0  0  0
   12.8114   25.4008   -2.3225 C   0  0  0  0  0  0  0  0  0  0  0  0
   13.8313   25.5333   -3.4064 C   0  0  0  0  0  0  0  0  0  0  0  0
   13.5866   26.7757   -4.2275 C   0  0  0  0  0  0  0  0  0  0  0  0
   14.4954   27.2322   -4.9537 O   0  0  0  0  0  0  0  0  0  0  0  0
   12.3672   27.4465   -4.2108 O   0  0  0  0  0  0  0  0  0  0  0  0
   12.0159   27.9690   -4.9787 H   0  0  0  0  0  0  0  0  0  0  0  0
 44 45  1  0  0  0
 45 42  1  0  0  0
 42 43  1  0  0  0
 42 29  1  0  0  0
 29 30  1  0  0  0
 30 31  1  0  0  0
 31 32  2  0  0  0
 31 34  1  0  0  0
 34 35  1  0  0  0
 35 36  1  0  0  0
 36 37  2  0  0  0
 37 38  1  0  0  0
 38 39  2  0  0  0
 39 40  1  0  0  0
 40 41  2  0  0  0
 29 25  1  0  0  0
 25 26  2  0  0  0
 25 27  1  0  0  0
 27  1  1  0  0  0
  1 46  1  0  0  0
 46 47  1  0  0  0
 47 48  1  0  0  0
 48 49  2  0  0  0
 48 50  1  0  0  0
  1  2  1  0  0  0
  2  3  2  0  0  0
  2  4  1  0  0  0
  4  5  1  0  0  0
  5  6  1  0  0  0
  6  7  1  0  0  0
  7  8  1  0  0  0
  8  9  1  0  0  0
  9 10  2  0  0  0
  9 11  1  0  0  0
 11 13  1  0  0  0
 13 18  1  0  0  0
 18 19  1  0  0  0
 19 20  2  0  0  0
 20 21  1  0  0  0
 21 22  2  0  0  0
 22 23  1  0  0  0
 23 24  2  0  0  0
 13 14  1  0  0  0
 14 15  2  0  0  0
 14 16  1  0  0  0
 16 17  1  0  0  0
 41 36  1  0  0  0
  8  4  1  0  0  0
 24 19  1  0  0  0
 30 33  1  0  0  0
 27 28  1  0  0  0
 50 51  1  0  0  0
 11 12  1  0  0  0
M  END
> <minimizedAffinity>
-6.80686

> <CNNscore>
0.2997128367

> <CNNaffinity>
7.6261291504

> <CNN_VS>
2.2856488228

> <CNNaffinity_variance>
0.1584599316

$$$$
[H]OC(=O)C([H])([H])C([H])([H])[C@@]([H])(C(=O)N1C([H])([H])C([H])([H])C([H])([H])[C@@]1([H])C(=O)N([H])[C@]([H])(C(=O)OC([H])([H])[H])C([H])([H])c1c([H])c([H])c([H])c([H])c1[H])N([H])C(=O)[C@@]([H])(N([H])C(=O)OC([H])([H])c1c([H])c([H])c([H])c([H])c1[H])[C@@]([H])(C([H])([H])[H])C([H])([H])C([H])([H])[H]


 51 53  0  0  0  0  0  0  0  0999 V2000
   11.5570   21.1044    2.9703 C   0  0  0  0  0  0  0  0  0  0  0  0
   11.7861   20.9184    1.5655 C   0  0  0  0  0  0  0  0  0  0  0  0
   10.7320   20.2562    1.0159 O   0  0  0  0  0  0  0  0  0  0  0  0
   12.7343   21.1891    0.6019 N   0  0  0  0  0  0  0  0  0  0  0  0
   12.5308   20.8224   -0.8289 C   0  0  0  0  0  0  0  0  0  0  0  0
   13.7933   20.0250   -1.0808 C   0  0  0  0  0  0  0  0  0  0  0  0
   14.8260   20.7926   -0.3276 C   0  0  0  0  0  0  0  0  0  0  0  0
   14.0356   21.7443    0.6081 C   0  0  0  0  0  0  0  0  0  0  0  0
   14.1808   23.0749   -0.0053 C   0  0  0  0  0  0  0  0  0  0  0  0
   14.2124   24.0946    0.7037 O   0  0  0  0  0  0  0  0  0  0  0  0
   14.2824   23.1914   -1.4129 N   0  0  0  0  0  0  0  0  0  0  0  0
   14.2724   22.3635   -2.0469 H   0  0  0  0  0  0  0  0  0  0  0  0
   14.4049   24.5325   -2.0180 C   0  0  0  0  0  0  0  0  0  0  0  0
   13.0776   25.1244   -2.2239 C   0  0  0  0  0  0  0  0  0  0  0  0
   12.9810   26.3900   -2.4413 O   0  0  0  0  0  0  0  0  0  0  0  0
   11.9005   24.4436   -2.2107 O   0  0  0  0  0  0  0  0  0  0  0  0
   11.0468   24.4090   -1.0564 C   0  0  0  0  0  0  0  0  0  0  0  0
   15.1428   24.3948   -3.3102 C   0  0  0  0  0  0  0  0  0  0  0  0
   15.5548   25.6306   -3.9631 C   0  0  0  0  0  0  0  0  0  0  0  0
   15.0793   25.8491   -5.2543 C   0  0  0  0  0  0  0  0  0  0  0  0
   15.4268   27.0070   -5.8885 C   0  0  0  0  0  0  0  0  0  0  0  0
   16.2271   27.9628   -5.2985 C   0  0  0  0  0  0  0  0  0  0  0  0
   16.6884   27.7104   -3.9939 C   0  0  0  0  0  0  0  0  0  0  0  0
   16.3524   26.5627   -3.3503 C   0  0  0  0  0  0  0  0  0  0  0  0
   10.1553   23.1879    2.5581 C   0  0  0  0  0  0  0  0  0  0  0  0
   11.2591   23.7433    2.2006 O   0  0  0  0  0  0  0  0  0  0  0  0
   10.2184   21.8532    2.9616 N   0  0  0  0  0  0  0  0  0  0  0  0
    9.3815   21.3257    3.2701 H   0  0  0  0  0  0  0  0  0  0  0  0
    8.9777   24.0297    2.5026 C   0  0  0  0  0  0  0  0  0  0  0  0
    7.7563   23.2781    2.3711 N   0  0  0  0  0  0  0  0  0  0  0  0
    7.3809   22.3349    1.4069 C   0  0  0  0  0  0  0  0  0  0  0  0
    8.0289   21.9320    0.4233 O   0  0  0  0  0  0  0  0  0  0  0  0
    7.0025   23.4629    3.1317 H   0  0  0  0  0  0  0  0  0  0  0  0
    6.0999   21.7258    1.5122 O   0  0  0  0  0  0  0  0  0  0  0  0
    5.8221   20.4770    0.9335 C   0  0  0  0  0  0  0  0  0  0  0  0
    5.3112   20.5311   -0.4309 C   0  0  0  0  0  0  0  0  0  0  0  0
    4.2220   21.3444   -0.7268 C   0  0  0  0  0  0  0  0  0  0  0  0
    3.6842   21.4419   -1.9840 C   0  0  0  0  0  0  0  0  0  0  0  0
    4.2363   20.7033   -3.0267 C   0  0  0  0  0  0  0  0  0  0  0  0
    5.3196   19.8921   -2.7426 C   0  0  0  0  0  0  0  0  0  0  0  0
    5.8489   19.8061   -1.4695 C   0  0  0  0  0  0  0  0  0  0  0  0
    8.8144   25.0262    3.6288 C   0  0  0  0  0  0  0  0  0  0  0  0
    7.6494   25.9839    3.4245 C   0  0  0  0  0  0  0  0  0  0  0  0
    7.4302   24.9500    5.7341 C   0  0  0  0  0  0  0  0  0  0  0  0
    8.4542   24.2308    4.8775 C   0  0  0  0  0  0  0  0  0  0  0  0
   11.5048   20.0861    3.9986 C   0  0  0  0  0  0  0  0  0  0  0  0
   10.7494   20.3355    5.2633 C   0  0  0  0  0  0  0  0  0  0  0  0
    9.6184   19.3484    5.4190 C   0  0  0  0  0  0  0  0  0  0  0  0
    8.5245   19.5592    4.8528 O   0  0  0  0  0  0  0  0  0  0  0  0
    9.7455   18.1901    6.1801 O   0  0  0  0  0  0  0  0  0  0  0  0
    9.2432   17.3533    5.9970 H   0  0  0  0  0  0  0  0  0  0  0  0
 44 45  1  0  0  0
 45 42  1  0  0  0
 42 43  1  0  0  0
 42 29  1  0  0  0
 29 30  1  0  0  0
 30 31  1  0  0  0
 31 32  2  0  0  0
 31 34  1  0  0  0
 34 35  1  0  0  0
 35 36  1  0  0  0
 36 37  2  0  0  0
 37 38  1  0  0  0
 38 39  2  0  0  0
 39 40  1  0  0  0
 40 41  2  0  0  0
 29 25  1  0  0  0
 25 26  2  0  0  0
 25 27  1  0  0  0
 27  1  1  0  0  0
  1 46  1  0  0  0
 46 47  1  0  0  0
 47 48  1  0  0  0
 48 49  2  0  0  0
 48 50  1  0  0  0
  1  2  1  0  0  0
  2  3  2  0  0  0
  2  4  1  0  0  0
  4  5  1  0  0  0
  5  6  1  0  0  0
  6  7  1  0  0  0
  7  8  1  0  0  0
  8  9  1  0  0  0
  9 10  2  0  0  0
  9 11  1  0  0  0
 11 13  1  0  0  0
 13 18  1  0  0  0
 18 19  1  0  0  0
 19 20  2  0  0  0
 20 21  1  0  0  0
 21 22  2  0  0  0
 22 23  1  0  0  0
 23 24  2  0  0  0
 13 14  1  0  0  0
 14 15  2  0  0  0
 14 16  1  0  0  0
 16 17  1  0  0  0
 41 36  1  0  0  0
  8  4  1  0  0  0
 24 19  1  0  0  0
 30 33  1  0  0  0
 27 28  1  0  0  0
 50 51  1  0  0  0
 11 12  1  0  0  0
M  END
> <minimizedAffinity>
-9.09245

> <CNNscore>
0.2862844467

> <CNNaffinity>
7.4735579491

> <CNN_VS>
2.1395633221

> <CNNaffinity_variance>
0.3265560865

$$$$
[H]OC(=O)C([H])([H])C([H])([H])[C@@]([H])(C(=O)N1C([H])([H])C([H])([H])C([H])([H])[C@@]1([H])C(=O)N([H])[C@]([H])(C(=O)OC([H])([H])[H])C([H])([H])c1c([H])c([H])c([H])c([H])c1[H])N([H])C(=O)[C@@]([H])(N([H])C(=O)OC([H])([H])c1c([H])c([H])c([H])c([H])c1[H])[C@@]([H])(C([H])([H])[H])C([H])([H])C([H])([H])[H]


 51 53  0  0  0  0  0  0  0  0999 V2000
   10.1788   20.8552    0.5517 C   0  0  0  0  0  0  0  0  0  0  0  0
   11.4573   20.6669   -0.0732 C   0  0  0  0  0  0  0  0  0  0  0  0
   11.3735   19.6635   -0.9885 O   0  0  0  0  0  0  0  0  0  0  0  0
   12.7397   21.1720   -0.0350 N   0  0  0  0  0  0  0  0  0  0  0  0
   13.8115   20.6704   -0.9420 C   0  0  0  0  0  0  0  0  0  0  0  0
   14.8756   20.3155    0.0755 C   0  0  0  0  0  0  0  0  0  0  0  0
   14.7691   21.4241    1.0668 C   0  0  0  0  0  0  0  0  0  0  0  0
   13.4166   22.1215    0.7662 C   0  0  0  0  0  0  0  0  0  0  0  0
   13.7875   23.3854    0.1082 C   0  0  0  0  0  0  0  0  0  0  0  0
   14.2025   24.3456    0.7785 O   0  0  0  0  0  0  0  0  0  0  0  0
   13.6674   23.5062   -1.2975 N   0  0  0  0  0  0  0  0  0  0  0  0
   13.3351   22.7241   -1.9019 H   0  0  0  0  0  0  0  0  0  0  0  0
   14.0209   24.7858   -1.9436 C   0  0  0  0  0  0  0  0  0  0  0  0
   12.8078   25.5205   -2.3221 C   0  0  0  0  0  0  0  0  0  0  0  0
   12.9167   26.7178   -2.7837 O   0  0  0  0  0  0  0  0  0  0  0  0
   11.5376   25.0432   -2.2334 O   0  0  0  0  0  0  0  0  0  0  0  0
   10.9644   24.6131   -0.9888 C   0  0  0  0  0  0  0  0  0  0  0  0
   14.8673   24.4862   -3.1381 C   0  0  0  0  0  0  0  0  0  0  0  0
   15.3811   25.6308   -3.8794 C   0  0  0  0  0  0  0  0  0  0  0  0
   16.2467   26.4843   -3.1989 C   0  0  0  0  0  0  0  0  0  0  0  0
   16.7652   27.5548   -3.8689 C   0  0  0  0  0  0  0  0  0  0  0  0
   16.4641   27.8187   -5.1887 C   0  0  0  0  0  0  0  0  0  0  0  0
   15.5880   26.9359   -5.8455 C   0  0  0  0  0  0  0  0  0  0  0  0
   15.0630   25.8672   -5.1922 C   0  0  0  0  0  0  0  0  0  0  0  0
    9.7863   21.5654    2.9637 C   0  0  0  0  0  0  0  0  0  0  0  0
    8.7389   20.8204    2.9118 O   0  0  0  0  0  0  0  0  0  0  0  0
   10.5706   21.6379    1.8113 N   0  0  0  0  0  0  0  0  0  0  0  0
   11.4295   22.2155    1.7590 H   0  0  0  0  0  0  0  0  0  0  0  0
   10.0156   22.2461    4.2216 C   0  0  0  0  0  0  0  0  0  0  0  0
    9.3269   23.5078    4.3105 N   0  0  0  0  0  0  0  0  0  0  0  0
    9.3708   24.6176    3.4582 C   0  0  0  0  0  0  0  0  0  0  0  0
   10.0338   24.7683    2.4154 O   0  0  0  0  0  0  0  0  0  0  0  0
    8.6688   23.6286    5.1669 H   0  0  0  0  0  0  0  0  0  0  0  0
    8.5761   25.7534    3.7770 O   0  0  0  0  0  0  0  0  0  0  0  0
    7.1730   25.7054    3.7619 C   0  0  0  0  0  0  0  0  0  0  0  0
    6.5191   26.9472    3.3669 C   0  0  0  0  0  0  0  0  0  0  0  0
    5.3329   27.3282    3.9859 C   0  0  0  0  0  0  0  0  0  0  0  0
    4.6595   28.4779    3.6633 C   0  0  0  0  0  0  0  0  0  0  0  0
    5.1666   29.3170    2.6753 C   0  0  0  0  0  0  0  0  0  0  0  0
    6.3455   28.9470    2.0543 C   0  0  0  0  0  0  0  0  0  0  0  0
    7.0111   27.7846    2.3921 C   0  0  0  0  0  0  0  0  0  0  0  0
    9.7302   21.4489    5.4750 C   0  0  0  0  0  0  0  0  0  0  0  0
   10.8849   21.4469    6.4663 C   0  0  0  0  0  0  0  0  0  0  0  0
    7.2973   21.3671    6.1296 C   0  0  0  0  0  0  0  0  0  0  0  0
    8.5913   22.1545    6.2009 C   0  0  0  0  0  0  0  0  0  0  0  0
    8.9988   21.4698   -0.0202 C   0  0  0  0  0  0  0  0  0  0  0  0
    7.8363   20.6247   -0.4284 C   0  0  0  0  0  0  0  0  0  0  0  0
    6.5388   21.2206    0.0607 C   0  0  0  0  0  0  0  0  0  0  0  0
    5.4716   20.9681   -0.5384 O   0  0  0  0  0  0  0  0  0  0  0  0
    6.4796   22.0546    1.1735 O   0  0  0  0  0  0  0  0  0  0  0  0
    5.6840   22.1303    1.7628 H   0  0  0  0  0  0  0  0  0  0  0  0
 44 45  1  0  0  0
 45 42  1  0  0  0
 42 43  1  0  0  0
 42 29  1  0  0  0
 29 30  1  0  0  0
 30 31  1  0  0  0
 31 32  2  0  0  0
 31 34  1  0  0  0
 34 35  1  0  0  0
 35 36  1  0  0  0
 36 37  2  0  0  0
 37 38  1  0  0  0
 38 39  2  0  0  0
 39 40  1  0  0  0
 40 41  2  0  0  0
 29 25  1  0  0  0
 25 26  2  0  0  0
 25 27  1  0  0  0
 27  1  1  0  0  0
  1 46  1  0  0  0
 46 47  1  0  0  0
 47 48  1  0  0  0
 48 49  2  0  0  0
 48 50  1  0  0  0
  1  2  1  0  0  0
  2  3  2  0  0  0
  2  4  1  0  0  0
  4  5  1  0  0  0
  5  6  1  0  0  0
  6  7  1  0  0  0
  7  8  1  0  0  0
  8  9  1  0  0  0
  9 10  2  0  0  0
  9 11  1  0  0  0
 11 13  1  0  0  0
 13 18  1  0  0  0
 18 19  1  0  0  0
 19 20  2  0  0  0
 20 21  1  0  0  0
 21 22  2  0  0  0
 22 23  1  0  0  0
 23 24  2  0  0  0
 13 14  1  0  0  0
 14 15  2  0  0  0
 14 16  1  0  0  0
 16 17  1  0  0  0
 41 36  1  0  0  0
  8  4  1  0  0  0
 24 19  1  0  0  0
 30 33  1  0  0  0
 27 28  1  0  0  0
 50 51  1  0  0  0
 11 12  1  0  0  0
M  END
> <minimizedAffinity>
-8.30932

> <CNNscore>
0.1978837848

> <CNNaffinity>
7.3645844460

> <CNN_VS>
1.4573318958

> <CNNaffinity_variance>
0.1495906860

$$$$
[H]OC(=O)C([H])([H])C([H])([H])[C@@]([H])(C(=O)N1C([H])([H])C([H])([H])C([H])([H])[C@@]1([H])C(=O)N([H])[C@]([H])(C(=O)OC([H])([H])[H])C([H])([H])c1c([H])c([H])c([H])c([H])c1[H])N([H])C(=O)[C@@]([H])(N([H])C(=O)OC([H])([H])c1c([H])c([H])c([H])c([H])c1[H])[C@@]([H])(C([H])([H])[H])C([H])([H])C([H])([H])[H]


 51 53  0  0  0  0  0  0  0  0999 V2000
   10.6331   21.3209    1.9613 C   0  0  0  0  0  0  0  0  0  0  0  0
   11.0564   22.6112    1.4962 C   0  0  0  0  0  0  0  0  0  0  0  0
   10.8397   23.5392    2.4675 O   0  0  0  0  0  0  0  0  0  0  0  0
   11.6030   23.2079    0.3798 N   0  0  0  0  0  0  0  0  0  0  0  0
   11.9309   24.6619    0.3442 C   0  0  0  0  0  0  0  0  0  0  0  0
   11.1754   25.0739   -0.9020 C   0  0  0  0  0  0  0  0  0  0  0  0
   11.3992   23.9217   -1.8214 C   0  0  0  0  0  0  0  0  0  0  0  0
   11.9328   22.7733   -0.9257 C   0  0  0  0  0  0  0  0  0  0  0  0
   13.3682   22.6897   -1.2430 C   0  0  0  0  0  0  0  0  0  0  0  0
   14.0974   21.8774   -0.6499 O   0  0  0  0  0  0  0  0  0  0  0  0
   13.9196   23.5431   -2.2292 N   0  0  0  0  0  0  0  0  0  0  0  0
   13.3446   24.2319   -2.7608 H   0  0  0  0  0  0  0  0  0  0  0  0
   15.3644   23.4658   -2.5228 C   0  0  0  0  0  0  0  0  0  0  0  0
   16.0874   24.5325   -1.8199 C   0  0  0  0  0  0  0  0  0  0  0  0
   17.1513   25.0263   -2.3518 O   0  0  0  0  0  0  0  0  0  0  0  0
   15.7298   25.0709   -0.6236 O   0  0  0  0  0  0  0  0  0  0  0  0
   16.0678   24.4530    0.6279 C   0  0  0  0  0  0  0  0  0  0  0  0
   15.5453   23.5730   -4.0024 C   0  0  0  0  0  0  0  0  0  0  0  0
   15.0911   24.8076   -4.6291 C   0  0  0  0  0  0  0  0  0  0  0  0
   14.1359   25.5498   -3.9381 C   0  0  0  0  0  0  0  0  0  0  0  0
   13.7035   26.7236   -4.4848 C   0  0  0  0  0  0  0  0  0  0  0  0
   14.1772   27.1978   -5.6901 C   0  0  0  0  0  0  0  0  0  0  0  0
   15.1418   26.4239   -6.3601 C   0  0  0  0  0  0  0  0  0  0  0  0
   15.5811   25.2534   -5.8298 C   0  0  0  0  0  0  0  0  0  0  0  0
   10.4377   21.2424    4.4973 C   0  0  0  0  0  0  0  0  0  0  0  0
   11.5026   20.5218    4.4613 O   0  0  0  0  0  0  0  0  0  0  0  0
    9.9321   21.6884    3.2751 N   0  0  0  0  0  0  0  0  0  0  0  0
    9.0772   22.2700    3.2063 H   0  0  0  0  0  0  0  0  0  0  0  0
    9.8901   21.4950    5.8144 C   0  0  0  0  0  0  0  0  0  0  0  0
    9.5307   22.8747    6.0176 N   0  0  0  0  0  0  0  0  0  0  0  0
    8.5522   23.6509    5.3852 C   0  0  0  0  0  0  0  0  0  0  0  0
    7.7626   23.3179    4.4822 O   0  0  0  0  0  0  0  0  0  0  0  0
   10.0997   23.4054    6.7763 H   0  0  0  0  0  0  0  0  0  0  0  0
    8.3961   25.0075    5.7834 O   0  0  0  0  0  0  0  0  0  0  0  0
    8.6944   26.0735    4.9197 C   0  0  0  0  0  0  0  0  0  0  0  0
    7.5356   26.8051    4.4221 C   0  0  0  0  0  0  0  0  0  0  0  0
    6.2814   26.5675    4.9754 C   0  0  0  0  0  0  0  0  0  0  0  0
    5.1471   27.2126    4.5555 C   0  0  0  0  0  0  0  0  0  0  0  0
    5.2297   28.1514    3.5311 C   0  0  0  0  0  0  0  0  0  0  0  0
    6.4722   28.3948    2.9749 C   0  0  0  0  0  0  0  0  0  0  0  0
    7.6053   27.7354    3.4106 C   0  0  0  0  0  0  0  0  0  0  0  0
    8.7260   20.6245    6.2328 C   0  0  0  0  0  0  0  0  0  0  0  0
    8.3887   19.5387    5.2211 C   0  0  0  0  0  0  0  0  0  0  0  0
    9.0558   18.3700    7.3110 C   0  0  0  0  0  0  0  0  0  0  0  0
    9.1604   19.8728    7.4849 C   0  0  0  0  0  0  0  0  0  0  0  0
    9.8131   20.3551    1.2598 C   0  0  0  0  0  0  0  0  0  0  0  0
    8.8760   20.8057    0.1869 C   0  0  0  0  0  0  0  0  0  0  0  0
    7.5397   21.1981    0.7685 C   0  0  0  0  0  0  0  0  0  0  0  0
    6.5343   20.4869    0.5565 O   0  0  0  0  0  0  0  0  0  0  0  0
    7.3774   22.3402    1.5473 O   0  0  0  0  0  0  0  0  0  0  0  0
    6.6910   22.4275    2.2597 H   0  0  0  0  0  0  0  0  0  0  0  0
 44 45  1  0  0  0
 45 42  1  0  0  0
 42 43  1  0  0  0
 42 29  1  0  0  0
 29 30  1  0  0  0
 30 31  1  0  0  0
 31 32  2  0  0  0
 31 34  1  0  0  0
 34 35  1  0  0  0
 35 36  1  0  0  0
 36 37  2  0  0  0
 37 38  1  0  0  0
 38 39  2  0  0  0
 39 40  1  0  0  0
 40 41  2  0  0  0
 29 25  1  0  0  0
 25 26  2  0  0  0
 25 27  1  0  0  0
 27  1  1  0  0  0
  1 46  1  0  0  0
 46 47  1  0  0  0
 47 48  1  0  0  0
 48 49  2  0  0  0
 48 50  1  0  0  0
  1  2  1  0  0  0
  2  3  2  0  0  0
  2  4  1  0  0  0
  4  5  1  0  0  0
  5  6  1  0  0  0
  6  7  1  0  0  0
  7  8  1  0  0  0
  8  9  1  0  0  0
  9 10  2  0  0  0
  9 11  1  0  0  0
 11 13  1  0  0  0
 13 18  1  0  0  0
 18 19  1  0  0  0
 19 20  2  0  0  0
 20 21  1  0  0  0
 21 22  2  0  0  0
 22 23  1  0  0  0
 23 24  2  0  0  0
 13 14  1  0  0  0
 14 15  2  0  0  0
 14 16  1  0  0  0
 16 17  1  0  0  0
 41 36  1  0  0  0
  8  4  1  0  0  0
 24 19  1  0  0  0
 30 33  1  0  0  0
 27 28  1  0  0  0
 50 51  1  0  0  0
 11 12  1  0  0  0
M  END
> <minimizedAffinity>
-7.44258

> <CNNscore>
0.1890833676

> <CNNaffinity>
7.3093438148

> <CNN_VS>
1.3820753098

> <CNNaffinity_variance>
0.0106058139

$$$$
[H]OC(=O)C([H])([H])C([H])([H])[C@@]([H])(C(=O)N1C([H])([H])C([H])([H])C([H])([H])[C@@]1([H])C(=O)N([H])[C@]([H])(C(=O)OC([H])([H])[H])C([H])([H])c1c([H])c([H])c([H])c([H])c1[H])N([H])C(=O)[C@@]([H])(N([H])C(=O)OC([H])([H])c1c([H])c([H])c([H])c([H])c1[H])[C@@]([H])(C([H])([H])[H])C([H])([H])C([H])([H])[H]


 51 53  0  0  0  0  0  0  0  0999 V2000
   10.8386   21.2167    2.0365 C   0  0  0  0  0  0  0  0  0  0  0  0
   11.2243   22.5307    1.6062 C   0  0  0  0  0  0  0  0  0  0  0  0
   10.9794   23.4260    2.6012 O   0  0  0  0  0  0  0  0  0  0  0  0
   11.7541   23.1724    0.5068 N   0  0  0  0  0  0  0  0  0  0  0  0
   12.0391   24.6359    0.5101 C   0  0  0  0  0  0  0  0  0  0  0  0
   11.2731   25.0582   -0.7262 C   0  0  0  0  0  0  0  0  0  0  0  0
   11.5315   23.9376   -1.6751 C   0  0  0  0  0  0  0  0  0  0  0  0
   12.0978   22.7822   -0.8090 C   0  0  0  0  0  0  0  0  0  0  0  0
   13.5353   22.7491   -1.1260 C   0  0  0  0  0  0  0  0  0  0  0  0
   14.2823   21.9237   -0.5746 O   0  0  0  0  0  0  0  0  0  0  0  0
   14.0683   23.6666   -2.0637 N   0  0  0  0  0  0  0  0  0  0  0  0
   13.4783   24.3690   -2.5596 H   0  0  0  0  0  0  0  0  0  0  0  0
   15.5151   23.6387   -2.3566 C   0  0  0  0  0  0  0  0  0  0  0  0
   16.1945   24.7542   -1.6867 C   0  0  0  0  0  0  0  0  0  0  0  0
   15.8305   25.0883   -0.4975 O   0  0  0  0  0  0  0  0  0  0  0  0
   17.2072   25.4918   -2.2154 O   0  0  0  0  0  0  0  0  0  0  0  0
   17.0639   26.8890   -2.5146 C   0  0  0  0  0  0  0  0  0  0  0  0
   15.6915   23.7089   -3.8389 C   0  0  0  0  0  0  0  0  0  0  0  0
   15.1533   24.8869   -4.5067 C   0  0  0  0  0  0  0  0  0  0  0  0
   14.0939   25.5376   -3.8782 C   0  0  0  0  0  0  0  0  0  0  0  0
   13.5789   26.6581   -4.4639 C   0  0  0  0  0  0  0  0  0  0  0  0
   14.0687   27.1657   -5.6490 C   0  0  0  0  0  0  0  0  0  0  0  0
   15.1394   26.4845   -6.2556 C   0  0  0  0  0  0  0  0  0  0  0  0
   15.6618   25.3679   -5.6859 C   0  0  0  0  0  0  0  0  0  0  0  0
    8.9431   20.9254    3.7092 C   0  0  0  0  0  0  0  0  0  0  0  0
    9.7810   20.2280    4.3920 O   0  0  0  0  0  0  0  0  0  0  0  0
    9.3986   21.4625    2.5041 N   0  0  0  0  0  0  0  0  0  0  0  0
    8.7936   22.0335    1.8862 H   0  0  0  0  0  0  0  0  0  0  0  0
    7.6187   21.0588    4.2806 C   0  0  0  0  0  0  0  0  0  0  0  0
    6.5883   20.4961    3.4465 N   0  0  0  0  0  0  0  0  0  0  0  0
    6.0530   20.9641    2.2405 C   0  0  0  0  0  0  0  0  0  0  0  0
    6.3485   21.9960    1.6099 O   0  0  0  0  0  0  0  0  0  0  0  0
    6.1516   19.5647    3.7969 H   0  0  0  0  0  0  0  0  0  0  0  0
    5.0313   20.2032    1.6078 O   0  0  0  0  0  0  0  0  0  0  0  0
    5.2710   19.4690    0.4352 C   0  0  0  0  0  0  0  0  0  0  0  0
    4.5748   19.9568   -0.7493 C   0  0  0  0  0  0  0  0  0  0  0  0
    4.5482   19.1783   -1.9020 C   0  0  0  0  0  0  0  0  0  0  0  0
    3.9188   19.5734   -3.0540 C   0  0  0  0  0  0  0  0  0  0  0  0
    3.2708   20.8045   -3.0954 C   0  0  0  0  0  0  0  0  0  0  0  0
    3.2914   21.5855   -1.9543 C   0  0  0  0  0  0  0  0  0  0  0  0
    3.9306   21.1715   -0.8017 C   0  0  0  0  0  0  0  0  0  0  0  0
    7.4421   20.5350    5.6886 C   0  0  0  0  0  0  0  0  0  0  0  0
    6.3141   21.2161    6.4501 C   0  0  0  0  0  0  0  0  0  0  0  0
    5.9367   18.7190    6.5777 C   0  0  0  0  0  0  0  0  0  0  0  0
    7.0118   19.0781    5.5702 C   0  0  0  0  0  0  0  0  0  0  0  0
   10.8662   19.9917    1.2647 C   0  0  0  0  0  0  0  0  0  0  0  0
   10.8420   20.0452   -0.2282 C   0  0  0  0  0  0  0  0  0  0  0  0
    9.4396   20.2745   -0.7365 C   0  0  0  0  0  0  0  0  0  0  0  0
    8.4628   19.8419   -0.0881 O   0  0  0  0  0  0  0  0  0  0  0  0
    9.1834   20.9621   -1.9192 O   0  0  0  0  0  0  0  0  0  0  0  0
    8.3546   21.4837   -2.0841 H   0  0  0  0  0  0  0  0  0  0  0  0
 44 45  1  0  0  0
 45 42  1  0  0  0
 42 43  1  0  0  0
 42 29  1  0  0  0
 29 30  1  0  0  0
 30 31  1  0  0  0
 31 32  2  0  0  0
 31 34  1  0  0  0
 34 35  1  0  0  0
 35 36  1  0  0  0
 36 37  2  0  0  0
 37 38  1  0  0  0
 38 39  2  0  0  0
 39 40  1  0  0  0
 40 41  2  0  0  0
 29 25  1  0  0  0
 25 26  2  0  0  0
 25 27  1  0  0  0
 27  1  1  0  0  0
  1 46  1  0  0  0
 46 47  1  0  0  0
 47 48  1  0  0  0
 48 49  2  0  0  0
 48 50  1  0  0  0
  1  2  1  0  0  0
  2  3  2  0  0  0
  2  4  1  0  0  0
  4  5  1  0  0  0
  5  6  1  0  0  0
  6  7  1  0  0  0
  7  8  1  0  0  0
  8  9  1  0  0  0
  9 10  2  0  0  0
  9 11  1  0  0  0
 11 13  1  0  0  0
 13 18  1  0  0  0
 18 19  1  0  0  0
 19 20  2  0  0  0
 20 21  1  0  0  0
 21 22  2  0  0  0
 22 23  1  0  0  0
 23 24  2  0  0  0
 13 14  1  0  0  0
 14 15  2  0  0  0
 14 16  1  0  0  0
 16 17  1  0  0  0
 41 36  1  0  0  0
  8  4  1  0  0  0
 24 19  1  0  0  0
 30 33  1  0  0  0
 27 28  1  0  0  0
 50 51  1  0  0  0
 11 12  1  0  0  0
M  END
> <minimizedAffinity>
-7.79226

> <CNNscore>
0.1412649900

> <CNNaffinity>
7.2110505104

> <CNN_VS>
1.0186690092

> <CNNaffinity_variance>
0.0659785941

$$$$
[H]Oc1c([H])c([H])c([H])c(C2([H])C([H])([H])N(C([H])([H])C([H])([H])C([H])([H])C([H])([H])C([H])([H])C([H])([H])C([H])([H])C([H])([H])C([H])([H])[H])C([H])([H])C2([H])[H])c1[H]


 22 23  0  0  0  0  0  0  0  0999 V2000
   14.2204   24.1428   -0.3432 N   0  0  0  0  0  0  0  0  0  0  0  0
   15.4272   24.6821    0.2217 C   0  0  0  0  0  0  0  0  0  0  0  0
   16.3501   24.9769   -0.9340 C   0  0  0  0  0  0  0  0  0  0  0  0
   15.4895   24.7977   -2.1507 C   0  0  0  0  0  0  0  0  0  0  0  0
   14.0957   24.8159   -1.6448 C   0  0  0  0  0  0  0  0  0  0  0  0
   15.7474   25.8523   -3.1710 C   0  0  0  0  0  0  0  0  0  0  0  0
   16.7607   26.7552   -2.9342 C   0  0  0  0  0  0  0  0  0  0  0  0
   17.0475   27.7625   -3.8616 C   0  0  0  0  0  0  0  0  0  0  0  0
   16.2964   27.8317   -5.0142 C   0  0  0  0  0  0  0  0  0  0  0  0
   15.2944   26.9229   -5.2271 C   0  0  0  0  0  0  0  0  0  0  0  0
   14.5522   27.0117   -6.3928 O   0  0  0  0  0  0  0  0  0  0  0  0
   14.9943   25.9116   -4.3126 C   0  0  0  0  0  0  0  0  0  0  0  0
   14.7341   27.7320   -7.0862 H   0  0  0  0  0  0  0  0  0  0  0  0
   13.0458   24.3436    0.4388 C   0  0  0  0  0  0  0  0  0  0  0  0
   11.8744   24.8947   -0.3095 C   0  0  0  0  0  0  0  0  0  0  0  0
   10.9297   23.8638   -0.8176 C   0  0  0  0  0  0  0  0  0  0  0  0
   10.5033   22.8256    0.1659 C   0  0  0  0  0  0  0  0  0  0  0  0
   10.7119   21.3970   -0.3979 C   0  0  0  0  0  0  0  0  0  0  0  0
   12.0589   20.8947   -0.0517 C   0  0  0  0  0  0  0  0  0  0  0  0
   13.0528   20.6769   -1.1079 C   0  0  0  0  0  0  0  0  0  0  0  0
   14.8140   20.7683    0.6185 C   0  0  0  0  0  0  0  0  0  0  0  0
   14.4997   20.8623   -0.8321 C   0  0  0  0  0  0  0  0  0  0  0  0
 21 22  1  0  0  0
 22 20  1  0  0  0
 20 19  1  0  0  0
 19 18  1  0  0  0
 18 17  1  0  0  0
 17 16  1  0  0  0
 16 15  1  0  0  0
 15 14  1  0  0  0
 14  1  1  0  0  0
  1  2  1  0  0  0
  2  3  1  0  0  0
  3  4  1  0  0  0
  4  6  1  0  0  0
  6  7  2  0  0  0
  7  8  1  0  0  0
  8  9  2  0  0  0
  9 10  1  0  0  0
 10 11  1  0  0  0
 10 12  2  0  0  0
  4  5  1  0  0  0
  5  1  1  0  0  0
 12  6  1  0  0  0
 11 13  1  0  0  0
M  END
> <minimizedAffinity>
-7.75811

> <CNNscore>
0.5693356395

> <CNNaffinity>
6.8190865517

> <CNN_VS>
3.8823490143

> <CNNaffinity_variance>
0.2011633813

$$$$
[H]Oc1c([H])c([H])c([H])c(C2([H])C([H])([H])N(C([H])([H])C([H])([H])C([H])([H])C([H])([H])C([H])([H])C([H])([H])C([H])([H])C([H])([H])C([H])([H])[H])C([H])([H])C2([H])[H])c1[H]


 22 23  0  0  0  0  0  0  0  0999 V2000
   11.7917   23.8498   -0.0933 N   0  0  0  0  0  0  0  0  0  0  0  0
   10.7790   24.1902   -1.0550 C   0  0  0  0  0  0  0  0  0  0  0  0
   11.4058   25.1730   -2.0118 C   0  0  0  0  0  0  0  0  0  0  0  0
   12.8648   25.1538   -1.6600 C   0  0  0  0  0  0  0  0  0  0  0  0
   13.0511   23.9265   -0.8488 C   0  0  0  0  0  0  0  0  0  0  0  0
   13.7272   25.1797   -2.8746 C   0  0  0  0  0  0  0  0  0  0  0  0
   14.6422   24.1641   -3.0467 C   0  0  0  0  0  0  0  0  0  0  0  0
   15.4733   24.1382   -4.1717 C   0  0  0  0  0  0  0  0  0  0  0  0
   15.3572   25.1478   -5.1015 C   0  0  0  0  0  0  0  0  0  0  0  0
   14.4403   26.1464   -4.9083 C   0  0  0  0  0  0  0  0  0  0  0  0
   14.3411   27.1510   -5.8561 O   0  0  0  0  0  0  0  0  0  0  0  0
   13.6032   26.1882   -3.7918 C   0  0  0  0  0  0  0  0  0  0  0  0
   14.9307   27.1623   -6.6838 H   0  0  0  0  0  0  0  0  0  0  0  0
   11.6459   22.5657    0.5078 C   0  0  0  0  0  0  0  0  0  0  0  0
   11.3522   21.4511   -0.4447 C   0  0  0  0  0  0  0  0  0  0  0  0
   12.3906   20.3863   -0.4832 C   0  0  0  0  0  0  0  0  0  0  0  0
   13.6222   20.7015   -1.2646 C   0  0  0  0  0  0  0  0  0  0  0  0
   14.9014   20.4291   -0.4329 C   0  0  0  0  0  0  0  0  0  0  0  0
   14.9167   21.2684    0.7844 C   0  0  0  0  0  0  0  0  0  0  0  0
   15.9058   22.3426    0.9207 C   0  0  0  0  0  0  0  0  0  0  0  0
   16.5972   24.5609    0.0889 C   0  0  0  0  0  0  0  0  0  0  0  0
   15.5132   23.7598    0.7173 C   0  0  0  0  0  0  0  0  0  0  0  0
 21 22  1  0  0  0
 22 20  1  0  0  0
 20 19  1  0  0  0
 19 18  1  0  0  0
 18 17  1  0  0  0
 17 16  1  0  0  0
 16 15  1  0  0  0
 15 14  1  0  0  0
 14  1  1  0  0  0
  1  2  1  0  0  0
  2  3  1  0  0  0
  3  4  1  0  0  0
  4  6  1  0  0  0
  6  7  2  0  0  0
  7  8  1  0  0  0
  8  9  2  0  0  0
  9 10  1  0  0  0
 10 11  1  0  0  0
 10 12  2  0  0  0
  4  5  1  0  0  0
  5  1  1  0  0  0
 12  6  1  0  0  0
 11 13  1  0  0  0
M  END
> <minimizedAffinity>
-6.52871

> <CNNscore>
0.5673822165

> <CNNaffinity>
7.0333337784

> <CNN_VS>
3.9905884266

> <CNNaffinity_variance>
0.2357632667

$$$$
[H]Oc1c([H])c([H])c([H])c(C2([H])C([H])([H])N(C([H])([H])C([H])([H])C([H])([H])C([H])([H])C([H])([H])C([H])([H])C([H])([H])C([H])([H])C([H])([H])[H])C([H])([H])C2([H])[H])c1[H]


 22 23  0  0  0  0  0  0  0  0999 V2000
   14.5902   23.6062   -0.6095 N   0  0  0  0  0  0  0  0  0  0  0  0
   15.4623   24.4764    0.1310 C   0  0  0  0  0  0  0  0  0  0  0  0
   16.4167   25.0818   -0.8674 C   0  0  0  0  0  0  0  0  0  0  0  0
   15.8590   24.6826   -2.2025 C   0  0  0  0  0  0  0  0  0  0  0  0
   14.4681   24.2486   -1.9268 C   0  0  0  0  0  0  0  0  0  0  0  0
   15.9314   25.7975   -3.1881 C   0  0  0  0  0  0  0  0  0  0  0  0
   16.8596   26.7939   -2.9789 C   0  0  0  0  0  0  0  0  0  0  0  0
   16.9723   27.8613   -3.8761 C   0  0  0  0  0  0  0  0  0  0  0  0
   16.1370   27.8943   -4.9709 C   0  0  0  0  0  0  0  0  0  0  0  0
   15.2224   26.8923   -5.1573 C   0  0  0  0  0  0  0  0  0  0  0  0
   14.3930   26.9462   -6.2649 O   0  0  0  0  0  0  0  0  0  0  0  0
   15.0960   25.8200   -4.2724 C   0  0  0  0  0  0  0  0  0  0  0  0
   14.4484   27.7082   -6.9350 H   0  0  0  0  0  0  0  0  0  0  0  0
   13.3038   23.4050   -0.0295 C   0  0  0  0  0  0  0  0  0  0  0  0
   12.3167   24.4988   -0.2850 C   0  0  0  0  0  0  0  0  0  0  0  0
   11.2779   24.6475    0.7696 C   0  0  0  0  0  0  0  0  0  0  0  0
   10.9087   23.4022    1.5045 C   0  0  0  0  0  0  0  0  0  0  0  0
    9.9545   23.7086    2.6868 C   0  0  0  0  0  0  0  0  0  0  0  0
    9.0893   24.8647    2.3685 C   0  0  0  0  0  0  0  0  0  0  0  0
    7.8182   25.0450    3.0774 C   0  0  0  0  0  0  0  0  0  0  0  0
    8.7754   27.0008    4.2391 C   0  0  0  0  0  0  0  0  0  0  0  0
    7.5333   26.3065    3.8064 C   0  0  0  0  0  0  0  0  0  0  0  0
 21 22  1  0  0  0
 22 20  1  0  0  0
 20 19  1  0  0  0
 19 18  1  0  0  0
 18 17  1  0  0  0
 17 16  1  0  0  0
 16 15  1  0  0  0
 15 14  1  0  0  0
 14  1  1  0  0  0
  1  2  1  0  0  0
  2  3  1  0  0  0
  3  4  1  0  0  0
  4  6  1  0  0  0
  6  7  2  0  0  0
  7  8  1  0  0  0
  8  9  2  0  0  0
  9 10  1  0  0  0
 10 11  1  0  0  0
 10 12  2  0  0  0
  4  5  1  0  0  0
  5  1  1  0  0  0
 12  6  1  0  0  0
 11 13  1  0  0  0
M  END
> <minimizedAffinity>
-7.41426

> <CNNscore>
0.4665369093

> <CNNaffinity>
6.4066724777

> <CNN_VS>
2.9889490604

> <CNNaffinity_variance>
0.4750837684

$$$$
[H]Oc1c([H])c([H])c([H])c(C2([H])C([H])([H])N(C([H])([H])C([H])([H])C([H])([H])C([H])([H])C([H])([H])C([H])([H])C([H])([H])C([H])([H])C([H])([H])[H])C([H])([H])C2([H])[H])c1[H]


 22 23  0  0  0  0  0  0  0  0999 V2000
   11.3281   22.3372    0.5130 N   0  0  0  0  0  0  0  0  0  0  0  0
   10.6091   23.3770   -0.1712 C   0  0  0  0  0  0  0  0  0  0  0  0
    9.4137   23.7104    0.6856 C   0  0  0  0  0  0  0  0  0  0  0  0
    9.6610   22.9738    1.9698 C   0  0  0  0  0  0  0  0  0  0  0  0
   11.0995   22.6146    1.9390 C   0  0  0  0  0  0  0  0  0  0  0  0
    9.2962   23.7951    3.1580 C   0  0  0  0  0  0  0  0  0  0  0  0
    8.8183   23.1480    4.2765 C   0  0  0  0  0  0  0  0  0  0  0  0
    8.4653   23.8714    5.4207 C   0  0  0  0  0  0  0  0  0  0  0  0
    8.6056   25.2416    5.4048 C   0  0  0  0  0  0  0  0  0  0  0  0
    9.0827   25.8620    4.2811 C   0  0  0  0  0  0  0  0  0  0  0  0
    9.2153   27.2404    4.2878 O   0  0  0  0  0  0  0  0  0  0  0  0
    9.4395   25.1563    3.1307 C   0  0  0  0  0  0  0  0  0  0  0  0
    8.9668   27.7953    5.1020 H   0  0  0  0  0  0  0  0  0  0  0  0
   12.7242   22.2827    0.2311 C   0  0  0  0  0  0  0  0  0  0  0  0
   13.1375   22.9400   -1.0469 C   0  0  0  0  0  0  0  0  0  0  0  0
   14.4374   23.6601   -0.9749 C   0  0  0  0  0  0  0  0  0  0  0  0
   14.6687   24.6988   -2.0211 C   0  0  0  0  0  0  0  0  0  0  0  0
   13.3419   25.3835   -2.4371 C   0  0  0  0  0  0  0  0  0  0  0  0
   13.4965   26.0644   -3.7405 C   0  0  0  0  0  0  0  0  0  0  0  0
   14.6179   25.7171   -4.6195 C   0  0  0  0  0  0  0  0  0  0  0  0
   15.4981   26.4772   -6.7963 C   0  0  0  0  0  0  0  0  0  0  0  0
   15.3633   26.7760   -5.3456 C   0  0  0  0  0  0  0  0  0  0  0  0
 21 22  1  0  0  0
 22 20  1  0  0  0
 20 19  1  0  0  0
 19 18  1  0  0  0
 18 17  1  0  0  0
 17 16  1  0  0  0
 16 15  1  0  0  0
 15 14  1  0  0  0
 14  1  1  0  0  0
  1  2  1  0  0  0
  2  3  1  0  0  0
  3  4  1  0  0  0
  4  6  1  0  0  0
  6  7  2  0  0  0
  7  8  1  0  0  0
  8  9  2  0  0  0
  9 10  1  0  0  0
 10 11  1  0  0  0
 10 12  2  0  0  0
  4  5  1  0  0  0
  5  1  1  0  0  0
 12  6  1  0  0  0
 11 13  1  0  0  0
M  END
> <minimizedAffinity>
-6.79225

> <CNNscore>
0.4390421808

> <CNNaffinity>
5.9025907516

> <CNN_VS>
2.5914862156

> <CNNaffinity_variance>
0.0833806694

$$$$
[H]Oc1c([H])c([H])c([H])c(C2([H])C([H])([H])N(C([H])([H])C([H])([H])C([H])([H])C([H])([H])C([H])([H])C([H])([H])C([H])([H])C([H])([H])C([H])([H])[H])C([H])([H])C2([H])[H])c1[H]


 22 23  0  0  0  0  0  0  0  0999 V2000
   14.6645   24.2762   -0.7916 N   0  0  0  0  0  0  0  0  0  0  0  0
   15.8202   25.0812   -0.5044 C   0  0  0  0  0  0  0  0  0  0  0  0
   16.5733   25.2331   -1.8021 C   0  0  0  0  0  0  0  0  0  0  0  0
   15.6408   24.6780   -2.8390 C   0  0  0  0  0  0  0  0  0  0  0  0
   14.3149   24.6232   -2.1774 C   0  0  0  0  0  0  0  0  0  0  0  0
   15.6344   25.5062   -4.0775 C   0  0  0  0  0  0  0  0  0  0  0  0
   15.4144   24.8758   -5.2826 C   0  0  0  0  0  0  0  0  0  0  0  0
   15.3939   25.6071   -6.4750 C   0  0  0  0  0  0  0  0  0  0  0  0
   15.5980   26.9682   -6.4180 C   0  0  0  0  0  0  0  0  0  0  0  0
   15.8147   27.5720   -5.2082 C   0  0  0  0  0  0  0  0  0  0  0  0
   16.0175   28.9415   -5.1750 O   0  0  0  0  0  0  0  0  0  0  0  0
   15.8387   26.8580   -4.0088 C   0  0  0  0  0  0  0  0  0  0  0  0
   16.0099   29.5015   -6.0229 H   0  0  0  0  0  0  0  0  0  0  0  0
   13.5516   24.4876    0.0734 C   0  0  0  0  0  0  0  0  0  0  0  0
   12.3502   25.0941   -0.5783 C   0  0  0  0  0  0  0  0  0  0  0  0
   11.1126   24.2759   -0.4677 C   0  0  0  0  0  0  0  0  0  0  0  0
   11.1588   22.9296   -1.1098 C   0  0  0  0  0  0  0  0  0  0  0  0
   10.8658   21.8062   -0.0831 C   0  0  0  0  0  0  0  0  0  0  0  0
   12.0633   20.9622    0.1177 C   0  0  0  0  0  0  0  0  0  0  0  0
   12.9469   20.6640   -1.0141 C   0  0  0  0  0  0  0  0  0  0  0  0
   14.8711   20.8495    0.5202 C   0  0  0  0  0  0  0  0  0  0  0  0
   14.4147   20.8524   -0.8953 C   0  0  0  0  0  0  0  0  0  0  0  0
 21 22  1  0  0  0
 22 20  1  0  0  0
 20 19  1  0  0  0
 19 18  1  0  0  0
 18 17  1  0  0  0
 17 16  1  0  0  0
 16 15  1  0  0  0
 15 14  1  0  0  0
 14  1  1  0  0  0
  1  2  1  0  0  0
  2  3  1  0  0  0
  3  4  1  0  0  0
  4  6  1  0  0  0
  6  7  2  0  0  0
  7  8  1  0  0  0
  8  9  2  0  0  0
  9 10  1  0  0  0
 10 11  1  0  0  0
 10 12  2  0  0  0
  4  5  1  0  0  0
  5  1  1  0  0  0
 12  6  1  0  0  0
 11 13  1  0  0  0
M  END
> <minimizedAffinity>
-7.96126

> <CNNscore>
0.4269026220

> <CNNaffinity>
6.5651307106

> <CNN_VS>
2.8026714325

> <CNNaffinity_variance>
0.2324057519

$$$$
[H]Oc1c([H])c([H])c([H])c(C2([H])C([H])([H])N(C([H])([H])C([H])([H])C([H])([H])C([H])([H])C([H])([H])C([H])([H])C([H])([H])C([H])([H])C([H])([H])[H])C([H])([H])C2([H])[H])c1[H]


 22 23  0  0  0  0  0  0  0  0999 V2000
   14.1013   23.2253    0.5266 N   0  0  0  0  0  0  0  0  0  0  0  0
   14.3321   22.0746   -0.3034 C   0  0  0  0  0  0  0  0  0  0  0  0
   13.2478   21.0801    0.0271 C   0  0  0  0  0  0  0  0  0  0  0  0
   12.2911   21.8482    0.8917 C   0  0  0  0  0  0  0  0  0  0  0  0
   12.6397   23.2743    0.6822 C   0  0  0  0  0  0  0  0  0  0  0  0
   10.8725   21.5446    0.5525 C   0  0  0  0  0  0  0  0  0  0  0  0
   10.5997   20.3772   -0.1265 C   0  0  0  0  0  0  0  0  0  0  0  0
    9.2845   20.0420   -0.4656 C   0  0  0  0  0  0  0  0  0  0  0  0
    8.2706   20.9026   -0.1068 C   0  0  0  0  0  0  0  0  0  0  0  0
    8.5669   22.0570    0.5675 C   0  0  0  0  0  0  0  0  0  0  0  0
    7.5315   22.9072    0.9180 O   0  0  0  0  0  0  0  0  0  0  0  0
    9.8731   22.4074    0.9138 C   0  0  0  0  0  0  0  0  0  0  0  0
    6.5655   22.6938    0.6857 H   0  0  0  0  0  0  0  0  0  0  0  0
   14.5902   24.4566    0.0008 C   0  0  0  0  0  0  0  0  0  0  0  0
   15.5181   24.3228   -1.1641 C   0  0  0  0  0  0  0  0  0  0  0  0
   15.0584   25.0149   -2.3983 C   0  0  0  0  0  0  0  0  0  0  0  0
   13.5813   25.0782   -2.6013 C   0  0  0  0  0  0  0  0  0  0  0  0
   13.1791   26.3306   -3.4210 C   0  0  0  0  0  0  0  0  0  0  0  0
   14.3321   26.8336   -4.1982 C   0  0  0  0  0  0  0  0  0  0  0  0
   14.3868   26.6202   -5.6481 C   0  0  0  0  0  0  0  0  0  0  0  0
   15.6792   25.8565   -7.6070 C   0  0  0  0  0  0  0  0  0  0  0  0
   15.6815   26.6848   -6.3718 C   0  0  0  0  0  0  0  0  0  0  0  0
 21 22  1  0  0  0
 22 20  1  0  0  0
 20 19  1  0  0  0
 19 18  1  0  0  0
 18 17  1  0  0  0
 17 16  1  0  0  0
 16 15  1  0  0  0
 15 14  1  0  0  0
 14  1  1  0  0  0
  1  2  1  0  0  0
  2  3  1  0  0  0
  3  4  1  0  0  0
  4  6  1  0  0  0
  6  7  2  0  0  0
  7  8  1  0  0  0
  8  9  2  0  0  0
  9 10  1  0  0  0
 10 11  1  0  0  0
 10 12  2  0  0  0
  4  5  1  0  0  0
  5  1  1  0  0  0
 12  6  1  0  0  0
 11 13  1  0  0  0
M  END
> <minimizedAffinity>
-6.92077

> <CNNscore>
0.4154875278

> <CNNaffinity>
6.4004569054

> <CNN_VS>
2.6593101025

> <CNNaffinity_variance>
0.0521456003

$$$$
[H]Oc1c([H])c([H])c([H])c(C2([H])C([H])([H])N(C([H])([H])C([H])([H])C([H])([H])C([H])([H])C([H])([H])C([H])([H])C([H])([H])C([H])([H])C([H])([H])[H])C([H])([H])C2([H])[H])c1[H]


 22 23  0  0  0  0  0  0  0  0999 V2000
   11.3258   23.7531    0.1381 N   0  0  0  0  0  0  0  0  0  0  0  0
   11.7537   25.0717    0.5183 C   0  0  0  0  0  0  0  0  0  0  0  0
   13.0997   25.2906   -0.1255 C   0  0  0  0  0  0  0  0  0  0  0  0
   13.2573   24.1269   -1.0603 C   0  0  0  0  0  0  0  0  0  0  0  0
   11.8951   23.5587   -1.2039 C   0  0  0  0  0  0  0  0  0  0  0  0
   13.8510   24.5399   -2.3628 C   0  0  0  0  0  0  0  0  0  0  0  0
   14.8475   23.7568   -2.9031 C   0  0  0  0  0  0  0  0  0  0  0  0
   15.4358   24.0969   -4.1259 C   0  0  0  0  0  0  0  0  0  0  0  0
   14.9980   25.2293   -4.7766 C   0  0  0  0  0  0  0  0  0  0  0  0
   14.0062   25.9917   -4.2195 C   0  0  0  0  0  0  0  0  0  0  0  0
   13.5820   27.1258   -4.8914 O   0  0  0  0  0  0  0  0  0  0  0  0
   13.4082   25.6675   -3.0004 C   0  0  0  0  0  0  0  0  0  0  0  0
   13.9893   27.4014   -5.7806 H   0  0  0  0  0  0  0  0  0  0  0  0
    9.9139   23.5598    0.1158 C   0  0  0  0  0  0  0  0  0  0  0  0
    9.2507   23.5853    1.4558 C   0  0  0  0  0  0  0  0  0  0  0  0
    9.9895   22.8550    2.5209 C   0  0  0  0  0  0  0  0  0  0  0  0
   10.2552   21.4100    2.2596 C   0  0  0  0  0  0  0  0  0  0  0  0
   11.7495   21.0635    2.4815 C   0  0  0  0  0  0  0  0  0  0  0  0
   12.4267   20.8360    1.1868 C   0  0  0  0  0  0  0  0  0  0  0  0
   13.8857   20.9523    1.0934 C   0  0  0  0  0  0  0  0  0  0  0  0
   13.6290   20.4438   -1.3080 C   0  0  0  0  0  0  0  0  0  0  0  0
   14.5731   20.7916   -0.2127 C   0  0  0  0  0  0  0  0  0  0  0  0
 21 22  1  0  0  0
 22 20  1  0  0  0
 20 19  1  0  0  0
 19 18  1  0  0  0
 18 17  1  0  0  0
 17 16  1  0  0  0
 16 15  1  0  0  0
 15 14  1  0  0  0
 14  1  1  0  0  0
  1  2  1  0  0  0
  2  3  1  0  0  0
  3  4  1  0  0  0
  4  6  1  0  0  0
  6  7  2  0  0  0
  7  8  1  0  0  0
  8  9  2  0  0  0
  9 10  1  0  0  0
 10 11  1  0  0  0
 10 12  2  0  0  0
  4  5  1  0  0  0
  5  1  1  0  0  0
 12  6  1  0  0  0
 11 13  1  0  0  0
M  END
> <minimizedAffinity>
-6.83182

> <CNNscore>
0.4132020175

> <CNNaffinity>
6.5308074951

> <CNN_VS>
2.6985428333

> <CNNaffinity_variance>
0.0246063937

$$$$
[H]Oc1c([H])c([H])c([H])c(C2([H])C([H])([H])N(C([H])([H])C([H])([H])C([H])([H])C([H])([H])C([H])([H])C([H])([H])C([H])([H])C([H])([H])C([H])([H])[H])C([H])([H])C2([H])[H])c1[H]


 22 23  0  0  0  0  0  0  0  0999 V2000
   12.2236   23.9273    0.3313 N   0  0  0  0  0  0  0  0  0  0  0  0
   11.1326   23.9000   -0.6042 C   0  0  0  0  0  0  0  0  0  0  0  0
   11.5066   24.8309   -1.7301 C   0  0  0  0  0  0  0  0  0  0  0  0
   12.9466   25.1662   -1.4712 C   0  0  0  0  0  0  0  0  0  0  0  0
   13.4142   24.1434   -0.5046 C   0  0  0  0  0  0  0  0  0  0  0  0
   13.7460   25.1808   -2.7283 C   0  0  0  0  0  0  0  0  0  0  0  0
   14.6413   24.1561   -2.9440 C   0  0  0  0  0  0  0  0  0  0  0  0
   15.4135   24.1194   -4.1099 C   0  0  0  0  0  0  0  0  0  0  0  0
   15.2597   25.1279   -5.0355 C   0  0  0  0  0  0  0  0  0  0  0  0
   14.3634   26.1358   -4.7985 C   0  0  0  0  0  0  0  0  0  0  0  0
   14.2255   27.1391   -5.7429 O   0  0  0  0  0  0  0  0  0  0  0  0
   13.5849   26.1884   -3.6409 C   0  0  0  0  0  0  0  0  0  0  0  0
   14.7721   27.1427   -6.5996 H   0  0  0  0  0  0  0  0  0  0  0  0
   12.3725   22.7491    1.1195 C   0  0  0  0  0  0  0  0  0  0  0  0
   11.8098   21.5050    0.5098 C   0  0  0  0  0  0  0  0  0  0  0  0
   11.2358   20.5453    1.4911 C   0  0  0  0  0  0  0  0  0  0  0  0
   12.0654   20.2722    2.7011 C   0  0  0  0  0  0  0  0  0  0  0  0
   11.3172   20.6720    3.9982 C   0  0  0  0  0  0  0  0  0  0  0  0
    9.9803   21.2169    3.6785 C   0  0  0  0  0  0  0  0  0  0  0  0
    9.7088   22.6462    3.8638 C   0  0  0  0  0  0  0  0  0  0  0  0
    9.6134   24.8394    2.7362 C   0  0  0  0  0  0  0  0  0  0  0  0
    9.0966   23.4453    2.7726 C   0  0  0  0  0  0  0  0  0  0  0  0
 21 22  1  0  0  0
 22 20  1  0  0  0
 20 19  1  0  0  0
 19 18  1  0  0  0
 18 17  1  0  0  0
 17 16  1  0  0  0
 16 15  1  0  0  0
 15 14  1  0  0  0
 14  1  1  0  0  0
  1  2  1  0  0  0
  2  3  1  0  0  0
  3  4  1  0  0  0
  4  6  1  0  0  0
  6  7  2  0  0  0
  7  8  1  0  0  0
  8  9  2  0  0  0
  9 10  1  0  0  0
 10 11  1  0  0  0
 10 12  2  0  0  0
  4  5  1  0  0  0
  5  1  1  0  0  0
 12  6  1  0  0  0
 11 13  1  0  0  0
M  END
> <minimizedAffinity>
-7.00147

> <CNNscore>
0.4103794694

> <CNNaffinity>
6.3371124268

> <CNN_VS>
2.6006207466

> <CNNaffinity_variance>
0.1373929679

$$$$
[H]Oc1c([H])c([H])c([H])c(C2([H])C([H])([H])N(C([H])([H])C([H])([H])C([H])([H])C([H])([H])C([H])([H])C([H])([H])C([H])([H])C([H])([H])C([H])([H])[H])C([H])([H])C2([H])[H])c1[H]


 22 23  0  0  0  0  0  0  0  0999 V2000
   13.7685   23.8424   -1.5788 N   0  0  0  0  0  0  0  0  0  0  0  0
   14.8095   24.5770   -0.9133 C   0  0  0  0  0  0  0  0  0  0  0  0
   15.8352   24.9194   -1.9644 C   0  0  0  0  0  0  0  0  0  0  0  0
   15.1769   24.5456   -3.2605 C   0  0  0  0  0  0  0  0  0  0  0  0
   13.7365   24.4061   -2.9368 C   0  0  0  0  0  0  0  0  0  0  0  0
   15.4345   25.5569   -4.3237 C   0  0  0  0  0  0  0  0  0  0  0  0
   15.6405   26.8650   -3.9436 C   0  0  0  0  0  0  0  0  0  0  0  0
   15.8910   27.8534   -4.9015 C   0  0  0  0  0  0  0  0  0  0  0  0
   15.9270   27.4911   -6.2299 C   0  0  0  0  0  0  0  0  0  0  0  0
   15.7191   26.1844   -6.5830 C   0  0  0  0  0  0  0  0  0  0  0  0
   15.7598   25.8432   -7.9244 O   0  0  0  0  0  0  0  0  0  0  0  0
   15.4677   25.1853   -5.6408 C   0  0  0  0  0  0  0  0  0  0  0  0
   15.9380   26.5370   -8.6452 H   0  0  0  0  0  0  0  0  0  0  0  0
   12.4830   23.9312   -0.9696 C   0  0  0  0  0  0  0  0  0  0  0  0
   12.3237   25.0486    0.0113 C   0  0  0  0  0  0  0  0  0  0  0  0
   11.2683   24.8216    1.0351 C   0  0  0  0  0  0  0  0  0  0  0  0
   10.7551   23.4248    1.1471 C   0  0  0  0  0  0  0  0  0  0  0  0
    9.3161   23.3072    0.5835 C   0  0  0  0  0  0  0  0  0  0  0  0
    9.0150   21.9061    0.2192 C   0  0  0  0  0  0  0  0  0  0  0  0
    7.7565   21.2910    0.6536 C   0  0  0  0  0  0  0  0  0  0  0  0
    7.8354   19.9809   -1.4364 C   0  0  0  0  0  0  0  0  0  0  0  0
    7.1291   20.2102   -0.1478 C   0  0  0  0  0  0  0  0  0  0  0  0
 21 22  1  0  0  0
 22 20  1  0  0  0
 20 19  1  0  0  0
 19 18  1  0  0  0
 18 17  1  0  0  0
 17 16  1  0  0  0
 16 15  1  0  0  0
 15 14  1  0  0  0
 14  1  1  0  0  0
  1  2  1  0  0  0
  2  3  1  0  0  0
  3  4  1  0  0  0
  4  6  1  0  0  0
  6  7  2  0  0  0
  7  8  1  0  0  0
  8  9  2  0  0  0
  9 10  1  0  0  0
 10 11  1  0  0  0
 10 12  2  0  0  0
  4  5  1  0  0  0
  5  1  1  0  0  0
 12  6  1  0  0  0
 11 13  1  0  0  0
M  END
> <minimizedAffinity>
-6.41170

> <CNNscore>
0.3724999428

> <CNNaffinity>
6.3513321877

> <CNN_VS>
2.3658709526

> <CNNaffinity_variance>
0.2107462436

$$$$
[H]OC(=O)/C([H])=C(\[H])c1c([H])c([H])c(Oc2c(-c3c([H])c([H])c(OC(F)(F)F)c([H])c3C([H])([H])[H])c(=O)oc3c([H])c(OC([H])([H])C([H])([H])[H])c([H])c([H])c23)c([H])c1[H]


 39 42  0  0  0  0  0  0  0  0999 V2000
   14.8375   25.8259   -6.8173 C   0  0  0  0  0  0  0  0  0  0  0  0
   14.4669   24.5630   -6.4251 C   0  0  0  0  0  0  0  0  0  0  0  0
   14.8542   24.1202   -5.1793 C   0  0  0  0  0  0  0  0  0  0  0  0
   15.5991   24.9026   -4.3195 C   0  0  0  0  0  0  0  0  0  0  0  0
   15.9954   24.4601   -3.0457 C   0  0  0  0  0  0  0  0  0  0  0  0
   16.7312   25.3625   -2.3053 C   0  0  0  0  0  0  0  0  0  0  0  0
   17.0762   26.6344   -2.7581 C   0  0  0  0  0  0  0  0  0  0  0  0
   17.7554   27.4270   -2.0358 O   0  0  0  0  0  0  0  0  0  0  0  0
   16.6807   26.9848   -3.9445 O   0  0  0  0  0  0  0  0  0  0  0  0
   15.9723   26.1665   -4.7041 C   0  0  0  0  0  0  0  0  0  0  0  0
   15.5778   26.6068   -5.9638 C   0  0  0  0  0  0  0  0  0  0  0  0
   17.2147   25.0082   -0.9870 C   0  0  0  0  0  0  0  0  0  0  0  0
   16.4530   25.3008    0.1051 C   0  0  0  0  0  0  0  0  0  0  0  0
   16.8802   24.9760    1.3676 C   0  0  0  0  0  0  0  0  0  0  0  0
   18.0917   24.3484    1.5258 C   0  0  0  0  0  0  0  0  0  0  0  0
   18.8658   24.0511    0.4186 C   0  0  0  0  0  0  0  0  0  0  0  0
   18.4230   24.3830   -0.8345 C   0  0  0  0  0  0  0  0  0  0  0  0
   19.3106   24.0347   -1.9740 C   0  0  0  0  0  0  0  0  0  0  0  0
   18.5275   24.0171    2.8141 O   0  0  0  0  0  0  0  0  0  0  0  0
   19.7284   24.5681    3.3434 C   0  0  0  0  0  0  0  0  0  0  0  0
   19.8958   24.0855    4.6177 F   0  0  0  0  0  0  0  0  0  0  0  0
   20.7953   24.1927    2.5482 F   0  0  0  0  0  0  0  0  0  0  0  0
   19.6914   25.9545    3.3527 F   0  0  0  0  0  0  0  0  0  0  0  0
   14.4577   26.2812   -8.0597 O   0  0  0  0  0  0  0  0  0  0  0  0
   16.5468   25.4371   -8.8669 C   0  0  0  0  0  0  0  0  0  0  0  0
   15.2827   26.1940   -9.2053 C   0  0  0  0  0  0  0  0  0  0  0  0
   15.6307   23.2225   -2.6697 O   0  0  0  0  0  0  0  0  0  0  0  0
   14.7479   22.6920   -1.8028 C   0  0  0  0  0  0  0  0  0  0  0  0
   13.7014   23.3429   -1.2047 C   0  0  0  0  0  0  0  0  0  0  0  0
   12.8217   22.7362   -0.3088 C   0  0  0  0  0  0  0  0  0  0  0  0
   12.9790   21.3944    0.0246 C   0  0  0  0  0  0  0  0  0  0  0  0
   14.0221   20.7178   -0.5625 C   0  0  0  0  0  0  0  0  0  0  0  0
   14.8767   21.3378   -1.4431 C   0  0  0  0  0  0  0  0  0  0  0  0
   12.0510   20.7833    0.9601 C   0  0  0  0  0  0  0  0  0  0  0  0
   12.0879   20.9606    2.2651 C   0  0  0  0  0  0  0  0  0  0  0  0
   11.0852   20.2814    3.1087 C   0  0  0  0  0  0  0  0  0  0  0  0
   11.4080   19.3923    3.9263 O   0  0  0  0  0  0  0  0  0  0  0  0
    9.7503   20.6178    3.0120 O   0  0  0  0  0  0  0  0  0  0  0  0
    9.2383   21.0928    3.7643 H   0  0  0  0  0  0  0  0  0  0  0  0
 25 26  1  0  0  0
 26 24  1  0  0  0
 24  1  1  0  0  0
  1  2  2  0  0  0
  2  3  1  0  0  0
  3  4  2  0  0  0
  4  5  1  0  0  0
  5 27  1  0  0  0
 27 28  1  0  0  0
 28 29  2  0  0  0
 29 30  1  0  0  0
 30 31  2  0  0  0
 31 34  1  0  0  0
 34 35  2  0  0  0
 35 36  1  0  0  0
 36 37  2  0  0  0
 36 38  1  0  0  0
 31 32  1  0  0  0
 32 33  2  0  0  0
  5  6  2  0  0  0
  6 12  1  0  0  0
 12 13  2  0  0  0
 13 14  1  0  0  0
 14 15  2  0  0  0
 15 19  1  0  0  0
 19 20  1  0  0  0
 20 21  1  0  0  0
 20 22  1  0  0  0
 20 23  1  0  0  0
 15 16  1  0  0  0
 16 17  2  0  0  0
 17 18  1  0  0  0
  6  7  1  0  0  0
  7  8  2  0  0  0
  7  9  1  0  0  0
  9 10  1  0  0  0
 10 11  2  0  0  0
 11  1  1  0  0  0
 10  4  1  0  0  0
 33 28  1  0  0  0
 17 12  1  0  0  0
 38 39  1  0  0  0
M  END
> <minimizedAffinity>
19.25861

> <CNNscore>
0.6491461396

> <CNNaffinity>
7.6949453354

> <CNN_VS>
4.9951438904

> <CNNaffinity_variance>
0.6857322454

$$$$
[H]OC(=O)/C([H])=C(\[H])c1c([H])c([H])c(Oc2c(-c3c([H])c([H])c(OC(F)(F)F)c([H])c3C([H])([H])[H])c(=O)oc3c([H])c(OC([H])([H])C([H])([H])[H])c([H])c([H])c23)c([H])c1[H]


 39 42  0  0  0  0  0  0  0  0999 V2000
   14.3108   20.4699   -0.7998 C   0  0  0  0  0  0  0  0  0  0  0  0
   13.5075   21.3641   -0.1355 C   0  0  0  0  0  0  0  0  0  0  0  0
   13.4372   22.6586   -0.6019 C   0  0  0  0  0  0  0  0  0  0  0  0
   14.1455   23.0808   -1.7092 C   0  0  0  0  0  0  0  0  0  0  0  0
   14.0768   24.3983   -2.1937 C   0  0  0  0  0  0  0  0  0  0  0  0
   14.8404   24.6607   -3.3127 C   0  0  0  0  0  0  0  0  0  0  0  0
   15.6371   23.7086   -3.9453 C   0  0  0  0  0  0  0  0  0  0  0  0
   16.3210   24.0024   -4.9735 O   0  0  0  0  0  0  0  0  0  0  0  0
   15.6588   22.5084   -3.4494 O   0  0  0  0  0  0  0  0  0  0  0  0
   14.9497   22.1923   -2.3790 C   0  0  0  0  0  0  0  0  0  0  0  0
   15.0160   20.8868   -1.9021 C   0  0  0  0  0  0  0  0  0  0  0  0
   14.8672   25.9898   -3.8873 C   0  0  0  0  0  0  0  0  0  0  0  0
   16.0648   26.5503   -4.2191 C   0  0  0  0  0  0  0  0  0  0  0  0
   16.1253   27.8060   -4.7681 C   0  0  0  0  0  0  0  0  0  0  0  0
   14.9605   28.5015   -4.9833 C   0  0  0  0  0  0  0  0  0  0  0  0
   13.7446   27.9341   -4.6471 C   0  0  0  0  0  0  0  0  0  0  0  0
   13.7036   26.6790   -4.0997 C   0  0  0  0  0  0  0  0  0  0  0  0
   12.3619   26.1377   -3.7617 C   0  0  0  0  0  0  0  0  0  0  0  0
   15.0222   29.7828   -5.5436 O   0  0  0  0  0  0  0  0  0  0  0  0
   15.9367   30.0776   -6.5936 C   0  0  0  0  0  0  0  0  0  0  0  0
   15.5368   31.2455   -7.1945 F   0  0  0  0  0  0  0  0  0  0  0  0
   17.2074   30.2234   -6.0685 F   0  0  0  0  0  0  0  0  0  0  0  0
   15.9924   29.0502   -7.5235 F   0  0  0  0  0  0  0  0  0  0  0  0
   14.3909   19.1732   -0.3445 O   0  0  0  0  0  0  0  0  0  0  0  0
   16.1332   19.9279    1.1126 C   0  0  0  0  0  0  0  0  0  0  0  0
   15.2635   18.7654    0.6914 C   0  0  0  0  0  0  0  0  0  0  0  0
   13.2902   25.2682   -1.5374 O   0  0  0  0  0  0  0  0  0  0  0  0
   12.3298   25.1900   -0.5973 C   0  0  0  0  0  0  0  0  0  0  0  0
   11.1059   24.5894   -0.7307 C   0  0  0  0  0  0  0  0  0  0  0  0
   10.1494   24.5459    0.2831 C   0  0  0  0  0  0  0  0  0  0  0  0
   10.4118   25.1334    1.5170 C   0  0  0  0  0  0  0  0  0  0  0  0
   11.6339   25.7430    1.6770 C   0  0  0  0  0  0  0  0  0  0  0  0
   12.5610   25.7731    0.6623 C   0  0  0  0  0  0  0  0  0  0  0  0
    9.4008   25.0761    2.5583 C   0  0  0  0  0  0  0  0  0  0  0  0
    9.0093   26.1129    3.2706 C   0  0  0  0  0  0  0  0  0  0  0  0
    7.9707   25.9222    4.3018 C   0  0  0  0  0  0  0  0  0  0  0  0
    7.4068   24.8192    4.4706 O   0  0  0  0  0  0  0  0  0  0  0  0
    7.5940   26.9725    5.1140 O   0  0  0  0  0  0  0  0  0  0  0  0
    7.7936   26.9994    6.1205 H   0  0  0  0  0  0  0  0  0  0  0  0
 25 26  1  0  0  0
 26 24  1  0  0  0
 24  1  1  0  0  0
  1  2  2  0  0  0
  2  3  1  0  0  0
  3  4  2  0  0  0
  4  5  1  0  0  0
  5 27  1  0  0  0
 27 28  1  0  0  0
 28 29  2  0  0  0
 29 30  1  0  0  0
 30 31  2  0  0  0
 31 34  1  0  0  0
 34 35  2  0  0  0
 35 36  1  0  0  0
 36 37  2  0  0  0
 36 38  1  0  0  0
 31 32  1  0  0  0
 32 33  2  0  0  0
  5  6  2  0  0  0
  6 12  1  0  0  0
 12 13  2  0  0  0
 13 14  1  0  0  0
 14 15  2  0  0  0
 15 19  1  0  0  0
 19 20  1  0  0  0
 20 21  1  0  0  0
 20 22  1  0  0  0
 20 23  1  0  0  0
 15 16  1  0  0  0
 16 17  2  0  0  0
 17 18  1  0  0  0
  6  7  1  0  0  0
  7  8  2  0  0  0
  7  9  1  0  0  0
  9 10  1  0  0  0
 10 11  2  0  0  0
 11  1  1  0  0  0
 10  4  1  0  0  0
 33 28  1  0  0  0
 17 12  1  0  0  0
 38 39  1  0  0  0
M  END
> <minimizedAffinity>
11.44931

> <CNNscore>
0.6082534194

> <CNNaffinity>
7.3708410263

> <CNN_VS>
4.4833393097

> <CNNaffinity_variance>
0.7115486860

$$$$
[H]OC(=O)/C([H])=C(\[H])c1c([H])c([H])c(Oc2c(-c3c([H])c([H])c(OC(F)(F)F)c([H])c3C([H])([H])[H])c(=O)oc3c([H])c(OC([H])([H])C([H])([H])[H])c([H])c([H])c23)c([H])c1[H]


 39 42  0  0  0  0  0  0  0  0999 V2000
   14.5672   20.6613   -0.8818 C   0  0  0  0  0  0  0  0  0  0  0  0
   13.6585   21.2857   -0.0628 C   0  0  0  0  0  0  0  0  0  0  0  0
   13.2507   22.5618   -0.3841 C   0  0  0  0  0  0  0  0  0  0  0  0
   13.7253   23.2273   -1.4969 C   0  0  0  0  0  0  0  0  0  0  0  0
   13.3120   24.5276   -1.8339 C   0  0  0  0  0  0  0  0  0  0  0  0
   13.8746   25.0521   -2.9794 C   0  0  0  0  0  0  0  0  0  0  0  0
   14.7933   24.3674   -3.7725 C   0  0  0  0  0  0  0  0  0  0  0  0
   15.2812   24.8962   -4.8182 O   0  0  0  0  0  0  0  0  0  0  0  0
   15.1359   23.1688   -3.4080 O   0  0  0  0  0  0  0  0  0  0  0  0
   14.6329   22.6091   -2.3208 C   0  0  0  0  0  0  0  0  0  0  0  0
   15.0404   21.3205   -1.9898 C   0  0  0  0  0  0  0  0  0  0  0  0
   13.5417   26.3933   -3.4125 C   0  0  0  0  0  0  0  0  0  0  0  0
   12.2343   26.7281   -3.6052 C   0  0  0  0  0  0  0  0  0  0  0  0
   11.8846   27.9907   -4.0121 C   0  0  0  0  0  0  0  0  0  0  0  0
   12.8694   28.9240   -4.2262 C   0  0  0  0  0  0  0  0  0  0  0  0
   14.1964   28.5857   -4.0311 C   0  0  0  0  0  0  0  0  0  0  0  0
   14.5268   27.3199   -3.6247 C   0  0  0  0  0  0  0  0  0  0  0  0
   15.9723   27.0304   -3.4397 C   0  0  0  0  0  0  0  0  0  0  0  0
   12.5124   30.2123   -4.6413 O   0  0  0  0  0  0  0  0  0  0  0  0
   11.5309   30.9620   -3.9339 C   0  0  0  0  0  0  0  0  0  0  0  0
   11.5687   32.2560   -4.3911 F   0  0  0  0  0  0  0  0  0  0  0  0
   10.2823   30.4132   -4.1610 F   0  0  0  0  0  0  0  0  0  0  0  0
   11.7520   30.9264   -2.5652 F   0  0  0  0  0  0  0  0  0  0  0  0
   14.9838   19.3862   -0.5725 O   0  0  0  0  0  0  0  0  0  0  0  0
   16.3934   20.3740    1.0905 C   0  0  0  0  0  0  0  0  0  0  0  0
   15.8440   19.0906    0.5108 C   0  0  0  0  0  0  0  0  0  0  0  0
   12.4241   25.1329   -1.0267 O   0  0  0  0  0  0  0  0  0  0  0  0
   11.4281   24.7394   -0.2110 C   0  0  0  0  0  0  0  0  0  0  0  0
   10.3209   24.0158   -0.5672 C   0  0  0  0  0  0  0  0  0  0  0  0
    9.3188   23.6418    0.3276 C   0  0  0  0  0  0  0  0  0  0  0  0
    9.4087   24.0030    1.6684 C   0  0  0  0  0  0  0  0  0  0  0  0
   10.5111   24.7298    2.0521 C   0  0  0  0  0  0  0  0  0  0  0  0
   11.4864   25.0870    1.1513 C   0  0  0  0  0  0  0  0  0  0  0  0
    8.3532   23.6027    2.5823 C   0  0  0  0  0  0  0  0  0  0  0  0
    7.5869   24.4444    3.2456 C   0  0  0  0  0  0  0  0  0  0  0  0
    6.5470   23.9092    4.1459 C   0  0  0  0  0  0  0  0  0  0  0  0
    6.2948   22.6860    4.2048 O   0  0  0  0  0  0  0  0  0  0  0  0
    5.8201   24.7595    4.9542 O   0  0  0  0  0  0  0  0  0  0  0  0
    5.9073   24.7681    5.9769 H   0  0  0  0  0  0  0  0  0  0  0  0
 25 26  1  0  0  0
 26 24  1  0  0  0
 24  1  1  0  0  0
  1  2  2  0  0  0
  2  3  1  0  0  0
  3  4  2  0  0  0
  4  5  1  0  0  0
  5 27  1  0  0  0
 27 28  1  0  0  0
 28 29  2  0  0  0
 29 30  1  0  0  0
 30 31  2  0  0  0
 31 34  1  0  0  0
 34 35  2  0  0  0
 35 36  1  0  0  0
 36 37  2  0  0  0
 36 38  1  0  0  0
 31 32  1  0  0  0
 32 33  2  0  0  0
  5  6  2  0  0  0
  6 12  1  0  0  0
 12 13  2  0  0  0
 13 14  1  0  0  0
 14 15  2  0  0  0
 15 19  1  0  0  0
 19 20  1  0  0  0
 20 21  1  0  0  0
 20 22  1  0  0  0
 20 23  1  0  0  0
 15 16  1  0  0  0
 16 17  2  0  0  0
 17 18  1  0  0  0
  6  7  1  0  0  0
  7  8  2  0  0  0
  7  9  1  0  0  0
  9 10  1  0  0  0
 10 11  2  0  0  0
 11  1  1  0  0  0
 10  4  1  0  0  0
 33 28  1  0  0  0
 17 12  1  0  0  0
 38 39  1  0  0  0
M  END
> <minimizedAffinity>
7.20108

> <CNNscore>
0.5717542171

> <CNNaffinity>
7.4260506630

> <CNN_VS>
4.2458758354

> <CNNaffinity_variance>
1.0101239681

$$$$
[H]OC(=O)/C([H])=C(\[H])c1c([H])c([H])c(Oc2c(-c3c([H])c([H])c(OC(F)(F)F)c([H])c3C([H])([H])[H])c(=O)oc3c([H])c(OC([H])([H])C([H])([H])[H])c([H])c([H])c23)c([H])c1[H]


 39 42  0  0  0  0  0  0  0  0999 V2000
   14.1292   26.5681   -5.6553 C   0  0  0  0  0  0  0  0  0  0  0  0
   13.3747   25.6230   -5.0044 C   0  0  0  0  0  0  0  0  0  0  0  0
   13.8374   25.1209   -3.8078 C   0  0  0  0  0  0  0  0  0  0  0  0
   15.0289   25.5364   -3.2474 C   0  0  0  0  0  0  0  0  0  0  0  0
   15.5064   25.0321   -2.0256 C   0  0  0  0  0  0  0  0  0  0  0  0
   16.7105   25.5526   -1.5977 C   0  0  0  0  0  0  0  0  0  0  0  0
   17.4314   26.5139   -2.3034 C   0  0  0  0  0  0  0  0  0  0  0  0
   18.5356   26.9603   -1.8646 O   0  0  0  0  0  0  0  0  0  0  0  0
   16.9377   26.9400   -3.4265 O   0  0  0  0  0  0  0  0  0  0  0  0
   15.7879   26.4816   -3.8917 C   0  0  0  0  0  0  0  0  0  0  0  0
   15.3145   26.9839   -5.0999 C   0  0  0  0  0  0  0  0  0  0  0  0
   17.3123   25.0910   -0.3640 C   0  0  0  0  0  0  0  0  0  0  0  0
   16.7575   25.4544    0.8271 C   0  0  0  0  0  0  0  0  0  0  0  0
   17.3007   25.0319    2.0137 C   0  0  0  0  0  0  0  0  0  0  0  0
   18.4177   24.2327    1.9940 C   0  0  0  0  0  0  0  0  0  0  0  0
   18.9818   23.8631    0.7862 C   0  0  0  0  0  0  0  0  0  0  0  0
   18.4256   24.2947   -0.3888 C   0  0  0  0  0  0  0  0  0  0  0  0
   19.0891   23.8596   -1.6451 C   0  0  0  0  0  0  0  0  0  0  0  0
   18.9719   23.8015    3.2049 O   0  0  0  0  0  0  0  0  0  0  0  0
   20.1283   24.4319    3.7446 C   0  0  0  0  0  0  0  0  0  0  0  0
   20.7511   23.5397    4.5818 F   0  0  0  0  0  0  0  0  0  0  0  0
   20.9781   24.7913    2.7149 F   0  0  0  0  0  0  0  0  0  0  0  0
   19.8020   25.5919    4.4312 F   0  0  0  0  0  0  0  0  0  0  0  0
   13.6791   27.0782   -6.8521 O   0  0  0  0  0  0  0  0  0  0  0  0
   12.8205   26.3657   -8.9695 C   0  0  0  0  0  0  0  0  0  0  0  0
   14.0508   26.5508   -8.1109 C   0  0  0  0  0  0  0  0  0  0  0  0
   14.7636   24.1061   -1.3955 O   0  0  0  0  0  0  0  0  0  0  0  0
   13.6600   24.1072   -0.6247 C   0  0  0  0  0  0  0  0  0  0  0  0
   12.5130   24.8231   -0.8447 C   0  0  0  0  0  0  0  0  0  0  0  0
   11.4018   24.7841   -0.0032 C   0  0  0  0  0  0  0  0  0  0  0  0
   11.4158   23.9855    1.1363 C   0  0  0  0  0  0  0  0  0  0  0  0
   12.5557   23.2562    1.3801 C   0  0  0  0  0  0  0  0  0  0  0  0
   13.6391   23.3111    0.5354 C   0  0  0  0  0  0  0  0  0  0  0  0
   10.2472   23.9607    1.9985 C   0  0  0  0  0  0  0  0  0  0  0  0
    9.4473   24.9890    2.1944 C   0  0  0  0  0  0  0  0  0  0  0  0
    8.2900   24.8343    3.0973 C   0  0  0  0  0  0  0  0  0  0  0  0
    8.0221   25.6845    3.9740 O   0  0  0  0  0  0  0  0  0  0  0  0
    7.4665   23.7318    2.9919 O   0  0  0  0  0  0  0  0  0  0  0  0
    6.4937   23.7904    2.6694 H   0  0  0  0  0  0  0  0  0  0  0  0
 25 26  1  0  0  0
 26 24  1  0  0  0
 24  1  1  0  0  0
  1  2  2  0  0  0
  2  3  1  0  0  0
  3  4  2  0  0  0
  4  5  1  0  0  0
  5 27  1  0  0  0
 27 28  1  0  0  0
 28 29  2  0  0  0
 29 30  1  0  0  0
 30 31  2  0  0  0
 31 34  1  0  0  0
 34 35  2  0  0  0
 35 36  1  0  0  0
 36 37  2  0  0  0
 36 38  1  0  0  0
 31 32  1  0  0  0
 32 33  2  0  0  0
  5  6  2  0  0  0
  6 12  1  0  0  0
 12 13  2  0  0  0
 13 14  1  0  0  0
 14 15  2  0  0  0
 15 19  1  0  0  0
 19 20  1  0  0  0
 20 21  1  0  0  0
 20 22  1  0  0  0
 20 23  1  0  0  0
 15 16  1  0  0  0
 16 17  2  0  0  0
 17 18  1  0  0  0
  6  7  1  0  0  0
  7  8  2  0  0  0
  7  9  1  0  0  0
  9 10  1  0  0  0
 10 11  2  0  0  0
 11  1  1  0  0  0
 10  4  1  0  0  0
 33 28  1  0  0  0
 17 12  1  0  0  0
 38 39  1  0  0  0
M  END
> <minimizedAffinity>
30.12190

> <CNNscore>
0.5113039017

> <CNNaffinity>
7.1672987938

> <CNN_VS>
3.6646678448

> <CNNaffinity_variance>
0.3884624839

$$$$
[H]OC(=O)/C([H])=C(\[H])c1c([H])c([H])c(Oc2c(-c3c([H])c([H])c(OC(F)(F)F)c([H])c3C([H])([H])[H])c(=O)oc3c([H])c(OC([H])([H])C([H])([H])[H])c([H])c([H])c23)c([H])c1[H]


 39 42  0  0  0  0  0  0  0  0999 V2000
   10.7218   26.3080    2.1048 C   0  0  0  0  0  0  0  0  0  0  0  0
   10.8744   24.9485    1.9839 C   0  0  0  0  0  0  0  0  0  0  0  0
   11.5583   24.4571    0.8936 C   0  0  0  0  0  0  0  0  0  0  0  0
   12.0909   25.2848   -0.0747 C   0  0  0  0  0  0  0  0  0  0  0  0
   12.7929   24.7922   -1.1881 C   0  0  0  0  0  0  0  0  0  0  0  0
   13.2672   25.7484   -2.0625 C   0  0  0  0  0  0  0  0  0  0  0  0
   13.0814   27.1180   -1.8851 C   0  0  0  0  0  0  0  0  0  0  0  0
   13.5392   27.9568   -2.7205 O   0  0  0  0  0  0  0  0  0  0  0  0
   12.4237   27.5108   -0.8363 O   0  0  0  0  0  0  0  0  0  0  0  0
   11.9433   26.6449    0.0400 C   0  0  0  0  0  0  0  0  0  0  0  0
   11.2511   27.1339    1.1436 C   0  0  0  0  0  0  0  0  0  0  0  0
   13.9853   25.3578   -3.2579 C   0  0  0  0  0  0  0  0  0  0  0  0
   13.6225   25.8902   -4.4593 C   0  0  0  0  0  0  0  0  0  0  0  0
   14.2838   25.5438   -5.6102 C   0  0  0  0  0  0  0  0  0  0  0  0
   15.3236   24.6486   -5.5437 C   0  0  0  0  0  0  0  0  0  0  0  0
   15.6927   24.1075   -4.3254 C   0  0  0  0  0  0  0  0  0  0  0  0
   15.0207   24.4651   -3.1865 C   0  0  0  0  0  0  0  0  0  0  0  0
   15.4722   23.8398   -1.9165 C   0  0  0  0  0  0  0  0  0  0  0  0
   15.9984   24.2953   -6.7181 O   0  0  0  0  0  0  0  0  0  0  0  0
   16.1487   25.2277   -7.7829 C   0  0  0  0  0  0  0  0  0  0  0  0
   16.4129   26.4602   -7.2388 F   0  0  0  0  0  0  0  0  0  0  0  0
   17.1949   24.8319   -8.5956 F   0  0  0  0  0  0  0  0  0  0  0  0
   15.0118   25.2830   -8.5754 F   0  0  0  0  0  0  0  0  0  0  0  0
   10.0402   26.8129    3.1891 O   0  0  0  0  0  0  0  0  0  0  0  0
    8.6518   26.0272    4.9734 C   0  0  0  0  0  0  0  0  0  0  0  0
    8.7173   26.4368    3.5197 C   0  0  0  0  0  0  0  0  0  0  0  0
   12.9365   23.4607   -1.3006 O   0  0  0  0  0  0  0  0  0  0  0  0
   12.7579   22.3940   -0.4991 C   0  0  0  0  0  0  0  0  0  0  0  0
   11.9145   21.3382   -0.7235 C   0  0  0  0  0  0  0  0  0  0  0  0
   11.7711   20.2615    0.1510 C   0  0  0  0  0  0  0  0  0  0  0  0
   12.5080   20.2164    1.3306 C   0  0  0  0  0  0  0  0  0  0  0  0
   13.3626   21.2643    1.5796 C   0  0  0  0  0  0  0  0  0  0  0  0
   13.4868   22.3153    0.7019 C   0  0  0  0  0  0  0  0  0  0  0  0
   12.3423   19.0853    2.2266 C   0  0  0  0  0  0  0  0  0  0  0  0
   12.0781   19.1898    3.5131 C   0  0  0  0  0  0  0  0  0  0  0  0
   11.9328   17.9604    4.3166 C   0  0  0  0  0  0  0  0  0  0  0  0
   12.9189   17.2566    4.6253 O   0  0  0  0  0  0  0  0  0  0  0  0
   10.6871   17.5550    4.7510 O   0  0  0  0  0  0  0  0  0  0  0  0
   10.4109   17.5623    5.7396 H   0  0  0  0  0  0  0  0  0  0  0  0
 25 26  1  0  0  0
 26 24  1  0  0  0
 24  1  1  0  0  0
  1  2  2  0  0  0
  2  3  1  0  0  0
  3  4  2  0  0  0
  4  5  1  0  0  0
  5 27  1  0  0  0
 27 28  1  0  0  0
 28 29  2  0  0  0
 29 30  1  0  0  0
 30 31  2  0  0  0
 31 34  1  0  0  0
 34 35  2  0  0  0
 35 36  1  0  0  0
 36 37  2  0  0  0
 36 38  1  0  0  0
 31 32  1  0  0  0
 32 33  2  0  0  0
  5  6  2  0  0  0
  6 12  1  0  0  0
 12 13  2  0  0  0
 13 14  1  0  0  0
 14 15  2  0  0  0
 15 19  1  0  0  0
 19 20  1  0  0  0
 20 21  1  0  0  0
 20 22  1  0  0  0
 20 23  1  0  0  0
 15 16  1  0  0  0
 16 17  2  0  0  0
 17 18  1  0  0  0
  6  7  1  0  0  0
  7  8  2  0  0  0
  7  9  1  0  0  0
  9 10  1  0  0  0
 10 11  2  0  0  0
 11  1  1  0  0  0
 10  4  1  0  0  0
 33 28  1  0  0  0
 17 12  1  0  0  0
 38 39  1  0  0  0
M  END
> <minimizedAffinity>
19.13542

> <CNNscore>
0.4875856936

> <CNNaffinity>
6.9422883987

> <CNN_VS>
3.3849604130

> <CNNaffinity_variance>
0.5795835257

$$$$
[H]OC(=O)/C([H])=C(\[H])c1c([H])c([H])c(Oc2c(-c3c([H])c([H])c(OC(F)(F)F)c([H])c3C([H])([H])[H])c(=O)oc3c([H])c(OC([H])([H])C([H])([H])[H])c([H])c([H])c23)c([H])c1[H]


 39 42  0  0  0  0  0  0  0  0999 V2000
   18.0017   27.7025   -3.4063 C   0  0  0  0  0  0  0  0  0  0  0  0
   16.8355   27.5654   -4.1185 C   0  0  0  0  0  0  0  0  0  0  0  0
   15.8984   26.6563   -3.6787 C   0  0  0  0  0  0  0  0  0  0  0  0
   16.0955   25.8841   -2.5512 C   0  0  0  0  0  0  0  0  0  0  0  0
   15.1434   24.9570   -2.0936 C   0  0  0  0  0  0  0  0  0  0  0  0
   15.4878   24.2670   -0.9494 C   0  0  0  0  0  0  0  0  0  0  0  0
   16.6893   24.4512   -0.2680 C   0  0  0  0  0  0  0  0  0  0  0  0
   16.9573   23.7898    0.7818 O   0  0  0  0  0  0  0  0  0  0  0  0
   17.5285   25.3223   -0.7410 O   0  0  0  0  0  0  0  0  0  0  0  0
   17.2583   26.0165   -1.8334 C   0  0  0  0  0  0  0  0  0  0  0  0
   18.2002   26.9363   -2.2839 C   0  0  0  0  0  0  0  0  0  0  0  0
   14.5952   23.2687   -0.3981 C   0  0  0  0  0  0  0  0  0  0  0  0
   14.9071   21.9481   -0.5291 C   0  0  0  0  0  0  0  0  0  0  0  0
   14.0849   20.9773   -0.0157 C   0  0  0  0  0  0  0  0  0  0  0  0
   12.9347   21.3479    0.6372 C   0  0  0  0  0  0  0  0  0  0  0  0
   12.6169   22.6876    0.7708 C   0  0  0  0  0  0  0  0  0  0  0  0
   13.4499   23.6431    0.2517 C   0  0  0  0  0  0  0  0  0  0  0  0
   13.0404   25.0600    0.4316 C   0  0  0  0  0  0  0  0  0  0  0  0
   12.0958   20.3573    1.1611 O   0  0  0  0  0  0  0  0  0  0  0  0
   11.6250   20.4330    2.5021 C   0  0  0  0  0  0  0  0  0  0  0  0
   11.7554   19.1910    3.0725 F   0  0  0  0  0  0  0  0  0  0  0  0
   12.3768   21.3591    3.2011 F   0  0  0  0  0  0  0  0  0  0  0  0
   10.3042   20.8527    2.5549 F   0  0  0  0  0  0  0  0  0  0  0  0
   18.9471   28.6069   -3.8347 O   0  0  0  0  0  0  0  0  0  0  0  0
   20.8269   27.2523   -3.2353 C   0  0  0  0  0  0  0  0  0  0  0  0
   20.2543   28.2373   -4.2287 C   0  0  0  0  0  0  0  0  0  0  0  0
   14.0056   24.8269   -2.7968 O   0  0  0  0  0  0  0  0  0  0  0  0
   13.0935   25.6610   -3.3303 C   0  0  0  0  0  0  0  0  0  0  0  0
   11.7876   25.7979   -2.9399 C   0  0  0  0  0  0  0  0  0  0  0  0
   10.8884   26.6802   -3.5381 C   0  0  0  0  0  0  0  0  0  0  0  0
   11.2991   27.4867   -4.5950 C   0  0  0  0  0  0  0  0  0  0  0  0
   12.6060   27.3688   -5.0062 C   0  0  0  0  0  0  0  0  0  0  0  0
   13.4741   26.4914   -4.4007 C   0  0  0  0  0  0  0  0  0  0  0  0
   10.3454   28.3980   -5.2030 C   0  0  0  0  0  0  0  0  0  0  0  0
    9.7834   29.4113   -4.5759 C   0  0  0  0  0  0  0  0  0  0  0  0
    8.8277   30.2653   -5.3078 C   0  0  0  0  0  0  0  0  0  0  0  0
    7.6425   29.9142   -5.4952 O   0  0  0  0  0  0  0  0  0  0  0  0
    9.2274   31.4877   -5.8084 O   0  0  0  0  0  0  0  0  0  0  0  0
    8.8812   32.3816   -5.4412 H   0  0  0  0  0  0  0  0  0  0  0  0
 25 26  1  0  0  0
 26 24  1  0  0  0
 24  1  1  0  0  0
  1  2  2  0  0  0
  2  3  1  0  0  0
  3  4  2  0  0  0
  4  5  1  0  0  0
  5 27  1  0  0  0
 27 28  1  0  0  0
 28 29  2  0  0  0
 29 30  1  0  0  0
 30 31  2  0  0  0
 31 34  1  0  0  0
 34 35  2  0  0  0
 35 36  1  0  0  0
 36 37  2  0  0  0
 36 38  1  0  0  0
 31 32  1  0  0  0
 32 33  2  0  0  0
  5  6  2  0  0  0
  6 12  1  0  0  0
 12 13  2  0  0  0
 13 14  1  0  0  0
 14 15  2  0  0  0
 15 19  1  0  0  0
 19 20  1  0  0  0
 20 21  1  0  0  0
 20 22  1  0  0  0
 20 23  1  0  0  0
 15 16  1  0  0  0
 16 17  2  0  0  0
 17 18  1  0  0  0
  6  7  1  0  0  0
  7  8  2  0  0  0
  7  9  1  0  0  0
  9 10  1  0  0  0
 10 11  2  0  0  0
 11  1  1  0  0  0
 10  4  1  0  0  0
 33 28  1  0  0  0
 17 12  1  0  0  0
 38 39  1  0  0  0
M  END
> <minimizedAffinity>
13.04088

> <CNNscore>
0.4656911194

> <CNNaffinity>
7.4221634865

> <CNN_VS>
3.4564356804

> <CNNaffinity_variance>
0.6290748715

$$$$
[H]OC(=O)/C([H])=C(\[H])c1c([H])c([H])c(Oc2c(-c3c([H])c([H])c(OC(F)(F)F)c([H])c3C([H])([H])[H])c(=O)oc3c([H])c(OC([H])([H])C([H])([H])[H])c([H])c([H])c23)c([H])c1[H]


 39 42  0  0  0  0  0  0  0  0999 V2000
    8.5874   26.4583    4.3381 C   0  0  0  0  0  0  0  0  0  0  0  0
    8.4102   25.1058    4.1787 C   0  0  0  0  0  0  0  0  0  0  0  0
    9.2284   24.4339    3.2972 C   0  0  0  0  0  0  0  0  0  0  0  0
   10.2142   25.0753    2.5739 C   0  0  0  0  0  0  0  0  0  0  0  0
   11.0555   24.3971    1.6753 C   0  0  0  0  0  0  0  0  0  0  0  0
   11.9938   25.1792    1.0337 C   0  0  0  0  0  0  0  0  0  0  0  0
   12.1266   26.5511    1.2384 C   0  0  0  0  0  0  0  0  0  0  0  0
   13.0080   27.2252    0.6219 O   0  0  0  0  0  0  0  0  0  0  0  0
   11.3190   27.1205    2.0813 O   0  0  0  0  0  0  0  0  0  0  0  0
   10.3980   26.4270    2.7288 C   0  0  0  0  0  0  0  0  0  0  0  0
    9.5677   27.0990    3.6206 C   0  0  0  0  0  0  0  0  0  0  0  0
   12.9000   24.5938    0.0677 C   0  0  0  0  0  0  0  0  0  0  0  0
   12.3914   23.9484   -1.0201 C   0  0  0  0  0  0  0  0  0  0  0  0
   13.2220   23.3856   -1.9556 C   0  0  0  0  0  0  0  0  0  0  0  0
   14.5822   23.4773   -1.7876 C   0  0  0  0  0  0  0  0  0  0  0  0
   15.0998   24.1317   -0.6843 C   0  0  0  0  0  0  0  0  0  0  0  0
   14.2549   24.6877    0.2396 C   0  0  0  0  0  0  0  0  0  0  0  0
   14.8845   25.3710    1.3991 C   0  0  0  0  0  0  0  0  0  0  0  0
   15.4297   22.9030   -2.7423 O   0  0  0  0  0  0  0  0  0  0  0  0
   15.8373   23.6358   -3.8924 C   0  0  0  0  0  0  0  0  0  0  0  0
   14.7815   24.4119   -4.3020 F   0  0  0  0  0  0  0  0  0  0  0  0
   16.9181   24.4349   -3.5685 F   0  0  0  0  0  0  0  0  0  0  0  0
   16.2427   22.7924   -4.9160 F   0  0  0  0  0  0  0  0  0  0  0  0
    7.7765   27.1425    5.2154 O   0  0  0  0  0  0  0  0  0  0  0  0
    6.7725   28.8201    3.8348 C   0  0  0  0  0  0  0  0  0  0  0  0
    6.5393   27.7180    4.8429 C   0  0  0  0  0  0  0  0  0  0  0  0
   10.8749   23.0740    1.5232 O   0  0  0  0  0  0  0  0  0  0  0  0
   10.0306   22.2824    0.8357 C   0  0  0  0  0  0  0  0  0  0  0  0
   10.2846   21.0118    0.3913 C   0  0  0  0  0  0  0  0  0  0  0  0
    9.3661   20.2423   -0.3222 C   0  0  0  0  0  0  0  0  0  0  0  0
    8.1077   20.7553   -0.6213 C   0  0  0  0  0  0  0  0  0  0  0  0
    7.8272   22.0292   -0.1860 C   0  0  0  0  0  0  0  0  0  0  0  0
    8.7495   22.7687    0.5160 C   0  0  0  0  0  0  0  0  0  0  0  0
    7.1672   19.9361   -1.3656 C   0  0  0  0  0  0  0  0  0  0  0  0
    6.6593   20.2661   -2.5356 C   0  0  0  0  0  0  0  0  0  0  0  0
    5.7111   19.3439   -3.1904 C   0  0  0  0  0  0  0  0  0  0  0  0
    5.2718   18.3292   -2.6069 O   0  0  0  0  0  0  0  0  0  0  0  0
    5.2824   19.5852   -4.4799 O   0  0  0  0  0  0  0  0  0  0  0  0
    4.3159   19.8454   -4.7075 H   0  0  0  0  0  0  0  0  0  0  0  0
 25 26  1  0  0  0
 26 24  1  0  0  0
 24  1  1  0  0  0
  1  2  2  0  0  0
  2  3  1  0  0  0
  3  4  2  0  0  0
  4  5  1  0  0  0
  5 27  1  0  0  0
 27 28  1  0  0  0
 28 29  2  0  0  0
 29 30  1  0  0  0
 30 31  2  0  0  0
 31 34  1  0  0  0
 34 35  2  0  0  0
 35 36  1  0  0  0
 36 37  2  0  0  0
 36 38  1  0  0  0
 31 32  1  0  0  0
 32 33  2  0  0  0
  5  6  2  0  0  0
  6 12  1  0  0  0
 12 13  2  0  0  0
 13 14  1  0  0  0
 14 15  2  0  0  0
 15 19  1  0  0  0
 19 20  1  0  0  0
 20 21  1  0  0  0
 20 22  1  0  0  0
 20 23  1  0  0  0
 15 16  1  0  0  0
 16 17  2  0  0  0
 17 18  1  0  0  0
  6  7  1  0  0  0
  7  8  2  0  0  0
  7  9  1  0  0  0
  9 10  1  0  0  0
 10 11  2  0  0  0
 11  1  1  0  0  0
 10  4  1  0  0  0
 33 28  1  0  0  0
 17 12  1  0  0  0
 38 39  1  0  0  0
M  END
> <minimizedAffinity>
5.17211

> <CNNscore>
0.4644908905

> <CNNaffinity>
6.9030990601

> <CNN_VS>
3.2064266205

> <CNNaffinity_variance>
0.8618841171

$$$$
[H]OC(=O)/C([H])=C(\[H])c1c([H])c([H])c(Oc2c(-c3c([H])c([H])c(OC(F)(F)F)c([H])c3C([H])([H])[H])c(=O)oc3c([H])c(OC([H])([H])C([H])([H])[H])c([H])c([H])c23)c([H])c1[H]


 39 42  0  0  0  0  0  0  0  0999 V2000
   14.3964   26.4372   -4.7139 C   0  0  0  0  0  0  0  0  0  0  0  0
   15.3820   25.7261   -4.0743 C   0  0  0  0  0  0  0  0  0  0  0  0
   15.0267   24.9027   -3.0284 C   0  0  0  0  0  0  0  0  0  0  0  0
   13.7185   24.7722   -2.6068 C   0  0  0  0  0  0  0  0  0  0  0  0
   13.3469   23.9320   -1.5432 C   0  0  0  0  0  0  0  0  0  0  0  0
   11.9993   23.9081   -1.2474 C   0  0  0  0  0  0  0  0  0  0  0  0
   11.0438   24.6534   -1.9353 C   0  0  0  0  0  0  0  0  0  0  0  0
    9.8149   24.5948   -1.6227 O   0  0  0  0  0  0  0  0  0  0  0  0
   11.4499   25.4116   -2.9084 O   0  0  0  0  0  0  0  0  0  0  0  0
   12.7276   25.4790   -3.2421 C   0  0  0  0  0  0  0  0  0  0  0  0
   13.0940   26.3088   -4.2972 C   0  0  0  0  0  0  0  0  0  0  0  0
   11.5022   23.0967   -0.1558 C   0  0  0  0  0  0  0  0  0  0  0  0
   11.1750   21.7936   -0.3870 C   0  0  0  0  0  0  0  0  0  0  0  0
   10.7043   20.9967    0.6256 C   0  0  0  0  0  0  0  0  0  0  0  0
   10.5633   21.5251    1.8856 C   0  0  0  0  0  0  0  0  0  0  0  0
   10.8948   22.8472    2.1216 C   0  0  0  0  0  0  0  0  0  0  0  0
   11.3633   23.6279    1.0982 C   0  0  0  0  0  0  0  0  0  0  0  0
   11.6950   25.0383    1.4277 C   0  0  0  0  0  0  0  0  0  0  0  0
   10.0830   20.7119    2.9188 O   0  0  0  0  0  0  0  0  0  0  0  0
    9.0880   21.1861    3.8193 C   0  0  0  0  0  0  0  0  0  0  0  0
    8.5543   20.1049    4.4758 F   0  0  0  0  0  0  0  0  0  0  0  0
    9.6659   22.0557    4.7256 F   0  0  0  0  0  0  0  0  0  0  0  0
    8.0929   21.8875    3.1549 F   0  0  0  0  0  0  0  0  0  0  0  0
   14.7373   27.2641   -5.7604 O   0  0  0  0  0  0  0  0  0  0  0  0
   16.4713   28.1989   -4.4010 C   0  0  0  0  0  0  0  0  0  0  0  0
   15.9390   28.0090   -5.8031 C   0  0  0  0  0  0  0  0  0  0  0  0
   14.3170   23.2409   -0.9209 O   0  0  0  0  0  0  0  0  0  0  0  0
   15.4203   23.5417   -0.2106 C   0  0  0  0  0  0  0  0  0  0  0  0
   16.1095   24.7252   -0.2379 C   0  0  0  0  0  0  0  0  0  0  0  0
   17.2522   24.9742    0.5216 C   0  0  0  0  0  0  0  0  0  0  0  0
   17.7556   23.9920    1.3691 C   0  0  0  0  0  0  0  0  0  0  0  0
   17.0819   22.7943    1.4152 C   0  0  0  0  0  0  0  0  0  0  0  0
   15.9569   22.5722    0.6567 C   0  0  0  0  0  0  0  0  0  0  0  0
   18.9473   24.2733    2.1505 C   0  0  0  0  0  0  0  0  0  0  0  0
   19.1148   23.9100    3.4057 C   0  0  0  0  0  0  0  0  0  0  0  0
   20.3756   24.2577    4.0898 C   0  0  0  0  0  0  0  0  0  0  0  0
   21.4819   24.1685    3.5142 O   0  0  0  0  0  0  0  0  0  0  0  0
   20.3604   24.6954    5.3986 O   0  0  0  0  0  0  0  0  0  0  0  0
   20.6036   25.6553    5.6692 H   0  0  0  0  0  0  0  0  0  0  0  0
 25 26  1  0  0  0
 26 24  1  0  0  0
 24  1  1  0  0  0
  1  2  2  0  0  0
  2  3  1  0  0  0
  3  4  2  0  0  0
  4  5  1  0  0  0
  5 27  1  0  0  0
 27 28  1  0  0  0
 28 29  2  0  0  0
 29 30  1  0  0  0
 30 31  2  0  0  0
 31 34  1  0  0  0
 34 35  2  0  0  0
 35 36  1  0  0  0
 36 37  2  0  0  0
 36 38  1  0  0  0
 31 32  1  0  0  0
 32 33  2  0  0  0
  5  6  2  0  0  0
  6 12  1  0  0  0
 12 13  2  0  0  0
 13 14  1  0  0  0
 14 15  2  0  0  0
 15 19  1  0  0  0
 19 20  1  0  0  0
 20 21  1  0  0  0
 20 22  1  0  0  0
 20 23  1  0  0  0
 15 16  1  0  0  0
 16 17  2  0  0  0
 17 18  1  0  0  0
  6  7  1  0  0  0
  7  8  2  0  0  0
  7  9  1  0  0  0
  9 10  1  0  0  0
 10 11  2  0  0  0
 11  1  1  0  0  0
 10  4  1  0  0  0
 33 28  1  0  0  0
 17 12  1  0  0  0
 38 39  1  0  0  0
M  END
> <minimizedAffinity>
9.60776

> <CNNscore>
0.4552187920

> <CNNaffinity>
7.4125800133

> <CNN_VS>
3.3743457794

> <CNNaffinity_variance>
0.3150838017

$$$$
[H]OC(=O)/C([H])=C(\[H])c1c([H])c([H])c(Oc2c(-c3c([H])c([H])c(OC(F)(F)F)c([H])c3C([H])([H])[H])c(=O)oc3c([H])c(OC([H])([H])C([H])([H])[H])c([H])c([H])c23)c([H])c1[H]


 39 42  0  0  0  0  0  0  0  0999 V2000
   18.3138   26.5700   -2.5271 C   0  0  0  0  0  0  0  0  0  0  0  0
   17.2507   26.6651   -3.3913 C   0  0  0  0  0  0  0  0  0  0  0  0
   16.1048   25.9553   -3.1062 C   0  0  0  0  0  0  0  0  0  0  0  0
   15.9943   25.1565   -1.9854 C   0  0  0  0  0  0  0  0  0  0  0  0
   14.8281   24.4319   -1.6852 C   0  0  0  0  0  0  0  0  0  0  0  0
   14.8743   23.6849   -0.5260 C   0  0  0  0  0  0  0  0  0  0  0  0
   15.9849   23.6292    0.3137 C   0  0  0  0  0  0  0  0  0  0  0  0
   15.9753   22.9254    1.3701 O   0  0  0  0  0  0  0  0  0  0  0  0
   17.0328   24.3209   -0.0184 O   0  0  0  0  0  0  0  0  0  0  0  0
   17.0525   25.0574   -1.1164 C   0  0  0  0  0  0  0  0  0  0  0  0
   18.2065   25.7768   -1.4111 C   0  0  0  0  0  0  0  0  0  0  0  0
   13.7394   22.8787   -0.1271 C   0  0  0  0  0  0  0  0  0  0  0  0
   12.8079   23.4071    0.7166 C   0  0  0  0  0  0  0  0  0  0  0  0
   11.7194   22.6714    1.1115 C   0  0  0  0  0  0  0  0  0  0  0  0
   11.5727   21.3871    0.6471 C   0  0  0  0  0  0  0  0  0  0  0  0
   12.5170   20.8496   -0.2089 C   0  0  0  0  0  0  0  0  0  0  0  0
   13.5976   21.5991   -0.5924 C   0  0  0  0  0  0  0  0  0  0  0  0
   14.5708   20.9528   -1.5105 C   0  0  0  0  0  0  0  0  0  0  0  0
   10.4619   20.6365    1.0500 O   0  0  0  0  0  0  0  0  0  0  0  0
    9.1715   20.8922    0.5066 C   0  0  0  0  0  0  0  0  0  0  0  0
    9.2798   20.9146   -0.8618 F   0  0  0  0  0  0  0  0  0  0  0  0
    8.3016   19.8917    0.8989 F   0  0  0  0  0  0  0  0  0  0  0  0
    8.6526   22.0920    0.9699 F   0  0  0  0  0  0  0  0  0  0  0  0
   19.4652   27.2735   -2.8000 O   0  0  0  0  0  0  0  0  0  0  0  0
   18.2052   28.8962   -4.0279 C   0  0  0  0  0  0  0  0  0  0  0  0
   19.5562   28.2511   -3.8182 C   0  0  0  0  0  0  0  0  0  0  0  0
   13.7926   24.5284   -2.5365 O   0  0  0  0  0  0  0  0  0  0  0  0
   13.0711   25.5275   -3.0780 C   0  0  0  0  0  0  0  0  0  0  0  0
   11.8346   25.9535   -2.6703 C   0  0  0  0  0  0  0  0  0  0  0  0
   11.1347   26.9954   -3.2780 C   0  0  0  0  0  0  0  0  0  0  0  0
   11.6868   27.6685   -4.3635 C   0  0  0  0  0  0  0  0  0  0  0  0
   12.9278   27.2603   -4.7926 C   0  0  0  0  0  0  0  0  0  0  0  0
   13.5987   26.2301   -4.1771 C   0  0  0  0  0  0  0  0  0  0  0  0
   10.9397   28.7503   -4.9809 C   0  0  0  0  0  0  0  0  0  0  0  0
   10.4459   29.7804   -4.3247 C   0  0  0  0  0  0  0  0  0  0  0  0
    9.7039   30.8157   -5.0704 C   0  0  0  0  0  0  0  0  0  0  0  0
   10.1578   31.9711   -5.2187 O   0  0  0  0  0  0  0  0  0  0  0  0
    8.4752   30.5265   -5.6283 O   0  0  0  0  0  0  0  0  0  0  0  0
    8.3188   30.4818   -6.6419 H   0  0  0  0  0  0  0  0  0  0  0  0
 25 26  1  0  0  0
 26 24  1  0  0  0
 24  1  1  0  0  0
  1  2  2  0  0  0
  2  3  1  0  0  0
  3  4  2  0  0  0
  4  5  1  0  0  0
  5 27  1  0  0  0
 27 28  1  0  0  0
 28 29  2  0  0  0
 29 30  1  0  0  0
 30 31  2  0  0  0
 31 34  1  0  0  0
 34 35  2  0  0  0
 35 36  1  0  0  0
 36 37  2  0  0  0
 36 38  1  0  0  0
 31 32  1  0  0  0
 32 33  2  0  0  0
  5  6  2  0  0  0
  6 12  1  0  0  0
 12 13  2  0  0  0
 13 14  1  0  0  0
 14 15  2  0  0  0
 15 19  1  0  0  0
 19 20  1  0  0  0
 20 21  1  0  0  0
 20 22  1  0  0  0
 20 23  1  0  0  0
 15 16  1  0  0  0
 16 17  2  0  0  0
 17 18  1  0  0  0
  6  7  1  0  0  0
  7  8  2  0  0  0
  7  9  1  0  0  0
  9 10  1  0  0  0
 10 11  2  0  0  0
 11  1  1  0  0  0
 10  4  1  0  0  0
 33 28  1  0  0  0
 17 12  1  0  0  0
 38 39  1  0  0  0
M  END
> <minimizedAffinity>
14.03990

> <CNNscore>
0.4510619044

> <CNNaffinity>
7.4164748192

> <CNN_VS>
3.3452892303

> <CNNaffinity_variance>
0.7242620587

$$$$
[H]N=C(c1c([H])c([H])c([H])c(Oc2c([H])c([H])c(N([H])[H])c([H])c2C(=O)N([H])c2c([H])c([H])c(-c3c([H])c([H])c([H])c([H])c3S(=O)(=O)N([H])[H])c([H])c2[H])c1[H])N([H])[H]


 44 47  0  0  0  0  0  0  0  0999 V2000
   11.5210   21.3372    1.3893 C   0  0  0  0  0  0  0  0  0  0  0  0
   10.4367   21.3547    2.3032 C   0  0  0  0  0  0  0  0  0  0  0  0
   10.4429   20.5314    3.3969 C   0  0  0  0  0  0  0  0  0  0  0  0
   11.5192   19.6988    3.5751 C   0  0  0  0  0  0  0  0  0  0  0  0
   11.4968   18.8465    4.7063 N   0  0  0  0  0  0  0  0  0  0  0  0
   12.5702   19.6874    2.6936 C   0  0  0  0  0  0  0  0  0  0  0  0
   12.5905   20.5459    1.5440 C   0  0  0  0  0  0  0  0  0  0  0  0
   12.3115   18.7451    5.3191 H   0  0  0  0  0  0  0  0  0  0  0  0
   10.6213   18.3263    4.8775 H   0  0  0  0  0  0  0  0  0  0  0  0
   13.9345   20.7018    0.9242 C   0  0  0  0  0  0  0  0  0  0  0  0
   14.6545   19.6449    1.1656 O   0  0  0  0  0  0  0  0  0  0  0  0
   14.4369   21.6933    0.2179 N   0  0  0  0  0  0  0  0  0  0  0  0
   15.4311   20.8302   -0.2325 H   0  0  0  0  0  0  0  0  0  0  0  0
   14.9631   22.7318   -0.5219 C   0  0  0  0  0  0  0  0  0  0  0  0
   15.3167   23.9379    0.1272 C   0  0  0  0  0  0  0  0  0  0  0  0
   15.7665   25.0347   -0.5720 C   0  0  0  0  0  0  0  0  0  0  0  0
   15.8924   25.0053   -1.9374 C   0  0  0  0  0  0  0  0  0  0  0  0
   15.5614   23.8477   -2.5926 C   0  0  0  0  0  0  0  0  0  0  0  0
   15.1077   22.7383   -1.8999 C   0  0  0  0  0  0  0  0  0  0  0  0
   16.3121   26.1530   -2.7091 C   0  0  0  0  0  0  0  0  0  0  0  0
   17.5612   26.7196   -2.5385 C   0  0  0  0  0  0  0  0  0  0  0  0
   17.9561   27.8306   -3.2392 C   0  0  0  0  0  0  0  0  0  0  0  0
   17.0826   28.4001   -4.1398 C   0  0  0  0  0  0  0  0  0  0  0  0
   15.8422   27.8530   -4.3233 C   0  0  0  0  0  0  0  0  0  0  0  0
   15.4485   26.7253   -3.6106 C   0  0  0  0  0  0  0  0  0  0  0  0
   13.8892   26.0814   -3.9200 S   0  0  0  0  0  0  0  0  0  0  0  0
   14.0723   24.5250   -4.7066 N   0  0  0  0  0  0  0  0  0  0  0  0
   13.1841   26.9232   -4.9704 O   0  0  0  0  0  0  0  0  0  0  0  0
   13.0343   25.8938   -2.7002 O   0  0  0  0  0  0  0  0  0  0  0  0
   14.4055   24.6397   -5.6869 H   0  0  0  0  0  0  0  0  0  0  0  0
   14.7658   23.9616   -4.1874 H   0  0  0  0  0  0  0  0  0  0  0  0
   11.3883   22.2081    0.2819 O   0  0  0  0  0  0  0  0  0  0  0  0
   10.3427   25.1682    2.1644 C   0  0  0  0  0  0  0  0  0  0  0  0
   11.1776   26.1476    1.6682 C   0  0  0  0  0  0  0  0  0  0  0  0
   12.1164   25.8834    0.7027 C   0  0  0  0  0  0  0  0  0  0  0  0
   12.1912   24.5599    0.2371 C   0  0  0  0  0  0  0  0  0  0  0  0
   11.4055   23.5665    0.6802 C   0  0  0  0  0  0  0  0  0  0  0  0
   10.4479   23.8891    1.6827 C   0  0  0  0  0  0  0  0  0  0  0  0
    8.4634   26.3867    3.0851 N   0  0  0  0  0  0  0  0  0  0  0  0
    9.3360   25.4746    3.1884 C   0  0  0  0  0  0  0  0  0  0  0  0
    9.3498   24.7082    4.3837 N   0  0  0  0  0  0  0  0  0  0  0  0
    8.2823   27.0410    2.3261 H   0  0  0  0  0  0  0  0  0  0  0  0
    9.5915   25.2401    5.2592 H   0  0  0  0  0  0  0  0  0  0  0  0
    9.1527   23.7080    4.4781 H   0  0  0  0  0  0  0  0  0  0  0  0
 39 40  2  0  0  0
 40 41  1  0  0  0
 40 33  1  0  0  0
 33 34  2  0  0  0
 34 35  1  0  0  0
 35 36  2  0  0  0
 36 37  1  0  0  0
 37 32  1  0  0  0
 32  1  1  0  0  0
  1  2  2  0  0  0
  2  3  1  0  0  0
  3  4  2  0  0  0
  4  5  1  0  0  0
  4  6  1  0  0  0
  6  7  2  0  0  0
  7 10  1  0  0  0
 10 11  2  0  0  0
 10 12  1  0  0  0
 12 14  1  0  0  0
 14 15  2  0  0  0
 15 16  1  0  0  0
 16 17  2  0  0  0
 17 20  1  0  0  0
 20 21  2  0  0  0
 21 22  1  0  0  0
 22 23  2  0  0  0
 23 24  1  0  0  0
 24 25  2  0  0  0
 25 26  1  0  0  0
 26 27  1  0  0  0
 26 28  2  0  0  0
 26 29  2  0  0  0
 17 18  1  0  0  0
 18 19  2  0  0  0
 37 38  2  0  0  0
 38 33  1  0  0  0
  7  1  1  0  0  0
 19 14  1  0  0  0
 25 20  1  0  0  0
 39 42  1  0  0  0
 41 43  1  0  0  0
 41 44  1  0  0  0
  5  8  1  0  0  0
  5  9  1  0  0  0
 12 13  1  0  0  0
 27 30  1  0  0  0
 27 31  1  0  0  0
M  END
> <minimizedAffinity>
-3.77653

> <CNNscore>
0.4317110777

> <CNNaffinity>
7.1358938217

> <CNN_VS>
3.0806443691

> <CNNaffinity_variance>
0.2331438512

$$$$
[H]N=C(c1c([H])c([H])c([H])c(Oc2c([H])c([H])c(N([H])[H])c([H])c2C(=O)N([H])c2c([H])c([H])c(-c3c([H])c([H])c([H])c([H])c3S(=O)(=O)N([H])[H])c([H])c2[H])c1[H])N([H])[H]


 44 47  0  0  0  0  0  0  0  0999 V2000
   14.8969   25.2744   -3.9802 C   0  0  0  0  0  0  0  0  0  0  0  0
   16.2530   25.4731   -4.3440 C   0  0  0  0  0  0  0  0  0  0  0  0
   16.6623   26.6778   -4.8492 C   0  0  0  0  0  0  0  0  0  0  0  0
   15.7274   27.6725   -4.9906 C   0  0  0  0  0  0  0  0  0  0  0  0
   16.1716   28.9055   -5.5280 N   0  0  0  0  0  0  0  0  0  0  0  0
   14.4172   27.4808   -4.6324 C   0  0  0  0  0  0  0  0  0  0  0  0
   13.9652   26.2299   -4.0940 C   0  0  0  0  0  0  0  0  0  0  0  0
   15.9150   29.8011   -5.1019 H   0  0  0  0  0  0  0  0  0  0  0  0
   16.7600   28.8569   -6.3753 H   0  0  0  0  0  0  0  0  0  0  0  0
   12.6497   26.3046   -3.4020 C   0  0  0  0  0  0  0  0  0  0  0  0
   11.8935   27.1852   -3.9907 O   0  0  0  0  0  0  0  0  0  0  0  0
   12.1971   25.6403   -2.3589 N   0  0  0  0  0  0  0  0  0  0  0  0
   10.9064   26.0199   -2.7138 H   0  0  0  0  0  0  0  0  0  0  0  0
   11.7230   24.9444   -1.2663 C   0  0  0  0  0  0  0  0  0  0  0  0
   12.1345   25.3258    0.0323 C   0  0  0  0  0  0  0  0  0  0  0  0
   11.7606   24.6163    1.1508 C   0  0  0  0  0  0  0  0  0  0  0  0
   10.9673   23.5017    1.0540 C   0  0  0  0  0  0  0  0  0  0  0  0
   10.5495   23.1115   -0.1919 C   0  0  0  0  0  0  0  0  0  0  0  0
   10.9195   23.8172   -1.3240 C   0  0  0  0  0  0  0  0  0  0  0  0
   10.5973   22.7031    2.2003 C   0  0  0  0  0  0  0  0  0  0  0  0
   11.3491   21.6114    2.5922 C   0  0  0  0  0  0  0  0  0  0  0  0
   10.9872   20.8252    3.6561 C   0  0  0  0  0  0  0  0  0  0  0  0
    9.8403   21.1311    4.3558 C   0  0  0  0  0  0  0  0  0  0  0  0
    9.0836   22.2085    3.9837 C   0  0  0  0  0  0  0  0  0  0  0  0
    9.4569   23.0026    2.9046 C   0  0  0  0  0  0  0  0  0  0  0  0
    8.4721   24.3532    2.5204 S   0  0  0  0  0  0  0  0  0  0  0  0
    7.0196   24.2837    3.5004 N   0  0  0  0  0  0  0  0  0  0  0  0
    7.9436   24.2178    1.1021 O   0  0  0  0  0  0  0  0  0  0  0  0
    9.1237   25.6878    2.7400 O   0  0  0  0  0  0  0  0  0  0  0  0
    6.3899   23.5184    3.1797 H   0  0  0  0  0  0  0  0  0  0  0  0
    7.2818   24.1035    4.4837 H   0  0  0  0  0  0  0  0  0  0  0  0
   14.5865   23.9800   -3.4999 O   0  0  0  0  0  0  0  0  0  0  0  0
   14.5705   22.3906   -0.2024 C   0  0  0  0  0  0  0  0  0  0  0  0
   15.2404   23.3115    0.5759 C   0  0  0  0  0  0  0  0  0  0  0  0
   15.7267   24.4857    0.0581 C   0  0  0  0  0  0  0  0  0  0  0  0
   15.5108   24.7116   -1.3117 C   0  0  0  0  0  0  0  0  0  0  0  0
   14.8654   23.8546   -2.1176 C   0  0  0  0  0  0  0  0  0  0  0  0
   14.3804   22.6497   -1.5350 C   0  0  0  0  0  0  0  0  0  0  0  0
   14.4718   20.6169    1.4433 N   0  0  0  0  0  0  0  0  0  0  0  0
   14.0467   21.1459    0.3739 C   0  0  0  0  0  0  0  0  0  0  0  0
   13.0036   20.4792   -0.3216 N   0  0  0  0  0  0  0  0  0  0  0  0
   15.2007   20.9240    2.0846 H   0  0  0  0  0  0  0  0  0  0  0  0
   13.2536   19.5358   -0.7157 H   0  0  0  0  0  0  0  0  0  0  0  0
   12.0499   20.8180   -0.4763 H   0  0  0  0  0  0  0  0  0  0  0  0
 39 40  2  0  0  0
 40 41  1  0  0  0
 40 33  1  0  0  0
 33 34  2  0  0  0
 34 35  1  0  0  0
 35 36  2  0  0  0
 36 37  1  0  0  0
 37 32  1  0  0  0
 32  1  1  0  0  0
  1  2  2  0  0  0
  2  3  1  0  0  0
  3  4  2  0  0  0
  4  5  1  0  0  0
  4  6  1  0  0  0
  6  7  2  0  0  0
  7 10  1  0  0  0
 10 11  2  0  0  0
 10 12  1  0  0  0
 12 14  1  0  0  0
 14 15  2  0  0  0
 15 16  1  0  0  0
 16 17  2  0  0  0
 17 20  1  0  0  0
 20 21  2  0  0  0
 21 22  1  0  0  0
 22 23  2  0  0  0
 23 24  1  0  0  0
 24 25  2  0  0  0
 25 26  1  0  0  0
 26 27  1  0  0  0
 26 28  2  0  0  0
 26 29  2  0  0  0
 17 18  1  0  0  0
 18 19  2  0  0  0
 37 38  2  0  0  0
 38 33  1  0  0  0
  7  1  1  0  0  0
 19 14  1  0  0  0
 25 20  1  0  0  0
 39 42  1  0  0  0
 41 43  1  0  0  0
 41 44  1  0  0  0
  5  8  1  0  0  0
  5  9  1  0  0  0
 12 13  1  0  0  0
 27 30  1  0  0  0
 27 31  1  0  0  0
M  END
> <minimizedAffinity>
-8.79617

> <CNNscore>
0.3834287524

> <CNNaffinity>
7.4898085594

> <CNN_VS>
2.8718080521

> <CNNaffinity_variance>
0.1989480257

$$$$
[H]N=C(c1c([H])c([H])c([H])c(Oc2c([H])c([H])c(N([H])[H])c([H])c2C(=O)N([H])c2c([H])c([H])c(-c3c([H])c([H])c([H])c([H])c3S(=O)(=O)N([H])[H])c([H])c2[H])c1[H])N([H])[H]


 44 47  0  0  0  0  0  0  0  0999 V2000
   10.3568   23.0665    2.7123 C   0  0  0  0  0  0  0  0  0  0  0  0
    9.7378   23.3568    3.9546 C   0  0  0  0  0  0  0  0  0  0  0  0
    8.9670   24.4793    4.0957 C   0  0  0  0  0  0  0  0  0  0  0  0
    8.8173   25.3034    3.0086 C   0  0  0  0  0  0  0  0  0  0  0  0
    8.0266   26.4658    3.1825 N   0  0  0  0  0  0  0  0  0  0  0  0
    9.4117   25.0180    1.8056 C   0  0  0  0  0  0  0  0  0  0  0  0
   10.2181   23.8441    1.6306 C   0  0  0  0  0  0  0  0  0  0  0  0
    7.3109   26.7358    2.5011 H   0  0  0  0  0  0  0  0  0  0  0  0
    8.2134   27.0316    4.0260 H   0  0  0  0  0  0  0  0  0  0  0  0
   10.4556   23.4751    0.2085 C   0  0  0  0  0  0  0  0  0  0  0  0
    9.6377   22.5250   -0.1409 O   0  0  0  0  0  0  0  0  0  0  0  0
   11.3164   23.9567   -0.6640 N   0  0  0  0  0  0  0  0  0  0  0  0
   10.5621   23.3813   -1.6820 H   0  0  0  0  0  0  0  0  0  0  0  0
   12.2180   24.4612   -1.5780 C   0  0  0  0  0  0  0  0  0  0  0  0
   12.0167   25.7562   -2.1103 C   0  0  0  0  0  0  0  0  0  0  0  0
   12.8358   26.2762   -3.0865 C   0  0  0  0  0  0  0  0  0  0  0  0
   13.8900   25.5564   -3.5883 C   0  0  0  0  0  0  0  0  0  0  0  0
   14.1119   24.2999   -3.0874 C   0  0  0  0  0  0  0  0  0  0  0  0
   13.2944   23.7665   -2.1056 C   0  0  0  0  0  0  0  0  0  0  0  0
   14.7394   26.0493   -4.6486 C   0  0  0  0  0  0  0  0  0  0  0  0
   14.3251   26.0423   -5.9672 C   0  0  0  0  0  0  0  0  0  0  0  0
   15.1367   26.4737   -6.9853 C   0  0  0  0  0  0  0  0  0  0  0  0
   16.4029   26.9274   -6.6862 C   0  0  0  0  0  0  0  0  0  0  0  0
   16.8305   26.9430   -5.3868 C   0  0  0  0  0  0  0  0  0  0  0  0
   16.0020   26.5054   -4.3589 C   0  0  0  0  0  0  0  0  0  0  0  0
   16.6003   26.5854   -2.7535 S   0  0  0  0  0  0  0  0  0  0  0  0
   18.1890   27.3270   -2.7845 N   0  0  0  0  0  0  0  0  0  0  0  0
   16.8790   25.1834   -2.2378 O   0  0  0  0  0  0  0  0  0  0  0  0
   15.7381   27.3612   -1.8003 O   0  0  0  0  0  0  0  0  0  0  0  0
   18.8943   26.6800   -3.1959 H   0  0  0  0  0  0  0  0  0  0  0  0
   18.1527   28.1837   -3.3614 H   0  0  0  0  0  0  0  0  0  0  0  0
   11.1535   21.8971    2.6960 O   0  0  0  0  0  0  0  0  0  0  0  0
    8.5781   19.9778    4.4518 C   0  0  0  0  0  0  0  0  0  0  0  0
    9.3241   19.0791    5.1856 C   0  0  0  0  0  0  0  0  0  0  0  0
   10.6955   19.0599    5.1364 C   0  0  0  0  0  0  0  0  0  0  0  0
   11.3126   20.0039    4.2985 C   0  0  0  0  0  0  0  0  0  0  0  0
   10.6404   20.9028    3.5633 C   0  0  0  0  0  0  0  0  0  0  0  0
    9.2195   20.8830    3.6466 C   0  0  0  0  0  0  0  0  0  0  0  0
    6.3524   19.2387    3.8484 N   0  0  0  0  0  0  0  0  0  0  0  0
    7.1119   19.9901    4.5285 C   0  0  0  0  0  0  0  0  0  0  0  0
    6.5008   20.9179    5.4128 N   0  0  0  0  0  0  0  0  0  0  0  0
    6.5797   18.5168    3.1671 H   0  0  0  0  0  0  0  0  0  0  0  0
    5.9264   21.6703    4.9527 H   0  0  0  0  0  0  0  0  0  0  0  0
    6.5621   20.9291    6.4348 H   0  0  0  0  0  0  0  0  0  0  0  0
 39 40  2  0  0  0
 40 41  1  0  0  0
 40 33  1  0  0  0
 33 34  2  0  0  0
 34 35  1  0  0  0
 35 36  2  0  0  0
 36 37  1  0  0  0
 37 32  1  0  0  0
 32  1  1  0  0  0
  1  2  2  0  0  0
  2  3  1  0  0  0
  3  4  2  0  0  0
  4  5  1  0  0  0
  4  6  1  0  0  0
  6  7  2  0  0  0
  7 10  1  0  0  0
 10 11  2  0  0  0
 10 12  1  0  0  0
 12 14  1  0  0  0
 14 15  2  0  0  0
 15 16  1  0  0  0
 16 17  2  0  0  0
 17 20  1  0  0  0
 20 21  2  0  0  0
 21 22  1  0  0  0
 22 23  2  0  0  0
 23 24  1  0  0  0
 24 25  2  0  0  0
 25 26  1  0  0  0
 26 27  1  0  0  0
 26 28  2  0  0  0
 26 29  2  0  0  0
 17 18  1  0  0  0
 18 19  2  0  0  0
 37 38  2  0  0  0
 38 33  1  0  0  0
  7  1  1  0  0  0
 19 14  1  0  0  0
 25 20  1  0  0  0
 39 42  1  0  0  0
 41 43  1  0  0  0
 41 44  1  0  0  0
  5  8  1  0  0  0
  5  9  1  0  0  0
 12 13  1  0  0  0
 27 30  1  0  0  0
 27 31  1  0  0  0
M  END
> <minimizedAffinity>
-4.39891

> <CNNscore>
0.3830643594

> <CNNaffinity>
6.7688927650

> <CNN_VS>
2.5929214954

> <CNNaffinity_variance>
0.4053749144

$$$$
[H]N=C(c1c([H])c([H])c([H])c(Oc2c([H])c([H])c(N([H])[H])c([H])c2C(=O)N([H])c2c([H])c([H])c(-c3c([H])c([H])c([H])c([H])c3S(=O)(=O)N([H])[H])c([H])c2[H])c1[H])N([H])[H]


 44 47  0  0  0  0  0  0  0  0999 V2000
   14.9432   23.0505   -2.3377 C   0  0  0  0  0  0  0  0  0  0  0  0
   14.9119   23.4694   -3.6921 C   0  0  0  0  0  0  0  0  0  0  0  0
   14.7385   22.5527   -4.6939 C   0  0  0  0  0  0  0  0  0  0  0  0
   14.5994   21.2322   -4.3470 C   0  0  0  0  0  0  0  0  0  0  0  0
   14.4349   20.3007   -5.4014 N   0  0  0  0  0  0  0  0  0  0  0  0
   14.6236   20.8292   -3.0359 C   0  0  0  0  0  0  0  0  0  0  0  0
   14.7967   21.7715   -1.9677 C   0  0  0  0  0  0  0  0  0  0  0  0
   13.7129   19.5745   -5.3692 H   0  0  0  0  0  0  0  0  0  0  0  0
   15.0842   20.3849   -6.1999 H   0  0  0  0  0  0  0  0  0  0  0  0
   14.4116   21.2506   -0.6279 C   0  0  0  0  0  0  0  0  0  0  0  0
   15.3940   20.5598   -0.1265 O   0  0  0  0  0  0  0  0  0  0  0  0
   13.2943   21.3966    0.0537 N   0  0  0  0  0  0  0  0  0  0  0  0
   13.9754   20.9977    1.1996 H   0  0  0  0  0  0  0  0  0  0  0  0
   12.1240   21.5495    0.7677 C   0  0  0  0  0  0  0  0  0  0  0  0
   12.1830   21.9748    2.1156 C   0  0  0  0  0  0  0  0  0  0  0  0
   11.0555   22.0633    2.8998 C   0  0  0  0  0  0  0  0  0  0  0  0
    9.8176   21.7412    2.4047 C   0  0  0  0  0  0  0  0  0  0  0  0
    9.7297   21.3305    1.0999 C   0  0  0  0  0  0  0  0  0  0  0  0
   10.8570   21.2374    0.3018 C   0  0  0  0  0  0  0  0  0  0  0  0
    8.6197   21.7729    3.2127 C   0  0  0  0  0  0  0  0  0  0  0  0
    8.2401   20.6899    3.9831 C   0  0  0  0  0  0  0  0  0  0  0  0
    7.0865   20.6957    4.7250 C   0  0  0  0  0  0  0  0  0  0  0  0
    6.2809   21.8133    4.7022 C   0  0  0  0  0  0  0  0  0  0  0  0
    6.6404   22.8956    3.9465 C   0  0  0  0  0  0  0  0  0  0  0  0
    7.8124   22.8838    3.1976 C   0  0  0  0  0  0  0  0  0  0  0  0
    8.2087   24.2912    2.3009 S   0  0  0  0  0  0  0  0  0  0  0  0
    8.0547   23.9282    0.5923 N   0  0  0  0  0  0  0  0  0  0  0  0
    9.6874   24.6032    2.4601 O   0  0  0  0  0  0  0  0  0  0  0  0
    7.3574   25.4897    2.6053 O   0  0  0  0  0  0  0  0  0  0  0  0
    8.8240   23.3023    0.2735 H   0  0  0  0  0  0  0  0  0  0  0  0
    7.1528   23.4516    0.4264 H   0  0  0  0  0  0  0  0  0  0  0  0
   15.1591   24.0824   -1.3938 O   0  0  0  0  0  0  0  0  0  0  0  0
   15.7473   26.7590   -3.8206 C   0  0  0  0  0  0  0  0  0  0  0  0
   16.9044   27.3418   -3.3474 C   0  0  0  0  0  0  0  0  0  0  0  0
   17.5384   26.8887   -2.2177 C   0  0  0  0  0  0  0  0  0  0  0  0
   16.9526   25.7954   -1.5578 C   0  0  0  0  0  0  0  0  0  0  0  0
   15.8304   25.1870   -1.9713 C   0  0  0  0  0  0  0  0  0  0  0  0
   15.2084   25.6935   -3.1472 C   0  0  0  0  0  0  0  0  0  0  0  0
   13.9099   26.9553   -5.3857 N   0  0  0  0  0  0  0  0  0  0  0  0
   15.0915   27.2509   -5.0387 C   0  0  0  0  0  0  0  0  0  0  0  0
   15.8362   28.1034   -5.8960 N   0  0  0  0  0  0  0  0  0  0  0  0
   13.2159   26.3698   -4.9248 H   0  0  0  0  0  0  0  0  0  0  0  0
   16.0585   27.7076   -6.8456 H   0  0  0  0  0  0  0  0  0  0  0  0
   16.1734   29.0473   -5.6871 H   0  0  0  0  0  0  0  0  0  0  0  0
 39 40  2  0  0  0
 40 41  1  0  0  0
 40 33  1  0  0  0
 33 34  2  0  0  0
 34 35  1  0  0  0
 35 36  2  0  0  0
 36 37  1  0  0  0
 37 32  1  0  0  0
 32  1  1  0  0  0
  1  2  2  0  0  0
  2  3  1  0  0  0
  3  4  2  0  0  0
  4  5  1  0  0  0
  4  6  1  0  0  0
  6  7  2  0  0  0
  7 10  1  0  0  0
 10 11  2  0  0  0
 10 12  1  0  0  0
 12 14  1  0  0  0
 14 15  2  0  0  0
 15 16  1  0  0  0
 16 17  2  0  0  0
 17 20  1  0  0  0
 20 21  2  0  0  0
 21 22  1  0  0  0
 22 23  2  0  0  0
 23 24  1  0  0  0
 24 25  2  0  0  0
 25 26  1  0  0  0
 26 27  1  0  0  0
 26 28  2  0  0  0
 26 29  2  0  0  0
 17 18  1  0  0  0
 18 19  2  0  0  0
 37 38  2  0  0  0
 38 33  1  0  0  0
  7  1  1  0  0  0
 19 14  1  0  0  0
 25 20  1  0  0  0
 39 42  1  0  0  0
 41 43  1  0  0  0
 41 44  1  0  0  0
  5  8  1  0  0  0
  5  9  1  0  0  0
 12 13  1  0  0  0
 27 30  1  0  0  0
 27 31  1  0  0  0
M  END
> <minimizedAffinity>
-3.32608

> <CNNscore>
0.3765730560

> <CNNaffinity>
7.0643758774

> <CNN_VS>
2.6602535248

> <CNNaffinity_variance>
0.6608226299

$$$$
[H]N=C(c1c([H])c([H])c([H])c(Oc2c([H])c([H])c(N([H])[H])c([H])c2C(=O)N([H])c2c([H])c([H])c(-c3c([H])c([H])c([H])c([H])c3S(=O)(=O)N([H])[H])c([H])c2[H])c1[H])N([H])[H]


 44 47  0  0  0  0  0  0  0  0999 V2000
   11.8061   21.3634    0.8924 C   0  0  0  0  0  0  0  0  0  0  0  0
   10.7177   21.0101    1.7300 C   0  0  0  0  0  0  0  0  0  0  0  0
   10.8835   20.0808    2.7214 C   0  0  0  0  0  0  0  0  0  0  0  0
   12.1222   19.5098    2.8738 C   0  0  0  0  0  0  0  0  0  0  0  0
   12.2660   18.5412    3.8973 N   0  0  0  0  0  0  0  0  0  0  0  0
   13.1757   19.8572    2.0668 C   0  0  0  0  0  0  0  0  0  0  0  0
   13.0290   20.8336    1.0256 C   0  0  0  0  0  0  0  0  0  0  0  0
   13.0585   18.5586    4.5463 H   0  0  0  0  0  0  0  0  0  0  0  0
   11.5367   17.8120    3.9513 H   0  0  0  0  0  0  0  0  0  0  0  0
   14.3167   21.3785    0.5160 C   0  0  0  0  0  0  0  0  0  0  0  0
   15.2643   21.1422    1.3763 O   0  0  0  0  0  0  0  0  0  0  0  0
   14.5891   22.0117   -0.6060 N   0  0  0  0  0  0  0  0  0  0  0  0
   15.9373   21.7349   -0.4010 H   0  0  0  0  0  0  0  0  0  0  0  0
   14.8745   22.6750   -1.7814 C   0  0  0  0  0  0  0  0  0  0  0  0
   15.2560   24.0364   -1.7359 C   0  0  0  0  0  0  0  0  0  0  0  0
   15.4702   24.7698   -2.8806 C   0  0  0  0  0  0  0  0  0  0  0  0
   15.3225   24.2083   -4.1233 C   0  0  0  0  0  0  0  0  0  0  0  0
   14.9581   22.8890   -4.1976 C   0  0  0  0  0  0  0  0  0  0  0  0
   14.7396   22.1415   -3.0530 C   0  0  0  0  0  0  0  0  0  0  0  0
   15.4889   24.9604   -5.3461 C   0  0  0  0  0  0  0  0  0  0  0  0
   15.7198   24.3308   -6.5547 C   0  0  0  0  0  0  0  0  0  0  0  0
   15.9154   25.0359   -7.7147 C   0  0  0  0  0  0  0  0  0  0  0  0
   15.8813   26.4128   -7.6756 C   0  0  0  0  0  0  0  0  0  0  0  0
   15.6529   27.0541   -6.4889 C   0  0  0  0  0  0  0  0  0  0  0  0
   15.4540   26.3330   -5.3164 C   0  0  0  0  0  0  0  0  0  0  0  0
   15.1429   27.2096   -3.8754 S   0  0  0  0  0  0  0  0  0  0  0  0
   13.5652   26.7451   -3.2670 N   0  0  0  0  0  0  0  0  0  0  0  0
   14.9729   28.6850   -4.1972 O   0  0  0  0  0  0  0  0  0  0  0  0
   16.1494   26.9972   -2.7819 O   0  0  0  0  0  0  0  0  0  0  0  0
   12.8060   27.1309   -3.8670 H   0  0  0  0  0  0  0  0  0  0  0  0
   13.4917   25.7142   -3.2660 H   0  0  0  0  0  0  0  0  0  0  0  0
   11.5066   22.3104   -0.1156 O   0  0  0  0  0  0  0  0  0  0  0  0
   10.3719   25.1044    1.9595 C   0  0  0  0  0  0  0  0  0  0  0  0
   11.2217   26.1223    1.5799 C   0  0  0  0  0  0  0  0  0  0  0  0
   12.2001   25.9396    0.6351 C   0  0  0  0  0  0  0  0  0  0  0  0
   12.2998   24.6589    0.0658 C   0  0  0  0  0  0  0  0  0  0  0  0
   11.5014   23.6315    0.3933 C   0  0  0  0  0  0  0  0  0  0  0  0
   10.5024   23.8694    1.3790 C   0  0  0  0  0  0  0  0  0  0  0  0
    8.2823   26.0200    2.7715 N   0  0  0  0  0  0  0  0  0  0  0  0
    9.3231   25.3242    2.9632 C   0  0  0  0  0  0  0  0  0  0  0  0
    9.4926   24.7308    4.2420 N   0  0  0  0  0  0  0  0  0  0  0  0
    7.9716   26.5246    1.9434 H   0  0  0  0  0  0  0  0  0  0  0  0
    9.6196   25.4050    5.0403 H   0  0  0  0  0  0  0  0  0  0  0  0
    9.5044   23.7309    4.4620 H   0  0  0  0  0  0  0  0  0  0  0  0
 39 40  2  0  0  0
 40 41  1  0  0  0
 40 33  1  0  0  0
 33 34  2  0  0  0
 34 35  1  0  0  0
 35 36  2  0  0  0
 36 37  1  0  0  0
 37 32  1  0  0  0
 32  1  1  0  0  0
  1  2  2  0  0  0
  2  3  1  0  0  0
  3  4  2  0  0  0
  4  5  1  0  0  0
  4  6  1  0  0  0
  6  7  2  0  0  0
  7 10  1  0  0  0
 10 11  2  0  0  0
 10 12  1  0  0  0
 12 14  1  0  0  0
 14 15  2  0  0  0
 15 16  1  0  0  0
 16 17  2  0  0  0
 17 20  1  0  0  0
 20 21  2  0  0  0
 21 22  1  0  0  0
 22 23  2  0  0  0
 23 24  1  0  0  0
 24 25  2  0  0  0
 25 26  1  0  0  0
 26 27  1  0  0  0
 26 28  2  0  0  0
 26 29  2  0  0  0
 17 18  1  0  0  0
 18 19  2  0  0  0
 37 38  2  0  0  0
 38 33  1  0  0  0
  7  1  1  0  0  0
 19 14  1  0  0  0
 25 20  1  0  0  0
 39 42  1  0  0  0
 41 43  1  0  0  0
 41 44  1  0  0  0
  5  8  1  0  0  0
  5  9  1  0  0  0
 12 13  1  0  0  0
 27 30  1  0  0  0
 27 31  1  0  0  0
M  END
> <minimizedAffinity>
-2.48089

> <CNNscore>
0.3594561517

> <CNNaffinity>
7.0134177208

> <CNN_VS>
2.5210161209

> <CNNaffinity_variance>
0.1992486268

$$$$
[H]N=C(c1c([H])c([H])c([H])c(Oc2c([H])c([H])c(N([H])[H])c([H])c2C(=O)N([H])c2c([H])c([H])c(-c3c([H])c([H])c([H])c([H])c3S(=O)(=O)N([H])[H])c([H])c2[H])c1[H])N([H])[H]


 44 47  0  0  0  0  0  0  0  0999 V2000
   14.8990   25.2783   -4.0166 C   0  0  0  0  0  0  0  0  0  0  0  0
   16.2690   25.4569   -4.3363 C   0  0  0  0  0  0  0  0  0  0  0  0
   16.7171   26.6637   -4.8020 C   0  0  0  0  0  0  0  0  0  0  0  0
   15.8068   27.6804   -4.9480 C   0  0  0  0  0  0  0  0  0  0  0  0
   16.2913   28.9155   -5.4443 N   0  0  0  0  0  0  0  0  0  0  0  0
   14.4830   27.5080   -4.6324 C   0  0  0  0  0  0  0  0  0  0  0  0
   13.9904   26.2551   -4.1358 C   0  0  0  0  0  0  0  0  0  0  0  0
   16.0402   29.8066   -5.0057 H   0  0  0  0  0  0  0  0  0  0  0  0
   16.9033   28.8733   -6.2750 H   0  0  0  0  0  0  0  0  0  0  0  0
   12.6568   26.3417   -3.4808 C   0  0  0  0  0  0  0  0  0  0  0  0
   11.8711   27.1044   -4.1842 O   0  0  0  0  0  0  0  0  0  0  0  0
   12.2140   25.7834   -2.3734 N   0  0  0  0  0  0  0  0  0  0  0  0
   10.9143   26.0488   -2.7938 H   0  0  0  0  0  0  0  0  0  0  0  0
   11.7501   25.1985   -1.2134 C   0  0  0  0  0  0  0  0  0  0  0  0
   10.6475   24.3143   -1.2740 C   0  0  0  0  0  0  0  0  0  0  0  0
   10.0904   23.7687   -0.1400 C   0  0  0  0  0  0  0  0  0  0  0  0
   10.5837   24.0603    1.1061 C   0  0  0  0  0  0  0  0  0  0  0  0
   11.6551   24.9107    1.1947 C   0  0  0  0  0  0  0  0  0  0  0  0
   12.2235   25.4658    0.0610 C   0  0  0  0  0  0  0  0  0  0  0  0
    9.9928   23.5471    2.3211 C   0  0  0  0  0  0  0  0  0  0  0  0
    9.1127   24.3042    3.0712 C   0  0  0  0  0  0  0  0  0  0  0  0
    8.5744   23.8409    4.2446 C   0  0  0  0  0  0  0  0  0  0  0  0
    8.9206   22.5839    4.6902 C   0  0  0  0  0  0  0  0  0  0  0  0
    9.7894   21.8191    3.9609 C   0  0  0  0  0  0  0  0  0  0  0  0
   10.3306   22.2943    2.7711 C   0  0  0  0  0  0  0  0  0  0  0  0
   11.3880   21.2629    1.8993 S   0  0  0  0  0  0  0  0  0  0  0  0
   11.4629   19.7151    2.7200 N   0  0  0  0  0  0  0  0  0  0  0  0
   12.8126   21.7818    2.0009 O   0  0  0  0  0  0  0  0  0  0  0  0
   10.9915   21.0192    0.4720 O   0  0  0  0  0  0  0  0  0  0  0  0
   11.9973   19.7912    3.6110 H   0  0  0  0  0  0  0  0  0  0  0  0
   10.5032   19.3996    2.9381 H   0  0  0  0  0  0  0  0  0  0  0  0
   14.5488   23.9803   -3.5749 O   0  0  0  0  0  0  0  0  0  0  0  0
   14.8671   22.1371   -0.4284 C   0  0  0  0  0  0  0  0  0  0  0  0
   15.4029   23.0841    0.4193 C   0  0  0  0  0  0  0  0  0  0  0  0
   15.6847   24.3601    0.0001 C   0  0  0  0  0  0  0  0  0  0  0  0
   15.4012   24.6631   -1.3422 C   0  0  0  0  0  0  0  0  0  0  0  0
   14.8788   23.7851   -2.2121 C   0  0  0  0  0  0  0  0  0  0  0  0
   14.6048   22.4737   -1.7311 C   0  0  0  0  0  0  0  0  0  0  0  0
   15.1182   20.2243    1.0354 N   0  0  0  0  0  0  0  0  0  0  0  0
   14.5610   20.7808    0.0435 C   0  0  0  0  0  0  0  0  0  0  0  0
   13.5856   20.0340   -0.6688 N   0  0  0  0  0  0  0  0  0  0  0  0
   15.8314   20.5755    1.6718 H   0  0  0  0  0  0  0  0  0  0  0  0
   13.9450   19.1783   -1.1654 H   0  0  0  0  0  0  0  0  0  0  0  0
   12.5859   20.2407   -0.7474 H   0  0  0  0  0  0  0  0  0  0  0  0
 39 40  2  0  0  0
 40 41  1  0  0  0
 40 33  1  0  0  0
 33 34  2  0  0  0
 34 35  1  0  0  0
 35 36  2  0  0  0
 36 37  1  0  0  0
 37 32  1  0  0  0
 32  1  1  0  0  0
  1  2  2  0  0  0
  2  3  1  0  0  0
  3  4  2  0  0  0
  4  5  1  0  0  0
  4  6  1  0  0  0
  6  7  2  0  0  0
  7 10  1  0  0  0
 10 11  2  0  0  0
 10 12  1  0  0  0
 12 14  1  0  0  0
 14 15  2  0  0  0
 15 16  1  0  0  0
 16 17  2  0  0  0
 17 20  1  0  0  0
 20 21  2  0  0  0
 21 22  1  0  0  0
 22 23  2  0  0  0
 23 24  1  0  0  0
 24 25  2  0  0  0
 25 26  1  0  0  0
 26 27  1  0  0  0
 26 28  2  0  0  0
 26 29  2  0  0  0
 17 18  1  0  0  0
 18 19  2  0  0  0
 37 38  2  0  0  0
 38 33  1  0  0  0
  7  1  1  0  0  0
 19 14  1  0  0  0
 25 20  1  0  0  0
 39 42  1  0  0  0
 41 43  1  0  0  0
 41 44  1  0  0  0
  5  8  1  0  0  0
  5  9  1  0  0  0
 12 13  1  0  0  0
 27 30  1  0  0  0
 27 31  1  0  0  0
M  END
> <minimizedAffinity>
-8.33141

> <CNNscore>
0.3201206923

> <CNNaffinity>
7.4928331375

> <CNN_VS>
2.3986108303

> <CNNaffinity_variance>
0.1063134894

$$$$
[H]N=C(c1c([H])c([H])c([H])c(Oc2c([H])c([H])c(N([H])[H])c([H])c2C(=O)N([H])c2c([H])c([H])c(-c3c([H])c([H])c([H])c([H])c3S(=O)(=O)N([H])[H])c([H])c2[H])c1[H])N([H])[H]


 44 47  0  0  0  0  0  0  0  0999 V2000
    7.7890   21.4450    1.9054 C   0  0  0  0  0  0  0  0  0  0  0  0
    7.4005   20.1169    1.5953 C   0  0  0  0  0  0  0  0  0  0  0  0
    6.8771   19.8205    0.3656 C   0  0  0  0  0  0  0  0  0  0  0  0
    6.7420   20.8394   -0.5438 C   0  0  0  0  0  0  0  0  0  0  0  0
    6.1856   20.5111   -1.8045 N   0  0  0  0  0  0  0  0  0  0  0  0
    7.1241   22.1225   -0.2447 C   0  0  0  0  0  0  0  0  0  0  0  0
    7.6818   22.4569    1.0345 C   0  0  0  0  0  0  0  0  0  0  0  0
    6.6075   20.8368   -2.6794 H   0  0  0  0  0  0  0  0  0  0  0  0
    5.3290   19.9343   -1.7971 H   0  0  0  0  0  0  0  0  0  0  0  0
    8.3951   23.7627    1.0651 C   0  0  0  0  0  0  0  0  0  0  0  0
    7.6525   24.6548    1.6538 O   0  0  0  0  0  0  0  0  0  0  0  0
    9.5864   24.0933    0.6115 N   0  0  0  0  0  0  0  0  0  0  0  0
    9.5414   25.2332    1.4082 H   0  0  0  0  0  0  0  0  0  0  0  0
   10.8342   24.4396    0.1363 C   0  0  0  0  0  0  0  0  0  0  0  0
   11.0188   24.6365   -1.2523 C   0  0  0  0  0  0  0  0  0  0  0  0
   12.2578   24.9001   -1.7906 C   0  0  0  0  0  0  0  0  0  0  0  0
   13.3743   24.9843   -0.9984 C   0  0  0  0  0  0  0  0  0  0  0  0
   13.2243   24.8026    0.3519 C   0  0  0  0  0  0  0  0  0  0  0  0
   11.9832   24.5367    0.9045 C   0  0  0  0  0  0  0  0  0  0  0  0
   14.6979   25.2085   -1.5336 C   0  0  0  0  0  0  0  0  0  0  0  0
   15.8294   24.7897   -0.8592 C   0  0  0  0  0  0  0  0  0  0  0  0
   17.0913   25.0294   -1.3401 C   0  0  0  0  0  0  0  0  0  0  0  0
   17.2370   25.7079   -2.5305 C   0  0  0  0  0  0  0  0  0  0  0  0
   16.1289   26.1293   -3.2132 C   0  0  0  0  0  0  0  0  0  0  0  0
   14.8519   25.8818   -2.7206 C   0  0  0  0  0  0  0  0  0  0  0  0
   13.5132   26.4152   -3.6507 S   0  0  0  0  0  0  0  0  0  0  0  0
   14.0058   26.5231   -5.3302 N   0  0  0  0  0  0  0  0  0  0  0  0
   13.1776   27.8531   -3.2918 O   0  0  0  0  0  0  0  0  0  0  0  0
   12.3023   25.5313   -3.5720 O   0  0  0  0  0  0  0  0  0  0  0  0
   14.6476   27.3300   -5.4792 H   0  0  0  0  0  0  0  0  0  0  0  0
   14.5011   25.6556   -5.5951 H   0  0  0  0  0  0  0  0  0  0  0  0
    8.2866   21.6355    3.2164 O   0  0  0  0  0  0  0  0  0  0  0  0
   11.6955   20.5718    2.4115 C   0  0  0  0  0  0  0  0  0  0  0  0
   12.0209   19.7732    3.4880 C   0  0  0  0  0  0  0  0  0  0  0  0
   11.1447   19.5510    4.5207 C   0  0  0  0  0  0  0  0  0  0  0  0
    9.8903   20.1777    4.4332 C   0  0  0  0  0  0  0  0  0  0  0  0
    9.5171   20.9630    3.4112 C   0  0  0  0  0  0  0  0  0  0  0  0
   10.4604   21.1647    2.3645 C   0  0  0  0  0  0  0  0  0  0  0  0
   12.3090   20.9552    0.1005 N   0  0  0  0  0  0  0  0  0  0  0  0
   12.6429   20.7866    1.3105 C   0  0  0  0  0  0  0  0  0  0  0  0
   14.0291   20.7898    1.6181 N   0  0  0  0  0  0  0  0  0  0  0  0
   11.3863   20.9863   -0.3292 H   0  0  0  0  0  0  0  0  0  0  0  0
   14.5865   19.9997    1.2023 H   0  0  0  0  0  0  0  0  0  0  0  0
   14.5321   21.4707    2.1941 H   0  0  0  0  0  0  0  0  0  0  0  0
 39 40  2  0  0  0
 40 41  1  0  0  0
 40 33  1  0  0  0
 33 34  2  0  0  0
 34 35  1  0  0  0
 35 36  2  0  0  0
 36 37  1  0  0  0
 37 32  1  0  0  0
 32  1  1  0  0  0
  1  2  2  0  0  0
  2  3  1  0  0  0
  3  4  2  0  0  0
  4  5  1  0  0  0
  4  6  1  0  0  0
  6  7  2  0  0  0
  7 10  1  0  0  0
 10 11  2  0  0  0
 10 12  1  0  0  0
 12 14  1  0  0  0
 14 15  2  0  0  0
 15 16  1  0  0  0
 16 17  2  0  0  0
 17 20  1  0  0  0
 20 21  2  0  0  0
 21 22  1  0  0  0
 22 23  2  0  0  0
 23 24  1  0  0  0
 24 25  2  0  0  0
 25 26  1  0  0  0
 26 27  1  0  0  0
 26 28  2  0  0  0
 26 29  2  0  0  0
 17 18  1  0  0  0
 18 19  2  0  0  0
 37 38  2  0  0  0
 38 33  1  0  0  0
  7  1  1  0  0  0
 19 14  1  0  0  0
 25 20  1  0  0  0
 39 42  1  0  0  0
 41 43  1  0  0  0
 41 44  1  0  0  0
  5  8  1  0  0  0
  5  9  1  0  0  0
 12 13  1  0  0  0
 27 30  1  0  0  0
 27 31  1  0  0  0
M  END
> <minimizedAffinity>
-5.27938

> <CNNscore>
0.3175560534

> <CNNaffinity>
7.0633721352

> <CNN_VS>
2.2430164814

> <CNNaffinity_variance>
0.4002631307

$$$$
[H]N=C(c1c([H])c([H])c([H])c(Oc2c([H])c([H])c(N([H])[H])c([H])c2C(=O)N([H])c2c([H])c([H])c(-c3c([H])c([H])c([H])c([H])c3S(=O)(=O)N([H])[H])c([H])c2[H])c1[H])N([H])[H]


 44 47  0  0  0  0  0  0  0  0999 V2000
   15.4512   26.1451   -2.8205 C   0  0  0  0  0  0  0  0  0  0  0  0
   16.7548   26.5660   -3.1872 C   0  0  0  0  0  0  0  0  0  0  0  0
   16.9670   27.1861   -4.3890 C   0  0  0  0  0  0  0  0  0  0  0  0
   15.8896   27.3823   -5.2161 C   0  0  0  0  0  0  0  0  0  0  0  0
   16.1360   28.0136   -6.4600 N   0  0  0  0  0  0  0  0  0  0  0  0
   14.6281   26.9802   -4.8574 C   0  0  0  0  0  0  0  0  0  0  0  0
   14.3789   26.3348   -3.6002 C   0  0  0  0  0  0  0  0  0  0  0  0
   15.5440   28.7766   -6.8021 H   0  0  0  0  0  0  0  0  0  0  0  0
   16.9369   27.6609   -7.0083 H   0  0  0  0  0  0  0  0  0  0  0  0
   12.9466   26.3215   -3.1961 C   0  0  0  0  0  0  0  0  0  0  0  0
   12.2585   27.0867   -3.9928 O   0  0  0  0  0  0  0  0  0  0  0  0
   12.3440   25.6798   -2.2166 N   0  0  0  0  0  0  0  0  0  0  0  0
   11.1282   25.9089   -2.8535 H   0  0  0  0  0  0  0  0  0  0  0  0
   11.7127   25.0076   -1.1907 C   0  0  0  0  0  0  0  0  0  0  0  0
   10.6760   24.0940   -1.4931 C   0  0  0  0  0  0  0  0  0  0  0  0
    9.9557   23.4595   -0.5067 C   0  0  0  0  0  0  0  0  0  0  0  0
   10.2142   23.6870    0.8209 C   0  0  0  0  0  0  0  0  0  0  0  0
   11.2170   24.5641    1.1435 C   0  0  0  0  0  0  0  0  0  0  0  0
   11.9479   25.2083    0.1599 C   0  0  0  0  0  0  0  0  0  0  0  0
    9.4454   23.0786    1.8828 C   0  0  0  0  0  0  0  0  0  0  0  0
    8.2768   23.6522    2.3474 C   0  0  0  0  0  0  0  0  0  0  0  0
    7.5590   23.1029    3.3790 C   0  0  0  0  0  0  0  0  0  0  0  0
    8.0152   21.9453    3.9709 C   0  0  0  0  0  0  0  0  0  0  0  0
    9.1693   21.3621    3.5241 C   0  0  0  0  0  0  0  0  0  0  0  0
    9.8918   21.9235    2.4766 C   0  0  0  0  0  0  0  0  0  0  0  0
   11.3116   21.1154    1.9542 S   0  0  0  0  0  0  0  0  0  0  0  0
   11.5038   19.6524    2.9016 N   0  0  0  0  0  0  0  0  0  0  0  0
   12.5362   21.9353    2.3249 O   0  0  0  0  0  0  0  0  0  0  0  0
   11.3207   20.7387    0.5010 O   0  0  0  0  0  0  0  0  0  0  0  0
   11.7862   19.8759    3.8791 H   0  0  0  0  0  0  0  0  0  0  0  0
   10.6044   19.1439    2.9273 H   0  0  0  0  0  0  0  0  0  0  0  0
   15.3606   25.4886   -1.5702 O   0  0  0  0  0  0  0  0  0  0  0  0
   15.0002   22.0042   -0.5077 C   0  0  0  0  0  0  0  0  0  0  0  0
   14.6922   21.3624   -1.6891 C   0  0  0  0  0  0  0  0  0  0  0  0
   14.5866   22.0384   -2.8788 C   0  0  0  0  0  0  0  0  0  0  0  0
   14.8081   23.4254   -2.8412 C   0  0  0  0  0  0  0  0  0  0  0  0
   15.1123   24.1033   -1.7239 C   0  0  0  0  0  0  0  0  0  0  0  0
   15.2093   23.3590   -0.5145 C   0  0  0  0  0  0  0  0  0  0  0  0
   15.9135   21.5661    1.6919 N   0  0  0  0  0  0  0  0  0  0  0  0
   15.1210   21.2604    0.7524 C   0  0  0  0  0  0  0  0  0  0  0  0
   14.3065   20.1102    0.9255 N   0  0  0  0  0  0  0  0  0  0  0  0
   16.5739   22.3372    1.7708 H   0  0  0  0  0  0  0  0  0  0  0  0
   14.8229   19.1949    0.9835 H   0  0  0  0  0  0  0  0  0  0  0  0
   13.2856   20.0818    0.9976 H   0  0  0  0  0  0  0  0  0  0  0  0
 39 40  2  0  0  0
 40 41  1  0  0  0
 40 33  1  0  0  0
 33 34  2  0  0  0
 34 35  1  0  0  0
 35 36  2  0  0  0
 36 37  1  0  0  0
 37 32  1  0  0  0
 32  1  1  0  0  0
  1  2  2  0  0  0
  2  3  1  0  0  0
  3  4  2  0  0  0
  4  5  1  0  0  0
  4  6  1  0  0  0
  6  7  2  0  0  0
  7 10  1  0  0  0
 10 11  2  0  0  0
 10 12  1  0  0  0
 12 14  1  0  0  0
 14 15  2  0  0  0
 15 16  1  0  0  0
 16 17  2  0  0  0
 17 20  1  0  0  0
 20 21  2  0  0  0
 21 22  1  0  0  0
 22 23  2  0  0  0
 23 24  1  0  0  0
 24 25  2  0  0  0
 25 26  1  0  0  0
 26 27  1  0  0  0
 26 28  2  0  0  0
 26 29  2  0  0  0
 17 18  1  0  0  0
 18 19  2  0  0  0
 37 38  2  0  0  0
 38 33  1  0  0  0
  7  1  1  0  0  0
 19 14  1  0  0  0
 25 20  1  0  0  0
 39 42  1  0  0  0
 41 43  1  0  0  0
 41 44  1  0  0  0
  5  8  1  0  0  0
  5  9  1  0  0  0
 12 13  1  0  0  0
 27 30  1  0  0  0
 27 31  1  0  0  0
M  END
> <minimizedAffinity>
-8.95510

> <CNNscore>
0.3143664598

> <CNNaffinity>
7.5081634521

> <CNN_VS>
2.3603148460

> <CNNaffinity_variance>
0.0726231709

$$$$
[H]N=C(c1c([H])c([H])c([H])c(Oc2c([H])c([H])c(N([H])[H])c([H])c2C(=O)N([H])c2c([H])c([H])c(-c3c([H])c([H])c([H])c([H])c3S(=O)(=O)N([H])[H])c([H])c2[H])c1[H])N([H])[H]


 44 47  0  0  0  0  0  0  0  0999 V2000
   11.9350   21.5256    1.1168 C   0  0  0  0  0  0  0  0  0  0  0  0
   10.8910   21.0855    1.9696 C   0  0  0  0  0  0  0  0  0  0  0  0
   11.1264   20.1114    2.9023 C   0  0  0  0  0  0  0  0  0  0  0  0
   12.3900   19.5818    2.9812 C   0  0  0  0  0  0  0  0  0  0  0  0
   12.6060   18.5658    3.9443 N   0  0  0  0  0  0  0  0  0  0  0  0
   13.4005   20.0129    2.1597 C   0  0  0  0  0  0  0  0  0  0  0  0
   13.1806   21.0375    1.1794 C   0  0  0  0  0  0  0  0  0  0  0  0
   13.4199   18.5792    4.5664 H   0  0  0  0  0  0  0  0  0  0  0  0
   11.9067   17.8069    3.9825 H   0  0  0  0  0  0  0  0  0  0  0  0
   14.4283   21.6587    0.6578 C   0  0  0  0  0  0  0  0  0  0  0  0
   15.3748   21.5543    1.5450 O   0  0  0  0  0  0  0  0  0  0  0  0
   14.6694   22.2461   -0.4959 N   0  0  0  0  0  0  0  0  0  0  0  0
   16.0316   22.0969   -0.2542 H   0  0  0  0  0  0  0  0  0  0  0  0
   14.9219   22.8613   -1.7044 C   0  0  0  0  0  0  0  0  0  0  0  0
   15.3273   24.2165   -1.7229 C   0  0  0  0  0  0  0  0  0  0  0  0
   15.5111   24.9041   -2.9008 C   0  0  0  0  0  0  0  0  0  0  0  0
   15.3082   24.3010   -4.1158 C   0  0  0  0  0  0  0  0  0  0  0  0
   14.9195   22.9865   -4.1284 C   0  0  0  0  0  0  0  0  0  0  0  0
   14.7313   22.2849   -2.9499 C   0  0  0  0  0  0  0  0  0  0  0  0
   15.4416   25.0053   -5.3707 C   0  0  0  0  0  0  0  0  0  0  0  0
   15.5977   24.3279   -6.5654 C   0  0  0  0  0  0  0  0  0  0  0  0
   15.7616   24.9866   -7.7572 C   0  0  0  0  0  0  0  0  0  0  0  0
   15.7716   26.3645   -7.7653 C   0  0  0  0  0  0  0  0  0  0  0  0
   15.6174   27.0527   -6.5930 C   0  0  0  0  0  0  0  0  0  0  0  0
   15.4502   26.3785   -5.3880 C   0  0  0  0  0  0  0  0  0  0  0  0
   15.2322   27.3132   -3.9664 S   0  0  0  0  0  0  0  0  0  0  0  0
   13.6585   26.9416   -3.2880 N   0  0  0  0  0  0  0  0  0  0  0  0
   15.1176   28.7841   -4.3303 O   0  0  0  0  0  0  0  0  0  0  0  0
   16.2675   27.0884   -2.9027 O   0  0  0  0  0  0  0  0  0  0  0  0
   12.8961   27.3435   -3.8732 H   0  0  0  0  0  0  0  0  0  0  0  0
   13.5385   25.9159   -3.2506 H   0  0  0  0  0  0  0  0  0  0  0  0
   11.5648   22.5131    0.1732 O   0  0  0  0  0  0  0  0  0  0  0  0
    8.0562   21.6619   -0.4305 C   0  0  0  0  0  0  0  0  0  0  0  0
    7.3981   22.8046   -0.0261 C   0  0  0  0  0  0  0  0  0  0  0  0
    8.0697   23.8973    0.4621 C   0  0  0  0  0  0  0  0  0  0  0  0
    9.4697   23.8010    0.5326 C   0  0  0  0  0  0  0  0  0  0  0  0
   10.1641   22.7176    0.1527 C   0  0  0  0  0  0  0  0  0  0  0  0
    9.4234   21.6089   -0.3457 C   0  0  0  0  0  0  0  0  0  0  0  0
    6.7937   20.4623   -2.1132 N   0  0  0  0  0  0  0  0  0  0  0  0
    7.3197   20.5082   -0.9619 C   0  0  0  0  0  0  0  0  0  0  0  0
    7.1716   19.3714   -0.1240 N   0  0  0  0  0  0  0  0  0  0  0  0
    6.7809   21.1557   -2.8587 H   0  0  0  0  0  0  0  0  0  0  0  0
    6.1858   19.1554    0.1752 H   0  0  0  0  0  0  0  0  0  0  0  0
    7.9138   18.7520    0.2131 H   0  0  0  0  0  0  0  0  0  0  0  0
 39 40  2  0  0  0
 40 41  1  0  0  0
 40 33  1  0  0  0
 33 34  2  0  0  0
 34 35  1  0  0  0
 35 36  2  0  0  0
 36 37  1  0  0  0
 37 32  1  0  0  0
 32  1  1  0  0  0
  1  2  2  0  0  0
  2  3  1  0  0  0
  3  4  2  0  0  0
  4  5  1  0  0  0
  4  6  1  0  0  0
  6  7  2  0  0  0
  7 10  1  0  0  0
 10 11  2  0  0  0
 10 12  1  0  0  0
 12 14  1  0  0  0
 14 15  2  0  0  0
 15 16  1  0  0  0
 16 17  2  0  0  0
 17 20  1  0  0  0
 20 21  2  0  0  0
 21 22  1  0  0  0
 22 23  2  0  0  0
 23 24  1  0  0  0
 24 25  2  0  0  0
 25 26  1  0  0  0
 26 27  1  0  0  0
 26 28  2  0  0  0
 26 29  2  0  0  0
 17 18  1  0  0  0
 18 19  2  0  0  0
 37 38  2  0  0  0
 38 33  1  0  0  0
  7  1  1  0  0  0
 19 14  1  0  0  0
 25 20  1  0  0  0
 39 42  1  0  0  0
 41 43  1  0  0  0
 41 44  1  0  0  0
  5  8  1  0  0  0
  5  9  1  0  0  0
 12 13  1  0  0  0
 27 30  1  0  0  0
 27 31  1  0  0  0
M  END
> <minimizedAffinity>
-3.35798

> <CNNscore>
0.3065089583

> <CNNaffinity>
7.0116257668

> <CNN_VS>
2.1491260529

> <CNNaffinity_variance>
0.4964570999

$$$$
[H]N1C(=NC2([H])C([H])([H])C([H])([H])C([H])([H])C([H])([H])C([H])([H])C([H])([H])C2([H])[H])O[C@@]2([H])C([H])([H])C([H])([H])C([H])([H])C([H])([H])[C@@]2([H])S1(=O)=O


 22 24  0  0  0  0  0  0  0  0999 V2000
   15.8500   23.3194   -6.4040 O   0  0  0  0  0  0  0  0  0  0  0  0
   15.8071   23.9704   -5.0568 S   0  0  0  0  0  0  0  0  0  0  0  0
   17.1798   24.1280   -4.4644 O   0  0  0  0  0  0  0  0  0  0  0  0
   14.8044   23.0606   -3.9537 N   0  0  0  0  0  0  0  0  0  0  0  0
   14.1019   23.7694   -2.9558 C   0  0  0  0  0  0  0  0  0  0  0  0
   13.7903   23.1799   -1.8694 N   0  0  0  0  0  0  0  0  0  0  0  0
   13.7508   25.0765   -3.1350 O   0  0  0  0  0  0  0  0  0  0  0  0
   14.3892   26.0120   -3.9291 C   0  0  0  0  0  0  0  0  0  0  0  0
   15.3497   26.7954   -3.0215 C   0  0  0  0  0  0  0  0  0  0  0  0
   15.5822   28.1243   -3.6823 C   0  0  0  0  0  0  0  0  0  0  0  0
   15.6895   27.9771   -5.1641 C   0  0  0  0  0  0  0  0  0  0  0  0
   16.1539   26.5624   -5.5156 C   0  0  0  0  0  0  0  0  0  0  0  0
   15.0689   25.5687   -5.1554 C   0  0  0  0  0  0  0  0  0  0  0  0
   14.7823   22.0575   -4.0984 H   0  0  0  0  0  0  0  0  0  0  0  0
   14.1087   21.8119   -1.5757 C   0  0  0  0  0  0  0  0  0  0  0  0
   14.8250   21.6545   -0.2559 C   0  0  0  0  0  0  0  0  0  0  0  0
   13.9327   21.3486    0.8989 C   0  0  0  0  0  0  0  0  0  0  0  0
   12.9617   22.4224    1.2555 C   0  0  0  0  0  0  0  0  0  0  0  0
   11.5241   21.9167    1.2877 C   0  0  0  0  0  0  0  0  0  0  0  0
   11.1920   21.0443    0.1210 C   0  0  0  0  0  0  0  0  0  0  0  0
   11.6415   21.6924   -1.1482 C   0  0  0  0  0  0  0  0  0  0  0  0
   12.8640   20.9606   -1.6521 C   0  0  0  0  0  0  0  0  0  0  0  0
  1  2  2  0  0  0
  2  3  2  0  0  0
  2  4  1  0  0  0
  4  5  1  0  0  0
  5  6  2  0  0  0
  6 15  1  0  0  0
 15 16  1  0  0  0
 16 17  1  0  0  0
 17 18  1  0  0  0
 18 19  1  0  0  0
 19 20  1  0  0  0
 20 21  1  0  0  0
 21 22  1  0  0  0
  5  7  1  0  0  0
  7  8  1  0  0  0
  8  9  1  0  0  0
  9 10  1  0  0  0
 10 11  1  0  0  0
 11 12  1  0  0  0
 12 13  1  0  0  0
 13  2  1  0  0  0
 22 15  1  0  0  0
 13  8  1  0  0  0
  4 14  1  0  0  0
M  END
> <minimizedAffinity>
0.89872

> <CNNscore>
0.4781887829

> <CNNaffinity>
6.5969705582

> <CNN_VS>
3.1545972824

> <CNNaffinity_variance>
0.7840327024

$$$$
[H]N1C(=NC2([H])C([H])([H])C([H])([H])C([H])([H])C([H])([H])C([H])([H])C([H])([H])C2([H])[H])O[C@@]2([H])C([H])([H])C([H])([H])C([H])([H])C([H])([H])[C@@]2([H])S1(=O)=O


 22 24  0  0  0  0  0  0  0  0999 V2000
   12.6672   27.1986   -4.2095 O   0  0  0  0  0  0  0  0  0  0  0  0
   13.4724   26.0878   -3.6108 S   0  0  0  0  0  0  0  0  0  0  0  0
   14.0209   25.1619   -4.6605 O   0  0  0  0  0  0  0  0  0  0  0  0
   12.5202   25.1682   -2.4717 N   0  0  0  0  0  0  0  0  0  0  0  0
   13.1815   24.5900   -1.3671 C   0  0  0  0  0  0  0  0  0  0  0  0
   12.6937   23.5475   -0.8194 N   0  0  0  0  0  0  0  0  0  0  0  0
   14.3355   25.1292   -0.8756 O   0  0  0  0  0  0  0  0  0  0  0  0
   15.2721   25.8735   -1.5699 C   0  0  0  0  0  0  0  0  0  0  0  0
   16.3731   24.9036   -2.0248 C   0  0  0  0  0  0  0  0  0  0  0  0
   17.6146   25.7242   -2.2307 C   0  0  0  0  0  0  0  0  0  0  0  0
   17.2907   27.0449   -2.8469 C   0  0  0  0  0  0  0  0  0  0  0  0
   15.9849   26.9454   -3.6380 C   0  0  0  0  0  0  0  0  0  0  0  0
   14.8295   26.7259   -2.6834 C   0  0  0  0  0  0  0  0  0  0  0  0
   11.5286   25.1039   -2.6721 H   0  0  0  0  0  0  0  0  0  0  0  0
   11.4895   22.8986   -1.2531 C   0  0  0  0  0  0  0  0  0  0  0  0
   11.5773   21.3941   -1.1621 C   0  0  0  0  0  0  0  0  0  0  0  0
   11.0381   20.8190    0.1035 C   0  0  0  0  0  0  0  0  0  0  0  0
   11.7773   21.1987    1.3414 C   0  0  0  0  0  0  0  0  0  0  0  0
   10.8644   21.8124    2.3965 C   0  0  0  0  0  0  0  0  0  0  0  0
    9.9123   22.8126    1.8260 C   0  0  0  0  0  0  0  0  0  0  0  0
   10.6431   23.7689    0.9402 C   0  0  0  0  0  0  0  0  0  0  0  0
   10.3029   23.4457   -0.4963 C   0  0  0  0  0  0  0  0  0  0  0  0
  1  2  2  0  0  0
  2  3  2  0  0  0
  2  4  1  0  0  0
  4  5  1  0  0  0
  5  6  2  0  0  0
  6 15  1  0  0  0
 15 16  1  0  0  0
 16 17  1  0  0  0
 17 18  1  0  0  0
 18 19  1  0  0  0
 19 20  1  0  0  0
 20 21  1  0  0  0
 21 22  1  0  0  0
  5  7  1  0  0  0
  7  8  1  0  0  0
  8  9  1  0  0  0
  9 10  1  0  0  0
 10 11  1  0  0  0
 11 12  1  0  0  0
 12 13  1  0  0  0
 13  2  1  0  0  0
 22 15  1  0  0  0
 13  8  1  0  0  0
  4 14  1  0  0  0
M  END
> <minimizedAffinity>
-3.86312

> <CNNscore>
0.4708884358

> <CNNaffinity>
6.5011634827

> <CNN_VS>
3.0613226891

> <CNNaffinity_variance>
0.5242282152

$$$$
[H]N1C(=NC2([H])C([H])([H])C([H])([H])C([H])([H])C([H])([H])C([H])([H])C([H])([H])C2([H])[H])O[C@@]2([H])C([H])([H])C([H])([H])C([H])([H])C([H])([H])[C@@]2([H])S1(=O)=O


 22 24  0  0  0  0  0  0  0  0999 V2000
   16.6368   24.0915   -2.9682 O   0  0  0  0  0  0  0  0  0  0  0  0
   15.1501   24.2644   -2.9416 S   0  0  0  0  0  0  0  0  0  0  0  0
   14.4699   23.4470   -4.0042 O   0  0  0  0  0  0  0  0  0  0  0  0
   14.7118   25.9435   -3.1373 N   0  0  0  0  0  0  0  0  0  0  0  0
   13.5418   26.4038   -2.4962 C   0  0  0  0  0  0  0  0  0  0  0  0
   12.9140   27.4028   -2.9784 N   0  0  0  0  0  0  0  0  0  0  0  0
   13.0712   25.7961   -1.3678 O   0  0  0  0  0  0  0  0  0  0  0  0
   13.2530   24.4777   -0.9909 C   0  0  0  0  0  0  0  0  0  0  0  0
   12.0161   23.6981   -1.4621 C   0  0  0  0  0  0  0  0  0  0  0  0
   11.9136   22.4801   -0.5887 C   0  0  0  0  0  0  0  0  0  0  0  0
   13.2626   21.9078   -0.3029 C   0  0  0  0  0  0  0  0  0  0  0  0
   14.2388   22.2912   -1.4169 C   0  0  0  0  0  0  0  0  0  0  0  0
   14.4904   23.7844   -1.3785 C   0  0  0  0  0  0  0  0  0  0  0  0
   15.3362   26.5016   -3.7084 H   0  0  0  0  0  0  0  0  0  0  0  0
   13.3178   28.1150   -4.1570 C   0  0  0  0  0  0  0  0  0  0  0  0
   12.5656   27.6707   -5.3884 C   0  0  0  0  0  0  0  0  0  0  0  0
   11.3619   28.4912   -5.7068 C   0  0  0  0  0  0  0  0  0  0  0  0
   10.2664   28.4337   -4.6970 C   0  0  0  0  0  0  0  0  0  0  0  0
    9.8554   29.8176   -4.2082 C   0  0  0  0  0  0  0  0  0  0  0  0
   11.0262   30.6961   -3.9083 C   0  0  0  0  0  0  0  0  0  0  0  0
   12.0173   29.9599   -3.0664 C   0  0  0  0  0  0  0  0  0  0  0  0
   13.2061   29.6034   -3.9286 C   0  0  0  0  0  0  0  0  0  0  0  0
  1  2  2  0  0  0
  2  3  2  0  0  0
  2  4  1  0  0  0
  4  5  1  0  0  0
  5  6  2  0  0  0
  6 15  1  0  0  0
 15 16  1  0  0  0
 16 17  1  0  0  0
 17 18  1  0  0  0
 18 19  1  0  0  0
 19 20  1  0  0  0
 20 21  1  0  0  0
 21 22  1  0  0  0
  5  7  1  0  0  0
  7  8  1  0  0  0
  8  9  1  0  0  0
  9 10  1  0  0  0
 10 11  1  0  0  0
 11 12  1  0  0  0
 12 13  1  0  0  0
 13  2  1  0  0  0
 22 15  1  0  0  0
 13  8  1  0  0  0
  4 14  1  0  0  0
M  END
> <minimizedAffinity>
23.85868

> <CNNscore>
0.4497123361

> <CNNaffinity>
5.9552855492

> <CNN_VS>
2.6781654358

> <CNNaffinity_variance>
0.8225962520

$$$$
[H]N1C(=NC2([H])C([H])([H])C([H])([H])C([H])([H])C([H])([H])C([H])([H])C([H])([H])C2([H])[H])O[C@@]2([H])C([H])([H])C([H])([H])C([H])([H])C([H])([H])[C@@]2([H])S1(=O)=O


 22 24  0  0  0  0  0  0  0  0999 V2000
   13.6439   21.1335   -2.3794 O   0  0  0  0  0  0  0  0  0  0  0  0
   14.1507   22.5108   -2.0846 S   0  0  0  0  0  0  0  0  0  0  0  0
   13.0899   23.3807   -1.4700 O   0  0  0  0  0  0  0  0  0  0  0  0
   14.7575   23.2773   -3.5318 N   0  0  0  0  0  0  0  0  0  0  0  0
   15.8269   24.1891   -3.4022 C   0  0  0  0  0  0  0  0  0  0  0  0
   15.9698   25.1152   -4.2663 N   0  0  0  0  0  0  0  0  0  0  0  0
   16.7109   24.0955   -2.3659 O   0  0  0  0  0  0  0  0  0  0  0  0
   16.4757   23.5594   -1.1127 C   0  0  0  0  0  0  0  0  0  0  0  0
   16.1040   24.7257   -0.1846 C   0  0  0  0  0  0  0  0  0  0  0  0
   16.4230   24.2833    1.2152 C   0  0  0  0  0  0  0  0  0  0  0  0
   16.0728   22.8463    1.4185 C   0  0  0  0  0  0  0  0  0  0  0  0
   14.9724   22.4338    0.4388 C   0  0  0  0  0  0  0  0  0  0  0  0
   15.5188   22.4516   -0.9738 C   0  0  0  0  0  0  0  0  0  0  0  0
   14.2998   23.0161   -4.3977 H   0  0  0  0  0  0  0  0  0  0  0  0
   15.1013   25.3065   -5.3925 C   0  0  0  0  0  0  0  0  0  0  0  0
   13.7477   25.8446   -4.9952 C   0  0  0  0  0  0  0  0  0  0  0  0
   13.6264   27.3289   -5.0699 C   0  0  0  0  0  0  0  0  0  0  0  0
   14.4960   28.0874   -4.1258 C   0  0  0  0  0  0  0  0  0  0  0  0
   15.3663   29.1161   -4.8384 C   0  0  0  0  0  0  0  0  0  0  0  0
   15.9995   28.5771   -6.0797 C   0  0  0  0  0  0  0  0  0  0  0  0
   16.6297   27.2514   -5.7997 C   0  0  0  0  0  0  0  0  0  0  0  0
   15.7763   26.1739   -6.4279 C   0  0  0  0  0  0  0  0  0  0  0  0
  1  2  2  0  0  0
  2  3  2  0  0  0
  2  4  1  0  0  0
  4  5  1  0  0  0
  5  6  2  0  0  0
  6 15  1  0  0  0
 15 16  1  0  0  0
 16 17  1  0  0  0
 17 18  1  0  0  0
 18 19  1  0  0  0
 19 20  1  0  0  0
 20 21  1  0  0  0
 21 22  1  0  0  0
  5  7  1  0  0  0
  7  8  1  0  0  0
  8  9  1  0  0  0
  9 10  1  0  0  0
 10 11  1  0  0  0
 11 12  1  0  0  0
 12 13  1  0  0  0
 13  2  1  0  0  0
 22 15  1  0  0  0
 13  8  1  0  0  0
  4 14  1  0  0  0
M  END
> <minimizedAffinity>
3.92592

> <CNNscore>
0.4404432476

> <CNNaffinity>
6.0471973419

> <CNN_VS>
2.6634471416

> <CNNaffinity_variance>
0.1887146235

$$$$
[H]N1C(=NC2([H])C([H])([H])C([H])([H])C([H])([H])C([H])([H])C([H])([H])C([H])([H])C2([H])[H])O[C@@]2([H])C([H])([H])C([H])([H])C([H])([H])C([H])([H])[C@@]2([H])S1(=O)=O


 22 24  0  0  0  0  0  0  0  0999 V2000
   15.0255   23.6135   -5.7248 O   0  0  0  0  0  0  0  0  0  0  0  0
   15.5601   23.9402   -4.3653 S   0  0  0  0  0  0  0  0  0  0  0  0
   17.0210   23.6081   -4.2409 O   0  0  0  0  0  0  0  0  0  0  0  0
   14.6693   23.0956   -3.1231 N   0  0  0  0  0  0  0  0  0  0  0  0
   14.5256   23.7217   -1.8664 C   0  0  0  0  0  0  0  0  0  0  0  0
   14.3584   23.0064   -0.8248 N   0  0  0  0  0  0  0  0  0  0  0  0
   14.5629   25.0814   -1.7484 O   0  0  0  0  0  0  0  0  0  0  0  0
   15.2154   25.9747   -2.5787 C   0  0  0  0  0  0  0  0  0  0  0  0
   16.5826   26.2674   -1.9425 C   0  0  0  0  0  0  0  0  0  0  0  0
   17.0249   27.6051   -2.4636 C   0  0  0  0  0  0  0  0  0  0  0  0
   16.6684   27.7661   -3.9044 C   0  0  0  0  0  0  0  0  0  0  0  0
   16.5543   26.3934   -4.5702 C   0  0  0  0  0  0  0  0  0  0  0  0
   15.3579   25.6547   -4.0069 C   0  0  0  0  0  0  0  0  0  0  0  0
   14.2977   22.1887   -3.3821 H   0  0  0  0  0  0  0  0  0  0  0  0
   14.3040   21.5725   -0.8329 C   0  0  0  0  0  0  0  0  0  0  0  0
   14.5472   20.9759    0.5326 C   0  0  0  0  0  0  0  0  0  0  0  0
   13.3083   20.6883    1.3109 C   0  0  0  0  0  0  0  0  0  0  0  0
   12.5013   21.8837    1.6885 C   0  0  0  0  0  0  0  0  0  0  0  0
   11.0510   21.7715    1.2332 C   0  0  0  0  0  0  0  0  0  0  0  0
   10.9221   21.2648   -0.1665 C   0  0  0  0  0  0  0  0  0  0  0  0
   11.8476   22.0133   -1.0700 C   0  0  0  0  0  0  0  0  0  0  0  0
   12.9997   21.1053   -1.4333 C   0  0  0  0  0  0  0  0  0  0  0  0
  1  2  2  0  0  0
  2  3  2  0  0  0
  2  4  1  0  0  0
  4  5  1  0  0  0
  5  6  2  0  0  0
  6 15  1  0  0  0
 15 16  1  0  0  0
 16 17  1  0  0  0
 17 18  1  0  0  0
 18 19  1  0  0  0
 19 20  1  0  0  0
 20 21  1  0  0  0
 21 22  1  0  0  0
  5  7  1  0  0  0
  7  8  1  0  0  0
  8  9  1  0  0  0
  9 10  1  0  0  0
 10 11  1  0  0  0
 11 12  1  0  0  0
 12 13  1  0  0  0
 13  2  1  0  0  0
 22 15  1  0  0  0
 13  8  1  0  0  0
  4 14  1  0  0  0
M  END
> <minimizedAffinity>
-3.72542

> <CNNscore>
0.3842636049

> <CNNaffinity>
6.6225724220

> <CNN_VS>
2.5448136330

> <CNNaffinity_variance>
0.4513868392

$$$$
[H]N1C(=NC2([H])C([H])([H])C([H])([H])C([H])([H])C([H])([H])C([H])([H])C([H])([H])C2([H])[H])O[C@@]2([H])C([H])([H])C([H])([H])C([H])([H])C([H])([H])[C@@]2([H])S1(=O)=O


 22 24  0  0  0  0  0  0  0  0999 V2000
    9.7800   22.1133   -2.3247 O   0  0  0  0  0  0  0  0  0  0  0  0
   10.7566   22.3092   -1.2073 S   0  0  0  0  0  0  0  0  0  0  0  0
   10.3905   23.4809   -0.3395 O   0  0  0  0  0  0  0  0  0  0  0  0
   12.3756   22.5317   -1.8230 N   0  0  0  0  0  0  0  0  0  0  0  0
   13.4539   22.0659   -1.0405 C   0  0  0  0  0  0  0  0  0  0  0  0
   14.5978   22.6156   -1.1584 N   0  0  0  0  0  0  0  0  0  0  0  0
   13.2914   21.0361   -0.1591 O   0  0  0  0  0  0  0  0  0  0  0  0
   12.1261   20.6654    0.4874 C   0  0  0  0  0  0  0  0  0  0  0  0
   12.1426   21.3365    1.8691 C   0  0  0  0  0  0  0  0  0  0  0  0
   11.2528   20.5163    2.7592 C   0  0  0  0  0  0  0  0  0  0  0  0
   10.0445   20.0415    2.0221 C   0  0  0  0  0  0  0  0  0  0  0  0
    9.7397   20.9852    0.8571 C   0  0  0  0  0  0  0  0  0  0  0  0
   10.8348   20.8757   -0.1837 C   0  0  0  0  0  0  0  0  0  0  0  0
   12.4486   22.9887   -2.7249 H   0  0  0  0  0  0  0  0  0  0  0  0
   14.8806   23.7029   -2.0512 C   0  0  0  0  0  0  0  0  0  0  0  0
   13.6537   24.5217   -2.3735 C   0  0  0  0  0  0  0  0  0  0  0  0
   13.4644   25.7193   -1.5056 C   0  0  0  0  0  0  0  0  0  0  0  0
   13.2130   25.4285   -0.0650 C   0  0  0  0  0  0  0  0  0  0  0  0
   14.1937   26.1504    0.8519 C   0  0  0  0  0  0  0  0  0  0  0  0
   15.6046   26.0702    0.3668 C   0  0  0  0  0  0  0  0  0  0  0  0
   15.9439   24.6600    0.0073 C   0  0  0  0  0  0  0  0  0  0  0  0
   16.0012   24.5509   -1.4989 C   0  0  0  0  0  0  0  0  0  0  0  0
  1  2  2  0  0  0
  2  3  2  0  0  0
  2  4  1  0  0  0
  4  5  1  0  0  0
  5  6  2  0  0  0
  6 15  1  0  0  0
 15 16  1  0  0  0
 16 17  1  0  0  0
 17 18  1  0  0  0
 18 19  1  0  0  0
 19 20  1  0  0  0
 20 21  1  0  0  0
 21 22  1  0  0  0
  5  7  1  0  0  0
  7  8  1  0  0  0
  8  9  1  0  0  0
  9 10  1  0  0  0
 10 11  1  0  0  0
 11 12  1  0  0  0
 12 13  1  0  0  0
 13  2  1  0  0  0
 22 15  1  0  0  0
 13  8  1  0  0  0
  4 14  1  0  0  0
M  END
> <minimizedAffinity>
-1.18748

> <CNNscore>
0.3641506135

> <CNNaffinity>
6.0025572777

> <CNN_VS>
2.1858348846

> <CNNaffinity_variance>
0.6546709538

$$$$
[H]N1C(=NC2([H])C([H])([H])C([H])([H])C([H])([H])C([H])([H])C([H])([H])C([H])([H])C2([H])[H])O[C@@]2([H])C([H])([H])C([H])([H])C([H])([H])C([H])([H])[C@@]2([H])S1(=O)=O


 22 24  0  0  0  0  0  0  0  0999 V2000
   11.4640   26.1284    1.5671 O   0  0  0  0  0  0  0  0  0  0  0  0
   11.3179   24.7467    1.0101 S   0  0  0  0  0  0  0  0  0  0  0  0
   10.2412   24.6732   -0.0364 O   0  0  0  0  0  0  0  0  0  0  0  0
   10.9706   23.5951    2.2762 N   0  0  0  0  0  0  0  0  0  0  0  0
   11.4504   22.2765    2.1250 C   0  0  0  0  0  0  0  0  0  0  0  0
   10.8410   21.3172    2.7020 N   0  0  0  0  0  0  0  0  0  0  0  0
   12.5569   22.0117    1.3703 O   0  0  0  0  0  0  0  0  0  0  0  0
   13.0336   22.7462    0.2996 C   0  0  0  0  0  0  0  0  0  0  0  0
   12.4806   22.0951   -0.9772 C   0  0  0  0  0  0  0  0  0  0  0  0
   13.4125   22.4720   -2.0936 C   0  0  0  0  0  0  0  0  0  0  0  0
   13.8788   23.8832   -1.9522 C   0  0  0  0  0  0  0  0  0  0  0  0
   12.8556   24.6932   -1.1536 C   0  0  0  0  0  0  0  0  0  0  0  0
   12.8272   24.2020    0.2790 C   0  0  0  0  0  0  0  0  0  0  0  0
   10.4367   23.9475    3.0626 H   0  0  0  0  0  0  0  0  0  0  0  0
    9.6708   21.4806    3.5165 C   0  0  0  0  0  0  0  0  0  0  0  0
    9.2670   22.9277    3.6665 C   0  0  0  0  0  0  0  0  0  0  0  0
    8.2435   23.3886    2.6849 C   0  0  0  0  0  0  0  0  0  0  0  0
    8.6812   23.3863    1.2597 C   0  0  0  0  0  0  0  0  0  0  0  0
    7.7392   22.5889    0.3652 C   0  0  0  0  0  0  0  0  0  0  0  0
    7.3390   21.2813    0.9673 C   0  0  0  0  0  0  0  0  0  0  0  0
    8.5453   20.5598    1.4745 C   0  0  0  0  0  0  0  0  0  0  0  0
    8.5439   20.6281    2.9842 C   0  0  0  0  0  0  0  0  0  0  0  0
  1  2  2  0  0  0
  2  3  2  0  0  0
  2  4  1  0  0  0
  4  5  1  0  0  0
  5  6  2  0  0  0
  6 15  1  0  0  0
 15 16  1  0  0  0
 16 17  1  0  0  0
 17 18  1  0  0  0
 18 19  1  0  0  0
 19 20  1  0  0  0
 20 21  1  0  0  0
 21 22  1  0  0  0
  5  7  1  0  0  0
  7  8  1  0  0  0
  8  9  1  0  0  0
  9 10  1  0  0  0
 10 11  1  0  0  0
 11 12  1  0  0  0
 12 13  1  0  0  0
 13  2  1  0  0  0
 22 15  1  0  0  0
 13  8  1  0  0  0
  4 14  1  0  0  0
M  END
> <minimizedAffinity>
-1.42409

> <CNNscore>
0.3499535620

> <CNNaffinity>
5.9112725258

> <CNN_VS>
2.0686709881

> <CNNaffinity_variance>
0.9695421457

$$$$
[H]N1C(=NC2([H])C([H])([H])C([H])([H])C([H])([H])C([H])([H])C([H])([H])C([H])([H])C2([H])[H])O[C@@]2([H])C([H])([H])C([H])([H])C([H])([H])C([H])([H])[C@@]2([H])S1(=O)=O


 22 24  0  0  0  0  0  0  0  0999 V2000
   16.2468   23.2693    0.7478 O   0  0  0  0  0  0  0  0  0  0  0  0
   15.0532   23.9688    0.1762 S   0  0  0  0  0  0  0  0  0  0  0  0
   14.9713   25.4006    0.6270 O   0  0  0  0  0  0  0  0  0  0  0  0
   13.5768   23.1428    0.6097 N   0  0  0  0  0  0  0  0  0  0  0  0
   12.4997   23.1854   -0.3013 C   0  0  0  0  0  0  0  0  0  0  0  0
   11.3068   23.0666    0.1319 N   0  0  0  0  0  0  0  0  0  0  0  0
   12.7147   23.3519   -1.6392 O   0  0  0  0  0  0  0  0  0  0  0  0
   13.7851   23.9889   -2.2407 C   0  0  0  0  0  0  0  0  0  0  0  0
   13.3503   25.4351   -2.5222 C   0  0  0  0  0  0  0  0  0  0  0  0
   14.2112   25.9344   -3.6476 C   0  0  0  0  0  0  0  0  0  0  0  0
   15.6148   25.4449   -3.5095 C   0  0  0  0  0  0  0  0  0  0  0  0
   15.9204   25.1442   -2.0408 C   0  0  0  0  0  0  0  0  0  0  0  0
   15.1014   23.9537   -1.5863 C   0  0  0  0  0  0  0  0  0  0  0  0
   13.5797   22.6694    1.5061 H   0  0  0  0  0  0  0  0  0  0  0  0
   10.9662   22.8881    1.5144 C   0  0  0  0  0  0  0  0  0  0  0  0
   10.0972   24.0028    2.0453 C   0  0  0  0  0  0  0  0  0  0  0  0
    8.6333   23.7243    1.9913 C   0  0  0  0  0  0  0  0  0  0  0  0
    8.0627   23.5785    0.6216 C   0  0  0  0  0  0  0  0  0  0  0  0
    7.3121   22.2640    0.4431 C   0  0  0  0  0  0  0  0  0  0  0  0
    8.0490   21.0956    1.0127 C   0  0  0  0  0  0  0  0  0  0  0  0
    9.4724   21.1164    0.5586 C   0  0  0  0  0  0  0  0  0  0  0  0
   10.3405   21.5301    1.7244 C   0  0  0  0  0  0  0  0  0  0  0  0
  1  2  2  0  0  0
  2  3  2  0  0  0
  2  4  1  0  0  0
  4  5  1  0  0  0
  5  6  2  0  0  0
  6 15  1  0  0  0
 15 16  1  0  0  0
 16 17  1  0  0  0
 17 18  1  0  0  0
 18 19  1  0  0  0
 19 20  1  0  0  0
 20 21  1  0  0  0
 21 22  1  0  0  0
  5  7  1  0  0  0
  7  8  1  0  0  0
  8  9  1  0  0  0
  9 10  1  0  0  0
 10 11  1  0  0  0
 11 12  1  0  0  0
 12 13  1  0  0  0
 13  2  1  0  0  0
 22 15  1  0  0  0
 13  8  1  0  0  0
  4 14  1  0  0  0
M  END
> <minimizedAffinity>
-7.20944

> <CNNscore>
0.3436271548

> <CNNaffinity>
6.6693634987

> <CNN_VS>
2.2917745113

> <CNNaffinity_variance>
0.3924686015

$$$$
[H]N1C(=NC2([H])C([H])([H])C([H])([H])C([H])([H])C([H])([H])C([H])([H])C([H])([H])C2([H])[H])O[C@@]2([H])C([H])([H])C([H])([H])C([H])([H])C([H])([H])[C@@]2([H])S1(=O)=O


 22 24  0  0  0  0  0  0  0  0999 V2000
   17.6846   24.8168   -1.4719 O   0  0  0  0  0  0  0  0  0  0  0  0
   16.2530   25.1570   -1.7464 S   0  0  0  0  0  0  0  0  0  0  0  0
   15.8704   26.4898   -1.1656 O   0  0  0  0  0  0  0  0  0  0  0  0
   15.1856   23.9264   -1.1170 N   0  0  0  0  0  0  0  0  0  0  0  0
   13.9763   23.6818   -1.8024 C   0  0  0  0  0  0  0  0  0  0  0  0
   12.9785   23.2099   -1.1650 N   0  0  0  0  0  0  0  0  0  0  0  0
   13.8580   23.9427   -3.1373 O   0  0  0  0  0  0  0  0  0  0  0  0
   14.5624   24.8799   -3.8713 C   0  0  0  0  0  0  0  0  0  0  0  0
   13.6948   26.1458   -3.9395 C   0  0  0  0  0  0  0  0  0  0  0  0
   14.1336   26.9059   -5.1588 C   0  0  0  0  0  0  0  0  0  0  0  0
   15.6153   26.8401   -5.3296 C   0  0  0  0  0  0  0  0  0  0  0  0
   16.2864   26.5978   -3.9762 C   0  0  0  0  0  0  0  0  0  0  0  0
   15.9416   25.2083   -3.4811 C   0  0  0  0  0  0  0  0  0  0  0  0
   15.5033   23.4480   -0.2816 H   0  0  0  0  0  0  0  0  0  0  0  0
   12.9914   22.9000    0.2360 C   0  0  0  0  0  0  0  0  0  0  0  0
   11.8726   23.5782    0.9896 C   0  0  0  0  0  0  0  0  0  0  0  0
   10.6460   22.7467    1.1550 C   0  0  0  0  0  0  0  0  0  0  0  0
    9.9361   22.4000   -0.1095 C   0  0  0  0  0  0  0  0  0  0  0  0
    9.7312   20.8977   -0.2661 C   0  0  0  0  0  0  0  0  0  0  0  0
   10.9519   20.1086    0.0797 C   0  0  0  0  0  0  0  0  0  0  0  0
   12.1487   20.6917   -0.5991 C   0  0  0  0  0  0  0  0  0  0  0  0
   12.9871   21.4035    0.4373 C   0  0  0  0  0  0  0  0  0  0  0  0
  1  2  2  0  0  0
  2  3  2  0  0  0
  2  4  1  0  0  0
  4  5  1  0  0  0
  5  6  2  0  0  0
  6 15  1  0  0  0
 15 16  1  0  0  0
 16 17  1  0  0  0
 17 18  1  0  0  0
 18 19  1  0  0  0
 19 20  1  0  0  0
 20 21  1  0  0  0
 21 22  1  0  0  0
  5  7  1  0  0  0
  7  8  1  0  0  0
  8  9  1  0  0  0
  9 10  1  0  0  0
 10 11  1  0  0  0
 11 12  1  0  0  0
 12 13  1  0  0  0
 13  2  1  0  0  0
 22 15  1  0  0  0
 13  8  1  0  0  0
  4 14  1  0  0  0
M  END
> <minimizedAffinity>
-6.45562

> <CNNscore>
0.3000154793

> <CNNaffinity>
6.5032286644

> <CNN_VS>
1.9510692358

> <CNNaffinity_variance>
0.1970405281

$$$$
[H]C(=NN([H])C(=S)N([H])C([H])([H])c1c([H])c([H])c(OC([H])(C([H])([H])[H])C([H])([H])[H])c([H])c1[H])c1c([H])c([H])c([N+](=O)[O-])c([H])c1[H]


 28 29  0  0  0  0  0  0  0  0999 V2000
   13.7856   21.2181    0.2779 C   0  0  0  0  0  0  0  0  0  0  0  0
   13.2279   20.7285   -1.1695 S   0  0  0  0  0  0  0  0  0  0  0  0
   12.9668   21.0889    1.4157 N   0  0  0  0  0  0  0  0  0  0  0  0
   13.3829   21.0451    2.3646 H   0  0  0  0  0  0  0  0  0  0  0  0
   11.5316   21.0154    1.2754 C   0  0  0  0  0  0  0  0  0  0  0  0
    9.5941   24.3897    3.0860 C   0  0  0  0  0  0  0  0  0  0  0  0
   10.2318   24.4859    1.8485 C   0  0  0  0  0  0  0  0  0  0  0  0
   10.8477   23.3937    1.2834 C   0  0  0  0  0  0  0  0  0  0  0  0
   10.8579   22.1697    1.9151 C   0  0  0  0  0  0  0  0  0  0  0  0
   10.2216   22.1108    3.1300 C   0  0  0  0  0  0  0  0  0  0  0  0
    9.5890   23.1952    3.7302 C   0  0  0  0  0  0  0  0  0  0  0  0
    8.9943   25.5071    3.6076 O   0  0  0  0  0  0  0  0  0  0  0  0
    7.7115   27.5538    3.4434 C   0  0  0  0  0  0  0  0  0  0  0  0
    7.7695   26.0390    3.2507 C   0  0  0  0  0  0  0  0  0  0  0  0
    6.6781   25.4423    4.1407 C   0  0  0  0  0  0  0  0  0  0  0  0
   15.0918   21.7748    0.4021 N   0  0  0  0  0  0  0  0  0  0  0  0
   15.9502   21.2260    0.1037 H   0  0  0  0  0  0  0  0  0  0  0  0
   15.2964   23.0177    0.9042 N   0  0  0  0  0  0  0  0  0  0  0  0
   15.3223   24.1654    0.4723 C   0  0  0  0  0  0  0  0  0  0  0  0
   15.1159   24.6106   -0.8848 C   0  0  0  0  0  0  0  0  0  0  0  0
   13.9064   24.6270   -1.5397 C   0  0  0  0  0  0  0  0  0  0  0  0
   13.7645   25.0685   -2.8537 C   0  0  0  0  0  0  0  0  0  0  0  0
   14.8468   25.5177   -3.5737 C   0  0  0  0  0  0  0  0  0  0  0  0
   16.0700   25.5131   -2.9454 C   0  0  0  0  0  0  0  0  0  0  0  0
   16.1968   25.0770   -1.6539 C   0  0  0  0  0  0  0  0  0  0  0  0
   14.6918   25.9687   -4.9211 N   0  0  0  0  0  0  0  0  0  0  0  0
   15.3780   25.4443   -5.8185 O   0  0  0  0  0  0  0  0  0  0  0  0
   13.7823   26.9686   -5.1519 O   0  0  0  0  0  0  0  0  0  0  0  0
 13 14  1  0  0  0
 14 15  1  0  0  0
 14 12  1  0  0  0
 12  6  1  0  0  0
  6  7  2  0  0  0
  7  8  1  0  0  0
  8  9  2  0  0  0
  9  5  1  0  0  0
  5  3  1  0  0  0
  3  1  1  0  0  0
  1  2  2  0  0  0
  1 16  1  0  0  0
 16 18  1  0  0  0
 18 19  2  0  0  0
 19 20  1  0  0  0
 20 21  2  0  0  0
 21 22  1  0  0  0
 22 23  2  0  0  0
 23 26  1  0  0  0
 26 27  2  0  0  0
 26 28  1  0  0  0
 23 24  1  0  0  0
 24 25  2  0  0  0
  9 10  1  0  0  0
 10 11  2  0  0  0
 11  6  1  0  0  0
 25 20  1  0  0  0
  3  4  1  0  0  0
 16 17  1  0  0  0
M  CHG 1  26   1
M  CHG 1  28  -1
M  END
> <minimizedAffinity>
-7.83743

> <CNNscore>
0.6406208277

> <CNNaffinity>
6.7238388062

> <CNN_VS>
4.3074312210

> <CNNaffinity_variance>
0.0642706007

$$$$
[H]C(=NN([H])C(=S)N([H])C([H])([H])c1c([H])c([H])c(OC([H])(C([H])([H])[H])C([H])([H])[H])c([H])c1[H])c1c([H])c([H])c([N+](=O)[O-])c([H])c1[H]


 28 29  0  0  0  0  0  0  0  0999 V2000
   15.5655   24.4040   -4.7343 C   0  0  0  0  0  0  0  0  0  0  0  0
   15.5614   24.7657   -6.3201 S   0  0  0  0  0  0  0  0  0  0  0  0
   15.0825   25.3469   -3.8073 N   0  0  0  0  0  0  0  0  0  0  0  0
   14.4932   25.0487   -3.0077 H   0  0  0  0  0  0  0  0  0  0  0  0
   15.4027   26.7467   -3.9585 C   0  0  0  0  0  0  0  0  0  0  0  0
   11.9036   29.2305   -4.0317 C   0  0  0  0  0  0  0  0  0  0  0  0
   13.1888   29.7701   -4.1001 C   0  0  0  0  0  0  0  0  0  0  0  0
   14.2989   28.9585   -4.0754 C   0  0  0  0  0  0  0  0  0  0  0  0
   14.1839   27.5890   -3.9825 C   0  0  0  0  0  0  0  0  0  0  0  0
   12.9059   27.0924   -3.9172 C   0  0  0  0  0  0  0  0  0  0  0  0
   11.7616   27.8840   -3.9398 C   0  0  0  0  0  0  0  0  0  0  0  0
   10.8287   30.0814   -4.0600 O   0  0  0  0  0  0  0  0  0  0  0  0
    9.5904   28.5754   -5.4954 C   0  0  0  0  0  0  0  0  0  0  0  0
    9.6095   29.8637   -4.6738 C   0  0  0  0  0  0  0  0  0  0  0  0
    9.3194   31.0077   -5.6466 C   0  0  0  0  0  0  0  0  0  0  0  0
   16.0527   23.1445   -4.2782 N   0  0  0  0  0  0  0  0  0  0  0  0
   17.0924   22.9771   -4.1440 H   0  0  0  0  0  0  0  0  0  0  0  0
   15.2192   22.1119   -3.9998 N   0  0  0  0  0  0  0  0  0  0  0  0
   14.2990   21.8883   -3.2200 C   0  0  0  0  0  0  0  0  0  0  0  0
   13.7426   22.7712   -2.2234 C   0  0  0  0  0  0  0  0  0  0  0  0
   12.4071   22.8733   -1.9099 C   0  0  0  0  0  0  0  0  0  0  0  0
   11.9241   23.7449   -0.9361 C   0  0  0  0  0  0  0  0  0  0  0  0
   12.7744   24.5613   -0.2274 C   0  0  0  0  0  0  0  0  0  0  0  0
   14.1160   24.4818   -0.5188 C   0  0  0  0  0  0  0  0  0  0  0  0
   14.5786   23.6212   -1.4778 C   0  0  0  0  0  0  0  0  0  0  0  0
   12.2699   25.4524    0.7697 N   0  0  0  0  0  0  0  0  0  0  0  0
   12.6521   26.6377    0.7726 O   0  0  0  0  0  0  0  0  0  0  0  0
   11.3803   24.9429    1.6803 O   0  0  0  0  0  0  0  0  0  0  0  0
 13 14  1  0  0  0
 14 15  1  0  0  0
 14 12  1  0  0  0
 12  6  1  0  0  0
  6  7  2  0  0  0
  7  8  1  0  0  0
  8  9  2  0  0  0
  9  5  1  0  0  0
  5  3  1  0  0  0
  3  1  1  0  0  0
  1  2  2  0  0  0
  1 16  1  0  0  0
 16 18  1  0  0  0
 18 19  2  0  0  0
 19 20  1  0  0  0
 20 21  2  0  0  0
 21 22  1  0  0  0
 22 23  2  0  0  0
 23 26  1  0  0  0
 26 27  2  0  0  0
 26 28  1  0  0  0
 23 24  1  0  0  0
 24 25  2  0  0  0
  9 10  1  0  0  0
 10 11  2  0  0  0
 11  6  1  0  0  0
 25 20  1  0  0  0
  3  4  1  0  0  0
 16 17  1  0  0  0
M  CHG 1  26   1
M  CHG 1  28  -1
M  END
> <minimizedAffinity>
13.01857

> <CNNscore>
0.5878595710

> <CNNaffinity>
6.5033698082

> <CNN_VS>
3.8230681419

> <CNNaffinity_variance>
0.8331756592

$$$$
[H]C(=NN([H])C(=S)N([H])C([H])([H])c1c([H])c([H])c(OC([H])(C([H])([H])[H])C([H])([H])[H])c([H])c1[H])c1c([H])c([H])c([N+](=O)[O-])c([H])c1[H]


 28 29  0  0  0  0  0  0  0  0999 V2000
   13.8122   21.8005    0.3047 C   0  0  0  0  0  0  0  0  0  0  0  0
   13.5366   20.9904   -1.0786 S   0  0  0  0  0  0  0  0  0  0  0  0
   13.7553   21.1143    1.5326 N   0  0  0  0  0  0  0  0  0  0  0  0
   14.5020   21.2363    2.2419 H   0  0  0  0  0  0  0  0  0  0  0  0
   12.6521   20.2286    1.8213 C   0  0  0  0  0  0  0  0  0  0  0  0
    9.1959   22.3910    3.1617 C   0  0  0  0  0  0  0  0  0  0  0  0
   10.2455   22.0756    4.0256 C   0  0  0  0  0  0  0  0  0  0  0  0
   11.3455   21.3818    3.5783 C   0  0  0  0  0  0  0  0  0  0  0  0
   11.4517   20.9742    2.2668 C   0  0  0  0  0  0  0  0  0  0  0  0
   10.4020   21.3012    1.4450 C   0  0  0  0  0  0  0  0  0  0  0  0
    9.2748   22.0015    1.8641 C   0  0  0  0  0  0  0  0  0  0  0  0
    8.1208   23.0843    3.6555 O   0  0  0  0  0  0  0  0  0  0  0  0
    9.1728   25.2226    3.2284 C   0  0  0  0  0  0  0  0  0  0  0  0
    8.0490   24.4413    3.9079 C   0  0  0  0  0  0  0  0  0  0  0  0
    8.1918   24.6865    5.4108 C   0  0  0  0  0  0  0  0  0  0  0  0
   14.1097   23.1943    0.2829 N   0  0  0  0  0  0  0  0  0  0  0  0
   13.3408   23.9150    0.1547 H   0  0  0  0  0  0  0  0  0  0  0  0
   15.3759   23.6591    0.4211 N   0  0  0  0  0  0  0  0  0  0  0  0
   16.1514   24.3535   -0.2279 C   0  0  0  0  0  0  0  0  0  0  0  0
   15.9289   24.9747   -1.5112 C   0  0  0  0  0  0  0  0  0  0  0  0
   16.6255   26.0547   -2.0019 C   0  0  0  0  0  0  0  0  0  0  0  0
   16.3682   26.6154   -3.2512 C   0  0  0  0  0  0  0  0  0  0  0  0
   15.3869   26.1075   -4.0703 C   0  0  0  0  0  0  0  0  0  0  0  0
   14.6731   25.0274   -3.6068 C   0  0  0  0  0  0  0  0  0  0  0  0
   14.9352   24.4850   -2.3774 C   0  0  0  0  0  0  0  0  0  0  0  0
   15.1300   26.6892   -5.3503 N   0  0  0  0  0  0  0  0  0  0  0  0
   13.9722   27.0537   -5.6290 O   0  0  0  0  0  0  0  0  0  0  0  0
   16.1897   26.8144   -6.2115 O   0  0  0  0  0  0  0  0  0  0  0  0
 13 14  1  0  0  0
 14 15  1  0  0  0
 14 12  1  0  0  0
 12  6  1  0  0  0
  6  7  2  0  0  0
  7  8  1  0  0  0
  8  9  2  0  0  0
  9  5  1  0  0  0
  5  3  1  0  0  0
  3  1  1  0  0  0
  1  2  2  0  0  0
  1 16  1  0  0  0
 16 18  1  0  0  0
 18 19  2  0  0  0
 19 20  1  0  0  0
 20 21  2  0  0  0
 21 22  1  0  0  0
 22 23  2  0  0  0
 23 26  1  0  0  0
 26 27  2  0  0  0
 26 28  1  0  0  0
 23 24  1  0  0  0
 24 25  2  0  0  0
  9 10  1  0  0  0
 10 11  2  0  0  0
 11  6  1  0  0  0
 25 20  1  0  0  0
  3  4  1  0  0  0
 16 17  1  0  0  0
M  CHG 1  26   1
M  CHG 1  28  -1
M  END
> <minimizedAffinity>
-6.74054

> <CNNscore>
0.5589608550

> <CNNaffinity>
6.7132797241

> <CNN_VS>
3.7524604797

> <CNNaffinity_variance>
0.0705654696

$$$$
[H]C(=NN([H])C(=S)N([H])C([H])([H])c1c([H])c([H])c(OC([H])(C([H])([H])[H])C([H])([H])[H])c([H])c1[H])c1c([H])c([H])c([N+](=O)[O-])c([H])c1[H]


 28 29  0  0  0  0  0  0  0  0999 V2000
   13.5760   21.4935    0.6086 C   0  0  0  0  0  0  0  0  0  0  0  0
   14.9460   20.6235    0.4998 S   0  0  0  0  0  0  0  0  0  0  0  0
   13.1661   22.2800   -0.4847 N   0  0  0  0  0  0  0  0  0  0  0  0
   13.0115   21.8513   -1.4163 H   0  0  0  0  0  0  0  0  0  0  0  0
   12.9547   23.6990   -0.3222 C   0  0  0  0  0  0  0  0  0  0  0  0
   13.9151   25.8281   -3.9226 C   0  0  0  0  0  0  0  0  0  0  0  0
   14.5861   24.6597   -3.5592 C   0  0  0  0  0  0  0  0  0  0  0  0
   14.2648   23.9905   -2.4014 C   0  0  0  0  0  0  0  0  0  0  0  0
   13.2731   24.4467   -1.5611 C   0  0  0  0  0  0  0  0  0  0  0  0
   12.6340   25.5979   -1.9490 C   0  0  0  0  0  0  0  0  0  0  0  0
   12.9335   26.2997   -3.1128 C   0  0  0  0  0  0  0  0  0  0  0  0
   14.2720   26.4587   -5.0867 O   0  0  0  0  0  0  0  0  0  0  0  0
   16.0804   28.0349   -5.4131 C   0  0  0  0  0  0  0  0  0  0  0  0
   15.5487   26.6136   -5.5930 C   0  0  0  0  0  0  0  0  0  0  0  0
   15.5351   26.3384   -7.0975 C   0  0  0  0  0  0  0  0  0  0  0  0
   12.7907   21.4655    1.7978 N   0  0  0  0  0  0  0  0  0  0  0  0
   13.1642   21.8632    2.7084 H   0  0  0  0  0  0  0  0  0  0  0  0
   11.5440   20.9329    1.8209 N   0  0  0  0  0  0  0  0  0  0  0  0
   10.4146   21.3085    2.1178 C   0  0  0  0  0  0  0  0  0  0  0  0
   10.0059   22.6061    2.5988 C   0  0  0  0  0  0  0  0  0  0  0  0
   10.1973   23.7955    1.9347 C   0  0  0  0  0  0  0  0  0  0  0  0
    9.7811   25.0226    2.4472 C   0  0  0  0  0  0  0  0  0  0  0  0
    9.1470   25.1065    3.6648 C   0  0  0  0  0  0  0  0  0  0  0  0
    8.9415   23.9336    4.3527 C   0  0  0  0  0  0  0  0  0  0  0  0
    9.3549   22.7340    3.8387 C   0  0  0  0  0  0  0  0  0  0  0  0
    8.7236   26.3696    4.1827 N   0  0  0  0  0  0  0  0  0  0  0  0
    9.0430   26.6863    5.3441 O   0  0  0  0  0  0  0  0  0  0  0  0
    7.9784   27.1727    3.3581 O   0  0  0  0  0  0  0  0  0  0  0  0
 13 14  1  0  0  0
 14 15  1  0  0  0
 14 12  1  0  0  0
 12  6  1  0  0  0
  6  7  2  0  0  0
  7  8  1  0  0  0
  8  9  2  0  0  0
  9  5  1  0  0  0
  5  3  1  0  0  0
  3  1  1  0  0  0
  1  2  2  0  0  0
  1 16  1  0  0  0
 16 18  1  0  0  0
 18 19  2  0  0  0
 19 20  1  0  0  0
 20 21  2  0  0  0
 21 22  1  0  0  0
 22 23  2  0  0  0
 23 26  1  0  0  0
 26 27  2  0  0  0
 26 28  1  0  0  0
 23 24  1  0  0  0
 24 25  2  0  0  0
  9 10  1  0  0  0
 10 11  2  0  0  0
 11  6  1  0  0  0
 25 20  1  0  0  0
  3  4  1  0  0  0
 16 17  1  0  0  0
M  CHG 1  26   1
M  CHG 1  28  -1
M  END
> <minimizedAffinity>
-8.08887

> <CNNscore>
0.5184886456

> <CNNaffinity>
6.5248222351

> <CNN_VS>
3.3830461502

> <CNNaffinity_variance>
0.0407826975

$$$$
[H]C(=NN([H])C(=S)N([H])C([H])([H])c1c([H])c([H])c(OC([H])(C([H])([H])[H])C([H])([H])[H])c([H])c1[H])c1c([H])c([H])c([N+](=O)[O-])c([H])c1[H]


 28 29  0  0  0  0  0  0  0  0999 V2000
   14.8366   24.1847    0.3580 C   0  0  0  0  0  0  0  0  0  0  0  0
   16.2872   24.7275   -0.1390 S   0  0  0  0  0  0  0  0  0  0  0  0
   14.6619   22.8118    0.6159 N   0  0  0  0  0  0  0  0  0  0  0  0
   14.8261   22.4267    1.5647 H   0  0  0  0  0  0  0  0  0  0  0  0
   14.2501   21.9190   -0.4415 C   0  0  0  0  0  0  0  0  0  0  0  0
   10.1749   20.6744    0.0700 C   0  0  0  0  0  0  0  0  0  0  0  0
   11.1032   20.5939    1.1088 C   0  0  0  0  0  0  0  0  0  0  0  0
   12.4053   20.9976    0.9266 C   0  0  0  0  0  0  0  0  0  0  0  0
   12.8396   21.4939   -0.2827 C   0  0  0  0  0  0  0  0  0  0  0  0
   11.9008   21.5591   -1.2820 C   0  0  0  0  0  0  0  0  0  0  0  0
   10.5762   21.1598   -1.1322 C   0  0  0  0  0  0  0  0  0  0  0  0
    8.8885   20.2595    0.3013 O   0  0  0  0  0  0  0  0  0  0  0  0
    6.5569   20.9108    0.2728 C   0  0  0  0  0  0  0  0  0  0  0  0
    7.7890   20.4613   -0.5115 C   0  0  0  0  0  0  0  0  0  0  0  0
    7.4158   19.1458   -1.1967 C   0  0  0  0  0  0  0  0  0  0  0  0
   13.7457   25.0851    0.5336 N   0  0  0  0  0  0  0  0  0  0  0  0
   13.8067   25.8891    1.2241 H   0  0  0  0  0  0  0  0  0  0  0  0
   12.5906   24.9561   -0.1647 N   0  0  0  0  0  0  0  0  0  0  0  0
   12.2342   25.0588   -1.3339 C   0  0  0  0  0  0  0  0  0  0  0  0
   13.0393   25.3933   -2.4838 C   0  0  0  0  0  0  0  0  0  0  0  0
   14.0931   24.6478   -2.9592 C   0  0  0  0  0  0  0  0  0  0  0  0
   14.8379   25.0189   -4.0767 C   0  0  0  0  0  0  0  0  0  0  0  0
   14.5510   26.1703   -4.7722 C   0  0  0  0  0  0  0  0  0  0  0  0
   13.5026   26.9369   -4.3205 C   0  0  0  0  0  0  0  0  0  0  0  0
   12.7780   26.5617   -3.2213 C   0  0  0  0  0  0  0  0  0  0  0  0
   15.3205   26.5432   -5.9175 N   0  0  0  0  0  0  0  0  0  0  0  0
   15.4864   25.7144   -6.8322 O   0  0  0  0  0  0  0  0  0  0  0  0
   15.8402   27.8118   -5.9436 O   0  0  0  0  0  0  0  0  0  0  0  0
 13 14  1  0  0  0
 14 15  1  0  0  0
 14 12  1  0  0  0
 12  6  1  0  0  0
  6  7  2  0  0  0
  7  8  1  0  0  0
  8  9  2  0  0  0
  9  5  1  0  0  0
  5  3  1  0  0  0
  3  1  1  0  0  0
  1  2  2  0  0  0
  1 16  1  0  0  0
 16 18  1  0  0  0
 18 19  2  0  0  0
 19 20  1  0  0  0
 20 21  2  0  0  0
 21 22  1  0  0  0
 22 23  2  0  0  0
 23 26  1  0  0  0
 26 27  2  0  0  0
 26 28  1  0  0  0
 23 24  1  0  0  0
 24 25  2  0  0  0
  9 10  1  0  0  0
 10 11  2  0  0  0
 11  6  1  0  0  0
 25 20  1  0  0  0
  3  4  1  0  0  0
 16 17  1  0  0  0
M  CHG 1  26   1
M  CHG 1  28  -1
M  END
> <minimizedAffinity>
-7.72831

> <CNNscore>
0.5130572319

> <CNNaffinity>
6.7479009628

> <CNN_VS>
3.4620594978

> <CNNaffinity_variance>
0.0873208493

$$$$
[H]C(=NN([H])C(=S)N([H])C([H])([H])c1c([H])c([H])c(OC([H])(C([H])([H])[H])C([H])([H])[H])c([H])c1[H])c1c([H])c([H])c([N+](=O)[O-])c([H])c1[H]


 28 29  0  0  0  0  0  0  0  0999 V2000
   13.1858   26.2372   -3.4069 C   0  0  0  0  0  0  0  0  0  0  0  0
   12.3233   25.4735   -2.2585 S   0  0  0  0  0  0  0  0  0  0  0  0
   12.9542   27.6037   -3.6535 N   0  0  0  0  0  0  0  0  0  0  0  0
   13.1606   28.3147   -2.9273 H   0  0  0  0  0  0  0  0  0  0  0  0
   12.4242   28.0344   -4.9257 C   0  0  0  0  0  0  0  0  0  0  0  0
    8.5851   29.8970   -4.4680 C   0  0  0  0  0  0  0  0  0  0  0  0
    9.7095   30.3533   -3.7788 C   0  0  0  0  0  0  0  0  0  0  0  0
   10.9321   29.7438   -3.9380 C   0  0  0  0  0  0  0  0  0  0  0  0
   11.0915   28.6652   -4.7798 C   0  0  0  0  0  0  0  0  0  0  0  0
    9.9655   28.2430   -5.4416 C   0  0  0  0  0  0  0  0  0  0  0  0
    8.7140   28.8359   -5.3041 C   0  0  0  0  0  0  0  0  0  0  0  0
    7.3883   30.5383   -4.2756 O   0  0  0  0  0  0  0  0  0  0  0  0
    6.7505   30.1162   -1.9785 C   0  0  0  0  0  0  0  0  0  0  0  0
    6.3516   30.1387   -3.4535 C   0  0  0  0  0  0  0  0  0  0  0  0
    5.9365   28.7121   -3.8166 C   0  0  0  0  0  0  0  0  0  0  0  0
   14.1701   25.5357   -4.1623 N   0  0  0  0  0  0  0  0  0  0  0  0
   13.9853   25.2488   -5.1675 H   0  0  0  0  0  0  0  0  0  0  0  0
   15.3751   25.2041   -3.6363 N   0  0  0  0  0  0  0  0  0  0  0  0
   15.7977   24.4334   -2.7806 C   0  0  0  0  0  0  0  0  0  0  0  0
   15.0449   23.5180   -1.9574 C   0  0  0  0  0  0  0  0  0  0  0  0
   14.5616   22.2966   -2.3658 C   0  0  0  0  0  0  0  0  0  0  0  0
   13.8392   21.4509   -1.5266 C   0  0  0  0  0  0  0  0  0  0  0  0
   13.5685   21.8023   -0.2247 C   0  0  0  0  0  0  0  0  0  0  0  0
   14.0388   23.0182    0.2126 C   0  0  0  0  0  0  0  0  0  0  0  0
   14.7477   23.8405   -0.6213 C   0  0  0  0  0  0  0  0  0  0  0  0
   12.8265   20.9283    0.6289 N   0  0  0  0  0  0  0  0  0  0  0  0
   11.8085   20.3662    0.1833 O   0  0  0  0  0  0  0  0  0  0  0  0
   13.2855   20.7565    1.9095 O   0  0  0  0  0  0  0  0  0  0  0  0
 13 14  1  0  0  0
 14 15  1  0  0  0
 14 12  1  0  0  0
 12  6  1  0  0  0
  6  7  2  0  0  0
  7  8  1  0  0  0
  8  9  2  0  0  0
  9  5  1  0  0  0
  5  3  1  0  0  0
  3  1  1  0  0  0
  1  2  2  0  0  0
  1 16  1  0  0  0
 16 18  1  0  0  0
 18 19  2  0  0  0
 19 20  1  0  0  0
 20 21  2  0  0  0
 21 22  1  0  0  0
 22 23  2  0  0  0
 23 26  1  0  0  0
 26 27  2  0  0  0
 26 28  1  0  0  0
 23 24  1  0  0  0
 24 25  2  0  0  0
  9 10  1  0  0  0
 10 11  2  0  0  0
 11  6  1  0  0  0
 25 20  1  0  0  0
  3  4  1  0  0  0
 16 17  1  0  0  0
M  CHG 1  26   1
M  CHG 1  28  -1
M  END
> <minimizedAffinity>
8.17866

> <CNNscore>
0.4670831561

> <CNNaffinity>
6.1239295006

> <CNN_VS>
2.8603842258

> <CNNaffinity_variance>
0.3052117229

$$$$
[H]C(=NN([H])C(=S)N([H])C([H])([H])c1c([H])c([H])c(OC([H])(C([H])([H])[H])C([H])([H])[H])c([H])c1[H])c1c([H])c([H])c([N+](=O)[O-])c([H])c1[H]


 28 29  0  0  0  0  0  0  0  0999 V2000
   14.6853   22.5239   -1.5820 C   0  0  0  0  0  0  0  0  0  0  0  0
   14.7575   22.0420   -3.1339 S   0  0  0  0  0  0  0  0  0  0  0  0
   15.0534   23.8408   -1.2476 N   0  0  0  0  0  0  0  0  0  0  0  0
   14.9767   24.1796   -0.2704 H   0  0  0  0  0  0  0  0  0  0  0  0
   15.5443   24.7403   -2.2648 C   0  0  0  0  0  0  0  0  0  0  0  0
   12.4299   27.1653   -3.9494 C   0  0  0  0  0  0  0  0  0  0  0  0
   13.6929   27.0797   -4.5367 C   0  0  0  0  0  0  0  0  0  0  0  0
   14.6790   26.2973   -3.9827 C   0  0  0  0  0  0  0  0  0  0  0  0
   14.4576   25.5723   -2.8326 C   0  0  0  0  0  0  0  0  0  0  0  0
   13.2049   25.6795   -2.2818 C   0  0  0  0  0  0  0  0  0  0  0  0
   12.1847   26.4611   -2.8155 C   0  0  0  0  0  0  0  0  0  0  0  0
   11.4803   27.9589   -4.5399 O   0  0  0  0  0  0  0  0  0  0  0  0
   11.9636   29.9246   -3.2118 C   0  0  0  0  0  0  0  0  0  0  0  0
   11.4126   29.3391   -4.5113 C   0  0  0  0  0  0  0  0  0  0  0  0
    9.9504   29.7778   -4.6039 C   0  0  0  0  0  0  0  0  0  0  0  0
   14.2539   21.6261   -0.5624 N   0  0  0  0  0  0  0  0  0  0  0  0
   14.7394   21.5973    0.3812 H   0  0  0  0  0  0  0  0  0  0  0  0
   13.2155   20.7745   -0.7498 N   0  0  0  0  0  0  0  0  0  0  0  0
   12.0242   20.7368   -0.4600 C   0  0  0  0  0  0  0  0  0  0  0  0
   11.2536   21.7164    0.2672 C   0  0  0  0  0  0  0  0  0  0  0  0
   10.6081   22.7942   -0.2932 C   0  0  0  0  0  0  0  0  0  0  0  0
    9.8762   23.7111    0.4585 C   0  0  0  0  0  0  0  0  0  0  0  0
    9.7612   23.5814    1.8229 C   0  0  0  0  0  0  0  0  0  0  0  0
   10.3961   22.5134    2.4121 C   0  0  0  0  0  0  0  0  0  0  0  0
   11.1122   21.6189    1.6629 C   0  0  0  0  0  0  0  0  0  0  0  0
    9.0083   24.5269    2.5859 N   0  0  0  0  0  0  0  0  0  0  0  0
    9.5264   25.0415    3.5948 O   0  0  0  0  0  0  0  0  0  0  0  0
    7.7389   24.8174    2.1566 O   0  0  0  0  0  0  0  0  0  0  0  0
 13 14  1  0  0  0
 14 15  1  0  0  0
 14 12  1  0  0  0
 12  6  1  0  0  0
  6  7  2  0  0  0
  7  8  1  0  0  0
  8  9  2  0  0  0
  9  5  1  0  0  0
  5  3  1  0  0  0
  3  1  1  0  0  0
  1  2  2  0  0  0
  1 16  1  0  0  0
 16 18  1  0  0  0
 18 19  2  0  0  0
 19 20  1  0  0  0
 20 21  2  0  0  0
 21 22  1  0  0  0
 22 23  2  0  0  0
 23 26  1  0  0  0
 26 27  2  0  0  0
 26 28  1  0  0  0
 23 24  1  0  0  0
 24 25  2  0  0  0
  9 10  1  0  0  0
 10 11  2  0  0  0
 11  6  1  0  0  0
 25 20  1  0  0  0
  3  4  1  0  0  0
 16 17  1  0  0  0
M  CHG 1  26   1
M  CHG 1  28  -1
M  END
> <minimizedAffinity>
2.47834

> <CNNscore>
0.4610219896

> <CNNaffinity>
6.3536005020

> <CNN_VS>
2.9291496277

> <CNNaffinity_variance>
0.2289455831

$$$$
[H]C(=NN([H])C(=S)N([H])C([H])([H])c1c([H])c([H])c(OC([H])(C([H])([H])[H])C([H])([H])[H])c([H])c1[H])c1c([H])c([H])c([N+](=O)[O-])c([H])c1[H]


 28 29  0  0  0  0  0  0  0  0999 V2000
    9.5666   23.9926    0.8179 C   0  0  0  0  0  0  0  0  0  0  0  0
    9.7364   24.3340    2.3992 S   0  0  0  0  0  0  0  0  0  0  0  0
   10.5667   24.3926   -0.0885 N   0  0  0  0  0  0  0  0  0  0  0  0
   10.3288   24.6207   -1.0719 H   0  0  0  0  0  0  0  0  0  0  0  0
   11.9417   24.4909    0.3410 C   0  0  0  0  0  0  0  0  0  0  0  0
   14.5352   25.3606   -2.9658 C   0  0  0  0  0  0  0  0  0  0  0  0
   13.2018   25.7720   -2.9504 C   0  0  0  0  0  0  0  0  0  0  0  0
   12.3851   25.4842   -1.8818 C   0  0  0  0  0  0  0  0  0  0  0  0
   12.8510   24.7823   -0.7919 C   0  0  0  0  0  0  0  0  0  0  0  0
   14.1665   24.3934   -0.8403 C   0  0  0  0  0  0  0  0  0  0  0  0
   15.0201   24.6675   -1.9046 C   0  0  0  0  0  0  0  0  0  0  0  0
   15.3089   25.6720   -4.0542 O   0  0  0  0  0  0  0  0  0  0  0  0
   15.2831   26.5044   -6.3276 C   0  0  0  0  0  0  0  0  0  0  0  0
   15.2333   26.8123   -4.8316 C   0  0  0  0  0  0  0  0  0  0  0  0
   16.4321   27.7130   -4.5299 C   0  0  0  0  0  0  0  0  0  0  0  0
    8.4174   23.2944    0.3453 N   0  0  0  0  0  0  0  0  0  0  0  0
    7.6181   23.8123   -0.1238 H   0  0  0  0  0  0  0  0  0  0  0  0
    8.2923   21.9504    0.4738 N   0  0  0  0  0  0  0  0  0  0  0  0
    9.0436   20.9834    0.5462 C   0  0  0  0  0  0  0  0  0  0  0  0
   10.4861   20.9727    0.5128 C   0  0  0  0  0  0  0  0  0  0  0  0
   11.3057   20.9442    1.6173 C   0  0  0  0  0  0  0  0  0  0  0  0
   12.6961   20.9349    1.5264 C   0  0  0  0  0  0  0  0  0  0  0  0
   13.3291   20.9544    0.3056 C   0  0  0  0  0  0  0  0  0  0  0  0
   12.5359   20.9832   -0.8174 C   0  0  0  0  0  0  0  0  0  0  0  0
   11.1707   20.9919   -0.7153 C   0  0  0  0  0  0  0  0  0  0  0  0
   14.7559   20.9447    0.2220 N   0  0  0  0  0  0  0  0  0  0  0  0
   15.3058   20.2841   -0.6792 O   0  0  0  0  0  0  0  0  0  0  0  0
   15.4482   21.6746    1.1538 O   0  0  0  0  0  0  0  0  0  0  0  0
 13 14  1  0  0  0
 14 15  1  0  0  0
 14 12  1  0  0  0
 12  6  1  0  0  0
  6  7  2  0  0  0
  7  8  1  0  0  0
  8  9  2  0  0  0
  9  5  1  0  0  0
  5  3  1  0  0  0
  3  1  1  0  0  0
  1  2  2  0  0  0
  1 16  1  0  0  0
 16 18  1  0  0  0
 18 19  2  0  0  0
 19 20  1  0  0  0
 20 21  2  0  0  0
 21 22  1  0  0  0
 22 23  2  0  0  0
 23 26  1  0  0  0
 26 27  2  0  0  0
 26 28  1  0  0  0
 23 24  1  0  0  0
 24 25  2  0  0  0
  9 10  1  0  0  0
 10 11  2  0  0  0
 11  6  1  0  0  0
 25 20  1  0  0  0
  3  4  1  0  0  0
 16 17  1  0  0  0
M  CHG 1  26   1
M  CHG 1  28  -1
M  END
> <minimizedAffinity>
-7.84477

> <CNNscore>
0.4416582286

> <CNNaffinity>
6.9468793869

> <CNN_VS>
3.0681464672

> <CNNaffinity_variance>
0.0087927068

$$$$
[H]C(=NN([H])C(=S)N([H])C([H])([H])c1c([H])c([H])c(OC([H])(C([H])([H])[H])C([H])([H])[H])c([H])c1[H])c1c([H])c([H])c([N+](=O)[O-])c([H])c1[H]


 28 29  0  0  0  0  0  0  0  0999 V2000
   14.6164   22.5429   -0.0271 C   0  0  0  0  0  0  0  0  0  0  0  0
   15.7625   21.9138    0.9405 S   0  0  0  0  0  0  0  0  0  0  0  0
   13.9706   21.7152   -0.9650 N   0  0  0  0  0  0  0  0  0  0  0  0
   14.0337   21.9167   -1.9803 H   0  0  0  0  0  0  0  0  0  0  0  0
   13.2092   20.5705   -0.5235 C   0  0  0  0  0  0  0  0  0  0  0  0
   10.1398   21.6926    2.2581 C   0  0  0  0  0  0  0  0  0  0  0  0
    9.9922   21.8863    0.8841 C   0  0  0  0  0  0  0  0  0  0  0  0
   10.9866   21.5204    0.0073 C   0  0  0  0  0  0  0  0  0  0  0  0
   12.1602   20.9518    0.4509 C   0  0  0  0  0  0  0  0  0  0  0  0
   12.2720   20.7758    1.8077 C   0  0  0  0  0  0  0  0  0  0  0  0
   11.2863   21.1342    2.7224 C   0  0  0  0  0  0  0  0  0  0  0  0
    9.1197   22.0739    3.0914 O   0  0  0  0  0  0  0  0  0  0  0  0
    9.7390   24.4051    2.8826 C   0  0  0  0  0  0  0  0  0  0  0  0
    8.8213   23.3568    3.5103 C   0  0  0  0  0  0  0  0  0  0  0  0
    9.0158   23.4547    5.0242 C   0  0  0  0  0  0  0  0  0  0  0  0
   14.2626   23.9204    0.0672 N   0  0  0  0  0  0  0  0  0  0  0  0
   14.9385   24.6314    0.4729 H   0  0  0  0  0  0  0  0  0  0  0  0
   13.0577   24.3811   -0.3507 N   0  0  0  0  0  0  0  0  0  0  0  0
   12.6085   24.9418   -1.3449 C   0  0  0  0  0  0  0  0  0  0  0  0
   13.3157   25.3391   -2.5383 C   0  0  0  0  0  0  0  0  0  0  0  0
   14.3981   24.6820   -3.0757 C   0  0  0  0  0  0  0  0  0  0  0  0
   15.0441   25.1109   -4.2334 C   0  0  0  0  0  0  0  0  0  0  0  0
   14.6236   26.2333   -4.9081 C   0  0  0  0  0  0  0  0  0  0  0  0
   13.5433   26.9118   -4.3947 C   0  0  0  0  0  0  0  0  0  0  0  0
   12.9168   26.4804   -3.2565 C   0  0  0  0  0  0  0  0  0  0  0  0
   15.2924   26.6659   -6.0949 N   0  0  0  0  0  0  0  0  0  0  0  0
   15.4005   25.8761   -7.0518 O   0  0  0  0  0  0  0  0  0  0  0  0
   15.7844   27.9456   -6.1119 O   0  0  0  0  0  0  0  0  0  0  0  0
 13 14  1  0  0  0
 14 15  1  0  0  0
 14 12  1  0  0  0
 12  6  1  0  0  0
  6  7  2  0  0  0
  7  8  1  0  0  0
  8  9  2  0  0  0
  9  5  1  0  0  0
  5  3  1  0  0  0
  3  1  1  0  0  0
  1  2  2  0  0  0
  1 16  1  0  0  0
 16 18  1  0  0  0
 18 19  2  0  0  0
 19 20  1  0  0  0
 20 21  2  0  0  0
 21 22  1  0  0  0
 22 23  2  0  0  0
 23 26  1  0  0  0
 26 27  2  0  0  0
 26 28  1  0  0  0
 23 24  1  0  0  0
 24 25  2  0  0  0
  9 10  1  0  0  0
 10 11  2  0  0  0
 11  6  1  0  0  0
 25 20  1  0  0  0
  3  4  1  0  0  0
 16 17  1  0  0  0
M  CHG 1  26   1
M  CHG 1  28  -1
M  END
> <minimizedAffinity>
-7.42605

> <CNNscore>
0.4341901541

> <CNNaffinity>
6.9297943115

> <CNN_VS>
3.0088484287

> <CNNaffinity_variance>
0.1658020318

$$$$
[H]c1nc(N([H])[H])c(C(=O)N([H])c2c([H])nc([H])c([H])c2N2C([H])([H])C([H])([H])C([H])(N([H])[H])C([H])([H])C2([H])[H])nc1-c1c([H])c([H])c(OC([H])([H])[H])c([H])c1[H]


 36 39  0  0  0  0  0  0  0  0999 V2000
   13.6941   23.8965   -0.3610 C   0  0  0  0  0  0  0  0  0  0  0  0
   14.8458   23.8504    0.1134 O   0  0  0  0  0  0  0  0  0  0  0  0
   12.6383   23.0022   -0.1366 N   0  0  0  0  0  0  0  0  0  0  0  0
   11.7276   23.2519   -0.6362 H   0  0  0  0  0  0  0  0  0  0  0  0
   13.8101   26.0441   -3.3920 C   0  0  0  0  0  0  0  0  0  0  0  0
   13.0725   27.1180   -2.9728 C   0  0  0  0  0  0  0  0  0  0  0  0
   12.5308   27.1658   -1.7172 N   0  0  0  0  0  0  0  0  0  0  0  0
   12.7257   26.1292   -0.8661 C   0  0  0  0  0  0  0  0  0  0  0  0
   12.1732   26.1451    0.4536 N   0  0  0  0  0  0  0  0  0  0  0  0
   13.4566   25.0529   -1.2663 C   0  0  0  0  0  0  0  0  0  0  0  0
   13.9824   25.0363   -2.5227 N   0  0  0  0  0  0  0  0  0  0  0  0
   12.7533   26.3928    1.2803 H   0  0  0  0  0  0  0  0  0  0  0  0
   11.1862   25.9070    0.5814 H   0  0  0  0  0  0  0  0  0  0  0  0
   15.5156   25.8733   -7.3020 C   0  0  0  0  0  0  0  0  0  0  0  0
   15.6791   24.8174   -6.4399 C   0  0  0  0  0  0  0  0  0  0  0  0
   15.1234   24.8914   -5.1863 C   0  0  0  0  0  0  0  0  0  0  0  0
   14.4017   25.9560   -4.7113 C   0  0  0  0  0  0  0  0  0  0  0  0
   14.2524   27.0179   -5.6152 C   0  0  0  0  0  0  0  0  0  0  0  0
   14.7959   26.9813   -6.8837 C   0  0  0  0  0  0  0  0  0  0  0  0
   17.4271   25.4620   -8.7134 C   0  0  0  0  0  0  0  0  0  0  0  0
   16.0721   25.8025   -8.5619 O   0  0  0  0  0  0  0  0  0  0  0  0
   12.6172   21.8461    0.6704 C   0  0  0  0  0  0  0  0  0  0  0  0
   13.7120   21.0598    0.8680 C   0  0  0  0  0  0  0  0  0  0  0  0
   13.6795   19.9873    1.6784 N   0  0  0  0  0  0  0  0  0  0  0  0
   12.5684   19.6350    2.3352 C   0  0  0  0  0  0  0  0  0  0  0  0
   11.4331   20.3881    2.1759 C   0  0  0  0  0  0  0  0  0  0  0  0
   11.4474   21.5031    1.3390 C   0  0  0  0  0  0  0  0  0  0  0  0
   10.2593   22.2468    1.1534 N   0  0  0  0  0  0  0  0  0  0  0  0
    8.9574   21.8363    1.5964 C   0  0  0  0  0  0  0  0  0  0  0  0
    8.2917   22.9670    2.3463 C   0  0  0  0  0  0  0  0  0  0  0  0
    9.2779   24.0481    2.6547 C   0  0  0  0  0  0  0  0  0  0  0  0
    8.5915   25.1947    3.2660 N   0  0  0  0  0  0  0  0  0  0  0  0
    9.9961   24.6017    1.4541 C   0  0  0  0  0  0  0  0  0  0  0  0
   10.3501   23.5283    0.4673 C   0  0  0  0  0  0  0  0  0  0  0  0
    9.2076   26.0133    3.2571 H   0  0  0  0  0  0  0  0  0  0  0  0
    8.1999   24.9459    4.1962 H   0  0  0  0  0  0  0  0  0  0  0  0
 20 21  1  0  0  0
 21 14  1  0  0  0
 14 15  2  0  0  0
 15 16  1  0  0  0
 16 17  2  0  0  0
 17  5  1  0  0  0
  5  6  2  0  0  0
  6  7  1  0  0  0
  7  8  2  0  0  0
  8  9  1  0  0  0
  8 10  1  0  0  0
 10  1  1  0  0  0
  1  2  2  0  0  0
  1  3  1  0  0  0
  3 22  1  0  0  0
 22 23  2  0  0  0
 23 24  1  0  0  0
 24 25  2  0  0  0
 25 26  1  0  0  0
 26 27  2  0  0  0
 27 28  1  0  0  0
 28 29  1  0  0  0
 29 30  1  0  0  0
 30 31  1  0  0  0
 31 32  1  0  0  0
 31 33  1  0  0  0
 33 34  1  0  0  0
 10 11  2  0  0  0
 17 18  1  0  0  0
 18 19  2  0  0  0
 19 14  1  0  0  0
 11  5  1  0  0  0
 27 22  1  0  0  0
 34 28  1  0  0  0
  9 12  1  0  0  0
  9 13  1  0  0  0
  3  4  1  0  0  0
 32 35  1  0  0  0
 32 36  1  0  0  0
M  END
> <minimizedAffinity>
0.94579

> <CNNscore>
0.5467045307

> <CNNaffinity>
7.6144814491

> <CNN_VS>
4.1628713608

> <CNNaffinity_variance>
1.1672441959

$$$$
[H]c1nc(N([H])[H])c(C(=O)N([H])c2c([H])nc([H])c([H])c2N2C([H])([H])C([H])([H])C([H])(N([H])[H])C([H])([H])C2([H])[H])nc1-c1c([H])c([H])c(OC([H])([H])[H])c([H])c1[H]


 36 39  0  0  0  0  0  0  0  0999 V2000
   11.0020   23.7495   -1.3444 C   0  0  0  0  0  0  0  0  0  0  0  0
   10.0992   24.4198   -0.8066 O   0  0  0  0  0  0  0  0  0  0  0  0
   11.0094   22.3713   -1.6003 N   0  0  0  0  0  0  0  0  0  0  0  0
   11.8875   22.0130   -2.0920 H   0  0  0  0  0  0  0  0  0  0  0  0
   14.4975   25.0089   -1.4312 C   0  0  0  0  0  0  0  0  0  0  0  0
   14.4039   25.9551   -2.4155 C   0  0  0  0  0  0  0  0  0  0  0  0
   13.2225   26.1994   -3.0611 N   0  0  0  0  0  0  0  0  0  0  0  0
   12.1177   25.4913   -2.7224 C   0  0  0  0  0  0  0  0  0  0  0  0
   10.8662   25.7198   -3.3772 N   0  0  0  0  0  0  0  0  0  0  0  0
   12.1925   24.5462   -1.7457 C   0  0  0  0  0  0  0  0  0  0  0  0
   13.3835   24.3273   -1.1221 N   0  0  0  0  0  0  0  0  0  0  0  0
   10.1230   26.2990   -2.9374 H   0  0  0  0  0  0  0  0  0  0  0  0
   10.7039   25.3023   -4.2973 H   0  0  0  0  0  0  0  0  0  0  0  0
   18.0707   24.1261    0.7319 C   0  0  0  0  0  0  0  0  0  0  0  0
   18.1499   24.7299   -0.4986 C   0  0  0  0  0  0  0  0  0  0  0  0
   16.9894   25.0053   -1.1792 C   0  0  0  0  0  0  0  0  0  0  0  0
   15.7280   24.7217   -0.7229 C   0  0  0  0  0  0  0  0  0  0  0  0
   15.6806   24.1057    0.5362 C   0  0  0  0  0  0  0  0  0  0  0  0
   16.8246   23.8126    1.2512 C   0  0  0  0  0  0  0  0  0  0  0  0
   19.6163   24.6502    2.5071 C   0  0  0  0  0  0  0  0  0  0  0  0
   19.2341   23.8481    1.4184 O   0  0  0  0  0  0  0  0  0  0  0  0
   10.0117   21.4157   -1.3178 C   0  0  0  0  0  0  0  0  0  0  0  0
    9.2104   20.8746   -2.2774 C   0  0  0  0  0  0  0  0  0  0  0  0
    8.2961   19.9311   -1.9906 N   0  0  0  0  0  0  0  0  0  0  0  0
    8.1248   19.4728   -0.7454 C   0  0  0  0  0  0  0  0  0  0  0  0
    8.9023   19.9802    0.2643 C   0  0  0  0  0  0  0  0  0  0  0  0
    9.8548   20.9596   -0.0138 C   0  0  0  0  0  0  0  0  0  0  0  0
   10.6215   21.5020    1.0432 N   0  0  0  0  0  0  0  0  0  0  0  0
   10.1612   22.5076    1.9579 C   0  0  0  0  0  0  0  0  0  0  0  0
   10.4528   22.0802    3.3778 C   0  0  0  0  0  0  0  0  0  0  0  0
   10.8543   20.6403    3.4234 C   0  0  0  0  0  0  0  0  0  0  0  0
   11.2598   20.2748    4.7877 N   0  0  0  0  0  0  0  0  0  0  0  0
   12.0257   20.2888    2.5471 C   0  0  0  0  0  0  0  0  0  0  0  0
   11.9790   21.0090    1.2316 C   0  0  0  0  0  0  0  0  0  0  0  0
   11.7542   19.3775    4.7744 H   0  0  0  0  0  0  0  0  0  0  0  0
   10.4564   20.3274    5.4453 H   0  0  0  0  0  0  0  0  0  0  0  0
 20 21  1  0  0  0
 21 14  1  0  0  0
 14 15  2  0  0  0
 15 16  1  0  0  0
 16 17  2  0  0  0
 17  5  1  0  0  0
  5  6  2  0  0  0
  6  7  1  0  0  0
  7  8  2  0  0  0
  8  9  1  0  0  0
  8 10  1  0  0  0
 10  1  1  0  0  0
  1  2  2  0  0  0
  1  3  1  0  0  0
  3 22  1  0  0  0
 22 23  2  0  0  0
 23 24  1  0  0  0
 24 25  2  0  0  0
 25 26  1  0  0  0
 26 27  2  0  0  0
 27 28  1  0  0  0
 28 29  1  0  0  0
 29 30  1  0  0  0
 30 31  1  0  0  0
 31 32  1  0  0  0
 31 33  1  0  0  0
 33 34  1  0  0  0
 10 11  2  0  0  0
 17 18  1  0  0  0
 18 19  2  0  0  0
 19 14  1  0  0  0
 11  5  1  0  0  0
 27 22  1  0  0  0
 34 28  1  0  0  0
  9 12  1  0  0  0
  9 13  1  0  0  0
  3  4  1  0  0  0
 32 35  1  0  0  0
 32 36  1  0  0  0
M  END
> <minimizedAffinity>
4.92032

> <CNNscore>
0.4755264521

> <CNNaffinity>
7.1880807877

> <CNN_VS>
3.4181225300

> <CNNaffinity_variance>
0.6095981598

$$$$
[H]c1nc(N([H])[H])c(C(=O)N([H])c2c([H])nc([H])c([H])c2N2C([H])([H])C([H])([H])C([H])(N([H])[H])C([H])([H])C2([H])[H])nc1-c1c([H])c([H])c(OC([H])([H])[H])c([H])c1[H]


 36 39  0  0  0  0  0  0  0  0999 V2000
   12.9561   23.4944   -1.5905 C   0  0  0  0  0  0  0  0  0  0  0  0
   11.8378   23.1999   -1.1254 O   0  0  0  0  0  0  0  0  0  0  0  0
   14.1446   22.7571   -1.4967 N   0  0  0  0  0  0  0  0  0  0  0  0
   14.9831   23.1967   -1.9915 H   0  0  0  0  0  0  0  0  0  0  0  0
   13.8509   26.0481   -4.1382 C   0  0  0  0  0  0  0  0  0  0  0  0
   13.1002   27.1096   -3.7108 C   0  0  0  0  0  0  0  0  0  0  0  0
   12.3006   27.0191   -2.6042 N   0  0  0  0  0  0  0  0  0  0  0  0
   12.2469   25.8547   -1.9127 C   0  0  0  0  0  0  0  0  0  0  0  0
   11.4209   25.7244   -0.7517 N   0  0  0  0  0  0  0  0  0  0  0  0
   12.9868   24.7887   -2.3235 C   0  0  0  0  0  0  0  0  0  0  0  0
   13.7728   24.9114   -3.4291 N   0  0  0  0  0  0  0  0  0  0  0  0
   11.8190   25.7941    0.2064 H   0  0  0  0  0  0  0  0  0  0  0  0
   10.4182   25.5590   -0.8719 H   0  0  0  0  0  0  0  0  0  0  0  0
   16.3888   26.1129   -7.5706 C   0  0  0  0  0  0  0  0  0  0  0  0
   15.9770   27.2939   -7.0044 C   0  0  0  0  0  0  0  0  0  0  0  0
   15.1606   27.2524   -5.9011 C   0  0  0  0  0  0  0  0  0  0  0  0
   14.7109   26.1037   -5.3026 C   0  0  0  0  0  0  0  0  0  0  0  0
   15.1487   24.9147   -5.9039 C   0  0  0  0  0  0  0  0  0  0  0  0
   15.9697   24.9149   -7.0137 C   0  0  0  0  0  0  0  0  0  0  0  0
   17.2958   25.0336   -9.5270 C   0  0  0  0  0  0  0  0  0  0  0  0
   17.2090   26.1506   -8.6786 O   0  0  0  0  0  0  0  0  0  0  0  0
   14.3663   21.5172   -0.8630 C   0  0  0  0  0  0  0  0  0  0  0  0
   13.8867   20.3390   -1.3506 C   0  0  0  0  0  0  0  0  0  0  0  0
   14.1494   19.1633   -0.7533 N   0  0  0  0  0  0  0  0  0  0  0  0
   14.8973   19.0879    0.3535 C   0  0  0  0  0  0  0  0  0  0  0  0
   15.4081   20.2412    0.8924 C   0  0  0  0  0  0  0  0  0  0  0  0
   15.1456   21.4697    0.2875 C   0  0  0  0  0  0  0  0  0  0  0  0
   15.6454   22.6540    0.8763 N   0  0  0  0  0  0  0  0  0  0  0  0
   17.0356   22.9415    1.0870 C   0  0  0  0  0  0  0  0  0  0  0  0
   17.3569   24.3241    0.5683 C   0  0  0  0  0  0  0  0  0  0  0  0
   16.2285   24.8527   -0.2586 C   0  0  0  0  0  0  0  0  0  0  0  0
   16.4985   26.2441   -0.6461 N   0  0  0  0  0  0  0  0  0  0  0  0
   14.8978   24.8808    0.4429 C   0  0  0  0  0  0  0  0  0  0  0  0
   14.6895   23.6676    1.3009 C   0  0  0  0  0  0  0  0  0  0  0  0
   15.6406   26.6791   -0.9991 H   0  0  0  0  0  0  0  0  0  0  0  0
   17.3189   26.3048   -1.2816 H   0  0  0  0  0  0  0  0  0  0  0  0
 20 21  1  0  0  0
 21 14  1  0  0  0
 14 15  2  0  0  0
 15 16  1  0  0  0
 16 17  2  0  0  0
 17  5  1  0  0  0
  5  6  2  0  0  0
  6  7  1  0  0  0
  7  8  2  0  0  0
  8  9  1  0  0  0
  8 10  1  0  0  0
 10  1  1  0  0  0
  1  2  2  0  0  0
  1  3  1  0  0  0
  3 22  1  0  0  0
 22 23  2  0  0  0
 23 24  1  0  0  0
 24 25  2  0  0  0
 25 26  1  0  0  0
 26 27  2  0  0  0
 27 28  1  0  0  0
 28 29  1  0  0  0
 29 30  1  0  0  0
 30 31  1  0  0  0
 31 32  1  0  0  0
 31 33  1  0  0  0
 33 34  1  0  0  0
 10 11  2  0  0  0
 17 18  1  0  0  0
 18 19  2  0  0  0
 19 14  1  0  0  0
 11  5  1  0  0  0
 27 22  1  0  0  0
 34 28  1  0  0  0
  9 12  1  0  0  0
  9 13  1  0  0  0
  3  4  1  0  0  0
 32 35  1  0  0  0
 32 36  1  0  0  0
M  END
> <minimizedAffinity>
10.92465

> <CNNscore>
0.4643532038

> <CNNaffinity>
7.3858327866

> <CNN_VS>
3.4296350479

> <CNNaffinity_variance>
0.7130497098

$$$$
[H]c1nc(N([H])[H])c(C(=O)N([H])c2c([H])nc([H])c([H])c2N2C([H])([H])C([H])([H])C([H])(N([H])[H])C([H])([H])C2([H])[H])nc1-c1c([H])c([H])c(OC([H])([H])[H])c([H])c1[H]


 36 39  0  0  0  0  0  0  0  0999 V2000
   12.5397   24.3228   -2.2041 C   0  0  0  0  0  0  0  0  0  0  0  0
   11.6062   25.0228   -2.6426 O   0  0  0  0  0  0  0  0  0  0  0  0
   12.4658   23.0216   -1.6880 N   0  0  0  0  0  0  0  0  0  0  0  0
   13.4030   22.6068   -1.3866 H   0  0  0  0  0  0  0  0  0  0  0  0
   16.0356   25.2147   -1.3121 C   0  0  0  0  0  0  0  0  0  0  0  0
   16.3143   26.1484   -2.2732 C   0  0  0  0  0  0  0  0  0  0  0  0
   15.3875   26.5015   -3.2157 N   0  0  0  0  0  0  0  0  0  0  0  0
   14.1650   25.9166   -3.2019 C   0  0  0  0  0  0  0  0  0  0  0  0
   13.1721   26.2612   -4.1728 N   0  0  0  0  0  0  0  0  0  0  0  0
   13.8704   24.9860   -2.2534 C   0  0  0  0  0  0  0  0  0  0  0  0
   14.8152   24.6567   -1.3291 N   0  0  0  0  0  0  0  0  0  0  0  0
   12.4008   26.9212   -3.9475 H   0  0  0  0  0  0  0  0  0  0  0  0
   13.2263   25.8466   -5.1069 H   0  0  0  0  0  0  0  0  0  0  0  0
   18.7666   24.0246    1.7459 C   0  0  0  0  0  0  0  0  0  0  0  0
   19.2419   24.3837    0.5089 C   0  0  0  0  0  0  0  0  0  0  0  0
   18.3478   24.7631   -0.4617 C   0  0  0  0  0  0  0  0  0  0  0  0
   16.9877   24.8149   -0.2962 C   0  0  0  0  0  0  0  0  0  0  0  0
   16.5336   24.4425    0.9774 C   0  0  0  0  0  0  0  0  0  0  0  0
   17.4008   24.0552    1.9793 C   0  0  0  0  0  0  0  0  0  0  0  0
   20.0941   24.5748    3.6824 C   0  0  0  0  0  0  0  0  0  0  0  0
   19.6617   23.6432    2.7233 O   0  0  0  0  0  0  0  0  0  0  0  0
   11.3341   22.1937   -1.5399 C   0  0  0  0  0  0  0  0  0  0  0  0
   10.5679   21.7903   -2.5916 C   0  0  0  0  0  0  0  0  0  0  0  0
    9.5196   20.9635   -2.4311 N   0  0  0  0  0  0  0  0  0  0  0  0
    9.1729   20.4922   -1.2279 C   0  0  0  0  0  0  0  0  0  0  0  0
    9.9066   20.8637   -0.1301 C   0  0  0  0  0  0  0  0  0  0  0  0
   10.9963   21.7209   -0.2768 C   0  0  0  0  0  0  0  0  0  0  0  0
   11.7190   22.1269    0.8686 N   0  0  0  0  0  0  0  0  0  0  0  0
   11.2529   23.0769    1.8381 C   0  0  0  0  0  0  0  0  0  0  0  0
   11.4275   22.5152    3.2302 C   0  0  0  0  0  0  0  0  0  0  0  0
   11.7489   21.0558    3.1738 C   0  0  0  0  0  0  0  0  0  0  0  0
   12.0438   20.5538    4.5229 N   0  0  0  0  0  0  0  0  0  0  0  0
   12.9554   20.7120    2.3432 C   0  0  0  0  0  0  0  0  0  0  0  0
   13.0334   21.5419    1.0957 C   0  0  0  0  0  0  0  0  0  0  0  0
   12.4903   19.6336    4.4612 H   0  0  0  0  0  0  0  0  0  0  0  0
   11.2027   20.5973    5.1323 H   0  0  0  0  0  0  0  0  0  0  0  0
 20 21  1  0  0  0
 21 14  1  0  0  0
 14 15  2  0  0  0
 15 16  1  0  0  0
 16 17  2  0  0  0
 17  5  1  0  0  0
  5  6  2  0  0  0
  6  7  1  0  0  0
  7  8  2  0  0  0
  8  9  1  0  0  0
  8 10  1  0  0  0
 10  1  1  0  0  0
  1  2  2  0  0  0
  1  3  1  0  0  0
  3 22  1  0  0  0
 22 23  2  0  0  0
 23 24  1  0  0  0
 24 25  2  0  0  0
 25 26  1  0  0  0
 26 27  2  0  0  0
 27 28  1  0  0  0
 28 29  1  0  0  0
 29 30  1  0  0  0
 30 31  1  0  0  0
 31 32  1  0  0  0
 31 33  1  0  0  0
 33 34  1  0  0  0
 10 11  2  0  0  0
 17 18  1  0  0  0
 18 19  2  0  0  0
 19 14  1  0  0  0
 11  5  1  0  0  0
 27 22  1  0  0  0
 34 28  1  0  0  0
  9 12  1  0  0  0
  9 13  1  0  0  0
  3  4  1  0  0  0
 32 35  1  0  0  0
 32 36  1  0  0  0
M  END
> <minimizedAffinity>
12.59714

> <CNNscore>
0.4440658987

> <CNNaffinity>
7.2079086304

> <CNN_VS>
3.2007863522

> <CNNaffinity_variance>
0.5442355275

$$$$
[H]c1nc(N([H])[H])c(C(=O)N([H])c2c([H])nc([H])c([H])c2N2C([H])([H])C([H])([H])C([H])(N([H])[H])C([H])([H])C2([H])[H])nc1-c1c([H])c([H])c(OC([H])([H])[H])c([H])c1[H]


 36 39  0  0  0  0  0  0  0  0999 V2000
   13.3608   23.3149   -0.5397 C   0  0  0  0  0  0  0  0  0  0  0  0
   14.2402   22.4929   -0.8631 O   0  0  0  0  0  0  0  0  0  0  0  0
   12.3979   23.1866    0.4709 N   0  0  0  0  0  0  0  0  0  0  0  0
   11.7536   24.0313    0.5837 H   0  0  0  0  0  0  0  0  0  0  0  0
   13.9353   25.6292   -3.3904 C   0  0  0  0  0  0  0  0  0  0  0  0
   13.4299   26.7940   -2.8798 C   0  0  0  0  0  0  0  0  0  0  0  0
   12.9003   26.8508   -1.6195 N   0  0  0  0  0  0  0  0  0  0  0  0
   12.8730   25.7314   -0.8558 C   0  0  0  0  0  0  0  0  0  0  0  0
   12.3258   25.7542    0.4661 N   0  0  0  0  0  0  0  0  0  0  0  0
   13.3713   24.5641   -1.3474 C   0  0  0  0  0  0  0  0  0  0  0  0
   13.8917   24.5411   -2.6060 N   0  0  0  0  0  0  0  0  0  0  0  0
   12.9383   25.8110    1.3045 H   0  0  0  0  0  0  0  0  0  0  0  0
   11.3101   25.7133    0.5836 H   0  0  0  0  0  0  0  0  0  0  0  0
   15.5903   25.4247   -7.3204 C   0  0  0  0  0  0  0  0  0  0  0  0
   15.6241   24.3187   -6.5077 C   0  0  0  0  0  0  0  0  0  0  0  0
   15.0872   24.4043   -5.2468 C   0  0  0  0  0  0  0  0  0  0  0  0
   14.5059   25.5279   -4.7180 C   0  0  0  0  0  0  0  0  0  0  0  0
   14.4867   26.6401   -5.5722 C   0  0  0  0  0  0  0  0  0  0  0  0
   15.0162   26.5937   -6.8463 C   0  0  0  0  0  0  0  0  0  0  0  0
   17.5131   25.4935   -8.7740 C   0  0  0  0  0  0  0  0  0  0  0  0
   16.1285   25.3424   -8.5875 O   0  0  0  0  0  0  0  0  0  0  0  0
   12.1890   22.1122    1.3598 C   0  0  0  0  0  0  0  0  0  0  0  0
   13.0473   21.8115    2.3741 C   0  0  0  0  0  0  0  0  0  0  0  0
   12.8038   20.8096    3.2374 N   0  0  0  0  0  0  0  0  0  0  0  0
   11.7037   20.0538    3.1460 C   0  0  0  0  0  0  0  0  0  0  0  0
   10.8018   20.3081    2.1443 C   0  0  0  0  0  0  0  0  0  0  0  0
   11.0377   21.3421    1.2393 C   0  0  0  0  0  0  0  0  0  0  0  0
   10.1193   21.5673    0.1882 N   0  0  0  0  0  0  0  0  0  0  0  0
   10.3709   21.2822   -1.1957 C   0  0  0  0  0  0  0  0  0  0  0  0
    9.2164   20.4978   -1.7750 C   0  0  0  0  0  0  0  0  0  0  0  0
    8.3145   20.0063   -0.6881 C   0  0  0  0  0  0  0  0  0  0  0  0
    7.1309   19.3598   -1.2714 N   0  0  0  0  0  0  0  0  0  0  0  0
    7.7805   21.0828    0.2173 C   0  0  0  0  0  0  0  0  0  0  0  0
    8.8158   22.1254    0.5213 C   0  0  0  0  0  0  0  0  0  0  0  0
    6.4109   19.2398   -0.5524 H   0  0  0  0  0  0  0  0  0  0  0  0
    7.3904   18.4947   -1.7861 H   0  0  0  0  0  0  0  0  0  0  0  0
 20 21  1  0  0  0
 21 14  1  0  0  0
 14 15  2  0  0  0
 15 16  1  0  0  0
 16 17  2  0  0  0
 17  5  1  0  0  0
  5  6  2  0  0  0
  6  7  1  0  0  0
  7  8  2  0  0  0
  8  9  1  0  0  0
  8 10  1  0  0  0
 10  1  1  0  0  0
  1  2  2  0  0  0
  1  3  1  0  0  0
  3 22  1  0  0  0
 22 23  2  0  0  0
 23 24  1  0  0  0
 24 25  2  0  0  0
 25 26  1  0  0  0
 26 27  2  0  0  0
 27 28  1  0  0  0
 28 29  1  0  0  0
 29 30  1  0  0  0
 30 31  1  0  0  0
 31 32  1  0  0  0
 31 33  1  0  0  0
 33 34  1  0  0  0
 10 11  2  0  0  0
 17 18  1  0  0  0
 18 19  2  0  0  0
 19 14  1  0  0  0
 11  5  1  0  0  0
 27 22  1  0  0  0
 34 28  1  0  0  0
  9 12  1  0  0  0
  9 13  1  0  0  0
  3  4  1  0  0  0
 32 35  1  0  0  0
 32 36  1  0  0  0
M  END
> <minimizedAffinity>
0.70040

> <CNNscore>
0.4228256047

> <CNNaffinity>
7.4124464989

> <CNN_VS>
3.1341722012

> <CNNaffinity_variance>
1.2412248850

$$$$
[H]c1nc(N([H])[H])c(C(=O)N([H])c2c([H])nc([H])c([H])c2N2C([H])([H])C([H])([H])C([H])(N([H])[H])C([H])([H])C2([H])[H])nc1-c1c([H])c([H])c(OC([H])([H])[H])c([H])c1[H]


 36 39  0  0  0  0  0  0  0  0999 V2000
   16.8308   24.9607   -1.9824 C   0  0  0  0  0  0  0  0  0  0  0  0
   17.0812   26.1628   -1.7686 O   0  0  0  0  0  0  0  0  0  0  0  0
   17.0653   23.8718   -1.1313 N   0  0  0  0  0  0  0  0  0  0  0  0
   16.7501   22.9270   -1.5176 H   0  0  0  0  0  0  0  0  0  0  0  0
   15.7993   25.4532   -5.5188 C   0  0  0  0  0  0  0  0  0  0  0  0
   15.1107   24.2930   -5.7482 C   0  0  0  0  0  0  0  0  0  0  0  0
   14.9698   23.3419   -4.7747 N   0  0  0  0  0  0  0  0  0  0  0  0
   15.5227   23.5484   -3.5545 C   0  0  0  0  0  0  0  0  0  0  0  0
   15.3958   22.5749   -2.5136 N   0  0  0  0  0  0  0  0  0  0  0  0
   16.2110   24.6966   -3.3088 C   0  0  0  0  0  0  0  0  0  0  0  0
   16.3330   25.6236   -4.2993 N   0  0  0  0  0  0  0  0  0  0  0  0
   14.6933   22.6827   -1.7545 H   0  0  0  0  0  0  0  0  0  0  0  0
   16.0117   21.7577   -2.5206 H   0  0  0  0  0  0  0  0  0  0  0  0
   16.2949   28.5626   -8.4019 C   0  0  0  0  0  0  0  0  0  0  0  0
   16.2514   27.2530   -8.8118 C   0  0  0  0  0  0  0  0  0  0  0  0
   16.0919   26.2671   -7.8694 C   0  0  0  0  0  0  0  0  0  0  0  0
   15.9693   26.4849   -6.5213 C   0  0  0  0  0  0  0  0  0  0  0  0
   16.0174   27.8322   -6.1345 C   0  0  0  0  0  0  0  0  0  0  0  0
   16.1766   28.8517   -7.0517 C   0  0  0  0  0  0  0  0  0  0  0  0
   17.7020   29.7410   -9.9659 C   0  0  0  0  0  0  0  0  0  0  0  0
   16.4548   29.5555   -9.3456 O   0  0  0  0  0  0  0  0  0  0  0  0
   17.6333   23.8666    0.1592 C   0  0  0  0  0  0  0  0  0  0  0  0
   18.9688   24.0172    0.3821 C   0  0  0  0  0  0  0  0  0  0  0  0
   19.4821   24.0543    1.6244 N   0  0  0  0  0  0  0  0  0  0  0  0
   18.7070   23.9454    2.7095 C   0  0  0  0  0  0  0  0  0  0  0  0
   17.3536   23.7910    2.5489 C   0  0  0  0  0  0  0  0  0  0  0  0
   16.8033   23.7493    1.2685 C   0  0  0  0  0  0  0  0  0  0  0  0
   15.4118   23.5499    1.1173 N   0  0  0  0  0  0  0  0  0  0  0  0
   14.4813   24.5546    0.6880 C   0  0  0  0  0  0  0  0  0  0  0  0
   13.6073   24.0051   -0.4156 C   0  0  0  0  0  0  0  0  0  0  0  0
   14.1537   22.7097   -0.9256 C   0  0  0  0  0  0  0  0  0  0  0  0
   13.2267   22.1238   -1.9036 N   0  0  0  0  0  0  0  0  0  0  0  0
   14.3478   21.6537    0.1284 C   0  0  0  0  0  0  0  0  0  0  0  0
   14.8700   22.2302    1.4115 C   0  0  0  0  0  0  0  0  0  0  0  0
   13.4728   21.1434   -2.0714 H   0  0  0  0  0  0  0  0  0  0  0  0
   13.1572   22.7144   -2.7562 H   0  0  0  0  0  0  0  0  0  0  0  0
 20 21  1  0  0  0
 21 14  1  0  0  0
 14 15  2  0  0  0
 15 16  1  0  0  0
 16 17  2  0  0  0
 17  5  1  0  0  0
  5  6  2  0  0  0
  6  7  1  0  0  0
  7  8  2  0  0  0
  8  9  1  0  0  0
  8 10  1  0  0  0
 10  1  1  0  0  0
  1  2  2  0  0  0
  1  3  1  0  0  0
  3 22  1  0  0  0
 22 23  2  0  0  0
 23 24  1  0  0  0
 24 25  2  0  0  0
 25 26  1  0  0  0
 26 27  2  0  0  0
 27 28  1  0  0  0
 28 29  1  0  0  0
 29 30  1  0  0  0
 30 31  1  0  0  0
 31 32  1  0  0  0
 31 33  1  0  0  0
 33 34  1  0  0  0
 10 11  2  0  0  0
 17 18  1  0  0  0
 18 19  2  0  0  0
 19 14  1  0  0  0
 11  5  1  0  0  0
 27 22  1  0  0  0
 34 28  1  0  0  0
  9 12  1  0  0  0
  9 13  1  0  0  0
  3  4  1  0  0  0
 32 35  1  0  0  0
 32 36  1  0  0  0
M  END
> <minimizedAffinity>
31.38564

> <CNNscore>
0.4050659239

> <CNNaffinity>
7.1242952347

> <CNN_VS>
2.8858091831

> <CNNaffinity_variance>
0.7509427071

$$$$
[H]c1nc(N([H])[H])c(C(=O)N([H])c2c([H])nc([H])c([H])c2N2C([H])([H])C([H])([H])C([H])(N([H])[H])C([H])([H])C2([H])[H])nc1-c1c([H])c([H])c(OC([H])([H])[H])c([H])c1[H]


 36 39  0  0  0  0  0  0  0  0999 V2000
   13.2068   22.9188    0.3470 C   0  0  0  0  0  0  0  0  0  0  0  0
   14.3606   22.4475    0.3331 O   0  0  0  0  0  0  0  0  0  0  0  0
   12.0919   22.4354    1.0457 N   0  0  0  0  0  0  0  0  0  0  0  0
   11.2028   23.0150    0.9240 H   0  0  0  0  0  0  0  0  0  0  0  0
   13.5444   25.2685   -2.5127 C   0  0  0  0  0  0  0  0  0  0  0  0
   12.7852   26.3184   -2.0719 C   0  0  0  0  0  0  0  0  0  0  0  0
   12.1579   26.2852   -0.8564 N   0  0  0  0  0  0  0  0  0  0  0  0
   12.2877   25.1906   -0.0677 C   0  0  0  0  0  0  0  0  0  0  0  0
   11.6450   25.1213    1.2087 N   0  0  0  0  0  0  0  0  0  0  0  0
   13.0389   24.1371   -0.4902 C   0  0  0  0  0  0  0  0  0  0  0  0
   13.6506   24.2016   -1.7055 N   0  0  0  0  0  0  0  0  0  0  0  0
   12.1676   25.3057    2.0886 H   0  0  0  0  0  0  0  0  0  0  0  0
   10.6502   24.8849    1.2513 H   0  0  0  0  0  0  0  0  0  0  0  0
   15.5093   25.3456   -6.3021 C   0  0  0  0  0  0  0  0  0  0  0  0
   15.6938   24.2772   -5.4598 C   0  0  0  0  0  0  0  0  0  0  0  0
   15.0536   24.2710   -4.2450 C   0  0  0  0  0  0  0  0  0  0  0  0
   14.2257   25.2652   -3.7910 C   0  0  0  0  0  0  0  0  0  0  0  0
   14.0576   26.3420   -4.6738 C   0  0  0  0  0  0  0  0  0  0  0  0
   14.6839   26.3851   -5.9034 C   0  0  0  0  0  0  0  0  0  0  0  0
   16.5694   26.5724   -8.0870 C   0  0  0  0  0  0  0  0  0  0  0  0
   16.1506   25.3553   -7.5230 O   0  0  0  0  0  0  0  0  0  0  0  0
   12.0007   21.3131    1.8944 C   0  0  0  0  0  0  0  0  0  0  0  0
   12.9638   20.3519    1.9587 C   0  0  0  0  0  0  0  0  0  0  0  0
   12.8761   19.3139    2.8090 N   0  0  0  0  0  0  0  0  0  0  0  0
   11.8365   19.1699    3.6388 C   0  0  0  0  0  0  0  0  0  0  0  0
   10.8342   20.1061    3.6199 C   0  0  0  0  0  0  0  0  0  0  0  0
   10.9073   21.1887    2.7443 C   0  0  0  0  0  0  0  0  0  0  0  0
    9.8480   22.1243    2.7077 N   0  0  0  0  0  0  0  0  0  0  0  0
    8.5348   21.8565    2.1942 C   0  0  0  0  0  0  0  0  0  0  0  0
    7.4930   22.3112    3.1901 C   0  0  0  0  0  0  0  0  0  0  0  0
    8.1252   22.6244    4.5088 C   0  0  0  0  0  0  0  0  0  0  0  0
    7.1238   23.1881    5.4246 N   0  0  0  0  0  0  0  0  0  0  0  0
    9.2321   23.6415    4.4467 C   0  0  0  0  0  0  0  0  0  0  0  0
   10.0927   23.4614    3.2308 C   0  0  0  0  0  0  0  0  0  0  0  0
    7.5915   23.6191    6.2279 H   0  0  0  0  0  0  0  0  0  0  0  0
    6.3943   22.4865    5.6617 H   0  0  0  0  0  0  0  0  0  0  0  0
 20 21  1  0  0  0
 21 14  1  0  0  0
 14 15  2  0  0  0
 15 16  1  0  0  0
 16 17  2  0  0  0
 17  5  1  0  0  0
  5  6  2  0  0  0
  6  7  1  0  0  0
  7  8  2  0  0  0
  8  9  1  0  0  0
  8 10  1  0  0  0
 10  1  1  0  0  0
  1  2  2  0  0  0
  1  3  1  0  0  0
  3 22  1  0  0  0
 22 23  2  0  0  0
 23 24  1  0  0  0
 24 25  2  0  0  0
 25 26  1  0  0  0
 26 27  2  0  0  0
 27 28  1  0  0  0
 28 29  1  0  0  0
 29 30  1  0  0  0
 30 31  1  0  0  0
 31 32  1  0  0  0
 31 33  1  0  0  0
 33 34  1  0  0  0
 10 11  2  0  0  0
 17 18  1  0  0  0
 18 19  2  0  0  0
 19 14  1  0  0  0
 11  5  1  0  0  0
 27 22  1  0  0  0
 34 28  1  0  0  0
  9 12  1  0  0  0
  9 13  1  0  0  0
  3  4  1  0  0  0
 32 35  1  0  0  0
 32 36  1  0  0  0
M  END
> <minimizedAffinity>
-4.26467

> <CNNscore>
0.3620815873

> <CNNaffinity>
6.9182496071

> <CNN_VS>
2.5049707890

> <CNNaffinity_variance>
0.2821470797

$$$$
[H]c1nc(N([H])[H])c(C(=O)N([H])c2c([H])nc([H])c([H])c2N2C([H])([H])C([H])([H])C([H])(N([H])[H])C([H])([H])C2([H])[H])nc1-c1c([H])c([H])c(OC([H])([H])[H])c([H])c1[H]


 36 39  0  0  0  0  0  0  0  0999 V2000
   12.1524   23.6211   -0.5467 C   0  0  0  0  0  0  0  0  0  0  0  0
   12.1741   23.6257    0.6995 O   0  0  0  0  0  0  0  0  0  0  0  0
   11.6895   22.6033   -1.3921 N   0  0  0  0  0  0  0  0  0  0  0  0
   11.7499   22.8269   -2.4350 H   0  0  0  0  0  0  0  0  0  0  0  0
   13.7867   25.8699   -3.0134 C   0  0  0  0  0  0  0  0  0  0  0  0
   13.6960   27.0709   -2.3637 C   0  0  0  0  0  0  0  0  0  0  0  0
   13.1113   27.1736   -1.1310 N   0  0  0  0  0  0  0  0  0  0  0  0
   12.6090   26.0643   -0.5359 C   0  0  0  0  0  0  0  0  0  0  0  0
   11.9900   26.1350    0.7522 N   0  0  0  0  0  0  0  0  0  0  0  0
   12.6904   24.8614   -1.1676 C   0  0  0  0  0  0  0  0  0  0  0  0
   13.2788   24.7930   -2.3941 N   0  0  0  0  0  0  0  0  0  0  0  0
   12.5022   25.8609    1.6146 H   0  0  0  0  0  0  0  0  0  0  0  0
   11.0229   26.4626    0.8208 H   0  0  0  0  0  0  0  0  0  0  0  0
   15.5750   25.5207   -6.8743 C   0  0  0  0  0  0  0  0  0  0  0  0
   15.4746   24.4151   -6.0666 C   0  0  0  0  0  0  0  0  0  0  0  0
   14.8967   24.5476   -4.8281 C   0  0  0  0  0  0  0  0  0  0  0  0
   14.3994   25.7188   -4.3173 C   0  0  0  0  0  0  0  0  0  0  0  0
   14.5166   26.8293   -5.1659 C   0  0  0  0  0  0  0  0  0  0  0  0
   15.0912   26.7366   -6.4177 C   0  0  0  0  0  0  0  0  0  0  0  0
   17.2240   26.2261   -8.4862 C   0  0  0  0  0  0  0  0  0  0  0  0
   16.1547   25.3914   -8.1190 O   0  0  0  0  0  0  0  0  0  0  0  0
   11.1408   21.3510   -1.0474 C   0  0  0  0  0  0  0  0  0  0  0  0
    9.7999   21.1301   -0.9514 C   0  0  0  0  0  0  0  0  0  0  0  0
    9.2986   19.9155   -0.6654 N   0  0  0  0  0  0  0  0  0  0  0  0
   10.0914   18.8576   -0.4598 C   0  0  0  0  0  0  0  0  0  0  0  0
   11.4511   19.0179   -0.5424 C   0  0  0  0  0  0  0  0  0  0  0  0
   11.9893   20.2699   -0.8369 C   0  0  0  0  0  0  0  0  0  0  0  0
   13.3936   20.4290   -0.8796 N   0  0  0  0  0  0  0  0  0  0  0  0
   14.1060   21.1570   -1.8907 C   0  0  0  0  0  0  0  0  0  0  0  0
   15.0803   22.1132   -1.2425 C   0  0  0  0  0  0  0  0  0  0  0  0
   14.8092   22.2293    0.2236 C   0  0  0  0  0  0  0  0  0  0  0  0
   15.8418   23.0575    0.8615 N   0  0  0  0  0  0  0  0  0  0  0  0
   14.8241   20.9222    0.9686 C   0  0  0  0  0  0  0  0  0  0  0  0
   14.1876   19.8176    0.1773 C   0  0  0  0  0  0  0  0  0  0  0  0
   15.7991   22.9435    1.8788 H   0  0  0  0  0  0  0  0  0  0  0  0
   15.7970   24.0398    0.5243 H   0  0  0  0  0  0  0  0  0  0  0  0
 20 21  1  0  0  0
 21 14  1  0  0  0
 14 15  2  0  0  0
 15 16  1  0  0  0
 16 17  2  0  0  0
 17  5  1  0  0  0
  5  6  2  0  0  0
  6  7  1  0  0  0
  7  8  2  0  0  0
  8  9  1  0  0  0
  8 10  1  0  0  0
 10  1  1  0  0  0
  1  2  2  0  0  0
  1  3  1  0  0  0
  3 22  1  0  0  0
 22 23  2  0  0  0
 23 24  1  0  0  0
 24 25  2  0  0  0
 25 26  1  0  0  0
 26 27  2  0  0  0
 27 28  1  0  0  0
 28 29  1  0  0  0
 29 30  1  0  0  0
 30 31  1  0  0  0
 31 32  1  0  0  0
 31 33  1  0  0  0
 33 34  1  0  0  0
 10 11  2  0  0  0
 17 18  1  0  0  0
 18 19  2  0  0  0
 19 14  1  0  0  0
 11  5  1  0  0  0
 27 22  1  0  0  0
 34 28  1  0  0  0
  9 12  1  0  0  0
  9 13  1  0  0  0
  3  4  1  0  0  0
 32 35  1  0  0  0
 32 36  1  0  0  0
M  END
> <minimizedAffinity>
5.50029

> <CNNscore>
0.3379733860

> <CNNaffinity>
7.2660093307

> <CNN_VS>
2.4557178020

> <CNNaffinity_variance>
0.7188171148

$$$$
[H]c1nc(N([H])[H])c(C(=O)N([H])c2c([H])nc([H])c([H])c2N2C([H])([H])C([H])([H])C([H])(N([H])[H])C([H])([H])C2([H])[H])nc1-c1c([H])c([H])c(OC([H])([H])[H])c([H])c1[H]


 36 39  0  0  0  0  0  0  0  0999 V2000
   11.8377   22.8759    1.5302 C   0  0  0  0  0  0  0  0  0  0  0  0
   11.8972   22.1252    2.5234 O   0  0  0  0  0  0  0  0  0  0  0  0
   10.9148   23.9022    1.2857 N   0  0  0  0  0  0  0  0  0  0  0  0
   11.0678   24.4318    0.3706 H   0  0  0  0  0  0  0  0  0  0  0  0
   13.9755   23.3224   -1.4769 C   0  0  0  0  0  0  0  0  0  0  0  0
   14.7756   22.2156   -1.3884 C   0  0  0  0  0  0  0  0  0  0  0  0
   14.6396   21.3161   -0.3664 N   0  0  0  0  0  0  0  0  0  0  0  0
   13.6933   21.5211    0.5820 C   0  0  0  0  0  0  0  0  0  0  0  0
   13.5239   20.6017    1.6651 N   0  0  0  0  0  0  0  0  0  0  0  0
   12.8887   22.6166    0.5097 C   0  0  0  0  0  0  0  0  0  0  0  0
   13.0497   23.4930   -0.5205 N   0  0  0  0  0  0  0  0  0  0  0  0
   12.7680   19.8877    1.6558 H   0  0  0  0  0  0  0  0  0  0  0  0
   14.1622   20.6520    2.4634 H   0  0  0  0  0  0  0  0  0  0  0  0
   14.3756   26.1404   -4.6589 C   0  0  0  0  0  0  0  0  0  0  0  0
   13.4476   26.3553   -3.6701 C   0  0  0  0  0  0  0  0  0  0  0  0
   13.3337   25.4372   -2.6554 C   0  0  0  0  0  0  0  0  0  0  0  0
   14.0862   24.2966   -2.5432 C   0  0  0  0  0  0  0  0  0  0  0  0
   15.0246   24.1057   -3.5679 C   0  0  0  0  0  0  0  0  0  0  0  0
   15.1693   25.0055   -4.6049 C   0  0  0  0  0  0  0  0  0  0  0  0
   15.6375   27.0629   -6.4951 C   0  0  0  0  0  0  0  0  0  0  0  0
   14.4930   27.0604   -5.6796 O   0  0  0  0  0  0  0  0  0  0  0  0
    9.8412   24.3342    2.0913 C   0  0  0  0  0  0  0  0  0  0  0  0
   10.0036   25.1598    3.1627 C   0  0  0  0  0  0  0  0  0  0  0  0
    8.9590   25.5950    3.8891 N   0  0  0  0  0  0  0  0  0  0  0  0
    7.7025   25.2398    3.5975 C   0  0  0  0  0  0  0  0  0  0  0  0
    7.4755   24.4092    2.5298 C   0  0  0  0  0  0  0  0  0  0  0  0
    8.5461   23.9471    1.7656 C   0  0  0  0  0  0  0  0  0  0  0  0
    8.3008   23.0599    0.6924 N   0  0  0  0  0  0  0  0  0  0  0  0
    8.9535   23.1173   -0.5845 C   0  0  0  0  0  0  0  0  0  0  0  0
    9.4668   21.7462   -0.9592 C   0  0  0  0  0  0  0  0  0  0  0  0
    9.4070   20.8216    0.2147 C   0  0  0  0  0  0  0  0  0  0  0  0
    9.7847   19.4624   -0.1966 N   0  0  0  0  0  0  0  0  0  0  0  0
    8.0445   20.6897    0.8391 C   0  0  0  0  0  0  0  0  0  0  0  0
    7.3185   22.0019    0.8853 C   0  0  0  0  0  0  0  0  0  0  0  0
    9.5180   18.7925    0.5314 H   0  0  0  0  0  0  0  0  0  0  0  0
   10.7807   19.4220   -0.4913 H   0  0  0  0  0  0  0  0  0  0  0  0
 20 21  1  0  0  0
 21 14  1  0  0  0
 14 15  2  0  0  0
 15 16  1  0  0  0
 16 17  2  0  0  0
 17  5  1  0  0  0
  5  6  2  0  0  0
  6  7  1  0  0  0
  7  8  2  0  0  0
  8  9  1  0  0  0
  8 10  1  0  0  0
 10  1  1  0  0  0
  1  2  2  0  0  0
  1  3  1  0  0  0
  3 22  1  0  0  0
 22 23  2  0  0  0
 23 24  1  0  0  0
 24 25  2  0  0  0
 25 26  1  0  0  0
 26 27  2  0  0  0
 27 28  1  0  0  0
 28 29  1  0  0  0
 29 30  1  0  0  0
 30 31  1  0  0  0
 31 32  1  0  0  0
 31 33  1  0  0  0
 33 34  1  0  0  0
 10 11  2  0  0  0
 17 18  1  0  0  0
 18 19  2  0  0  0
 19 14  1  0  0  0
 11  5  1  0  0  0
 27 22  1  0  0  0
 34 28  1  0  0  0
  9 12  1  0  0  0
  9 13  1  0  0  0
  3  4  1  0  0  0
 32 35  1  0  0  0
 32 36  1  0  0  0
M  END
> <minimizedAffinity>
-7.80905

> <CNNscore>
0.3284836709

> <CNNaffinity>
7.2479081154

> <CNN_VS>
2.3808195591

> <CNNaffinity_variance>
0.0907000154

$$$$
[H]c1c([H])c(N([H])C(=O)N([H])[C@]([H])(C(=O)N([H])[C@]([H])(C(=O)N([H])[H])C([H])([H])C([H])([H])C([H])([H])[H])C([H])([H])C([H])(C([H])([H])[H])C([H])([H])[H])c([H])c([H])c1Br


 31 31  0  0  0  0  0  0  0  0999 V2000
   13.2325   26.6043   -3.0870 C   0  0  0  0  0  0  0  0  0  0  0  0
   12.2373   25.5750   -2.8116 N   0  0  0  0  0  0  0  0  0  0  0  0
   11.9906   25.1852   -1.4747 C   0  0  0  0  0  0  0  0  0  0  0  0
   12.6327   25.7285   -0.5173 O   0  0  0  0  0  0  0  0  0  0  0  0
   11.0417   24.2017   -1.1844 N   0  0  0  0  0  0  0  0  0  0  0  0
   11.7319   25.1488   -3.5826 H   0  0  0  0  0  0  0  0  0  0  0  0
   10.5514   23.7907   -2.0457 H   0  0  0  0  0  0  0  0  0  0  0  0
   10.6540   23.6974    0.0769 C   0  0  0  0  0  0  0  0  0  0  0  0
    9.4476   23.9023    0.6883 C   0  0  0  0  0  0  0  0  0  0  0  0
    9.1547   23.3770    1.9601 C   0  0  0  0  0  0  0  0  0  0  0  0
   10.0734   22.6282    2.6507 C   0  0  0  0  0  0  0  0  0  0  0  0
    9.6736   21.9151    4.3793 Br  0  0  0  0  0  0  0  0  0  0  0  0
   11.2872   22.4141    2.0500 C   0  0  0  0  0  0  0  0  0  0  0  0
   11.5742   22.9268    0.8085 C   0  0  0  0  0  0  0  0  0  0  0  0
   11.8509   28.6531   -3.5111 N   0  0  0  0  0  0  0  0  0  0  0  0
   12.6145   27.5487   -4.0177 C   0  0  0  0  0  0  0  0  0  0  0  0
   12.7400   27.3939   -5.2776 O   0  0  0  0  0  0  0  0  0  0  0  0
   11.7788   28.7542   -2.4802 H   0  0  0  0  0  0  0  0  0  0  0  0
   11.2058   29.5897   -4.4039 C   0  0  0  0  0  0  0  0  0  0  0  0
   11.4619   30.9733   -3.9355 C   0  0  0  0  0  0  0  0  0  0  0  0
   11.6279   31.2120   -2.5283 N   0  0  0  0  0  0  0  0  0  0  0  0
   11.5446   31.9572   -4.6838 O   0  0  0  0  0  0  0  0  0  0  0  0
   11.1633   30.5579   -1.8768 H   0  0  0  0  0  0  0  0  0  0  0  0
   12.1946   32.0131   -2.1635 H   0  0  0  0  0  0  0  0  0  0  0  0
    9.7256   29.3550   -4.4335 C   0  0  0  0  0  0  0  0  0  0  0  0
    7.6982   28.7403   -5.8329 C   0  0  0  0  0  0  0  0  0  0  0  0
    9.0349   29.3692   -5.7306 C   0  0  0  0  0  0  0  0  0  0  0  0
   14.5401   26.0204   -3.4277 C   0  0  0  0  0  0  0  0  0  0  0  0
   15.0516   24.8410   -2.7282 C   0  0  0  0  0  0  0  0  0  0  0  0
   16.4351   25.2105   -2.1089 C   0  0  0  0  0  0  0  0  0  0  0  0
   15.3701   23.6433   -3.5789 C   0  0  0  0  0  0  0  0  0  0  0  0
 26 27  1  0  0  0
 27 25  1  0  0  0
 25 19  1  0  0  0
 19 15  1  0  0  0
 15 16  1  0  0  0
 16 17  2  0  0  0
 16  1  1  0  0  0
  1 28  1  0  0  0
 28 29  1  0  0  0
 29 30  1  0  0  0
 29 31  1  0  0  0
  1  2  1  0  0  0
  2  3  1  0  0  0
  3  4  2  0  0  0
  3  5  1  0  0  0
  5  8  1  0  0  0
  8  9  2  0  0  0
  9 10  1  0  0  0
 10 11  2  0  0  0
 11 12  1  0  0  0
 11 13  1  0  0  0
 13 14  2  0  0  0
 19 20  1  0  0  0
 20 21  1  0  0  0
 20 22  2  0  0  0
 14  8  1  0  0  0
 15 18  1  0  0  0
  2  6  1  0  0  0
  5  7  1  0  0  0
 21 23  1  0  0  0
 21 24  1  0  0  0
M  END
> <minimizedAffinity>
4.35403

> <CNNscore>
0.7054685950

> <CNNaffinity>
6.7269492149

> <CNN_VS>
4.7456512451

> <CNNaffinity_variance>
0.4925990999

$$$$
[H]c1c([H])c(N([H])C(=O)N([H])[C@]([H])(C(=O)N([H])[C@]([H])(C(=O)N([H])[H])C([H])([H])C([H])([H])C([H])([H])[H])C([H])([H])C([H])(C([H])([H])[H])C([H])([H])[H])c([H])c([H])c1Br


 31 31  0  0  0  0  0  0  0  0999 V2000
   12.9354   27.2759   -3.6230 C   0  0  0  0  0  0  0  0  0  0  0  0
   12.2478   26.9521   -2.3788 N   0  0  0  0  0  0  0  0  0  0  0  0
   12.3288   25.6389   -1.8600 C   0  0  0  0  0  0  0  0  0  0  0  0
   12.9970   24.7446   -2.4746 O   0  0  0  0  0  0  0  0  0  0  0  0
   11.6794   25.3035   -0.6693 N   0  0  0  0  0  0  0  0  0  0  0  0
   11.7179   27.6729   -1.8979 H   0  0  0  0  0  0  0  0  0  0  0  0
   11.1340   26.1104   -0.2192 H   0  0  0  0  0  0  0  0  0  0  0  0
   11.6582   24.0608    0.0020 C   0  0  0  0  0  0  0  0  0  0  0  0
   10.5662   23.4826    0.5889 C   0  0  0  0  0  0  0  0  0  0  0  0
   10.6424   22.2468    1.2569 C   0  0  0  0  0  0  0  0  0  0  0  0
   11.8256   21.5591    1.3503 C   0  0  0  0  0  0  0  0  0  0  0  0
   11.9274   19.8796    2.2587 Br  0  0  0  0  0  0  0  0  0  0  0  0
   12.9289   22.1262    0.7663 C   0  0  0  0  0  0  0  0  0  0  0  0
   12.8555   23.3329    0.1141 C   0  0  0  0  0  0  0  0  0  0  0  0
   11.2271   29.0524   -4.0834 N   0  0  0  0  0  0  0  0  0  0  0  0
   11.9406   27.8819   -4.5080 C   0  0  0  0  0  0  0  0  0  0  0  0
   11.6939   27.3730   -5.6514 O   0  0  0  0  0  0  0  0  0  0  0  0
   11.4611   29.4455   -3.1513 H   0  0  0  0  0  0  0  0  0  0  0  0
   10.2194   29.6608   -4.9230 C   0  0  0  0  0  0  0  0  0  0  0  0
   10.3934   31.1335   -4.9132 C   0  0  0  0  0  0  0  0  0  0  0  0
    9.5806   31.9361   -5.7849 N   0  0  0  0  0  0  0  0  0  0  0  0
   11.2045   31.7336   -4.1942 O   0  0  0  0  0  0  0  0  0  0  0  0
    9.2349   31.4947   -6.6531 H   0  0  0  0  0  0  0  0  0  0  0  0
    9.3402   32.9303   -5.5616 H   0  0  0  0  0  0  0  0  0  0  0  0
    8.8461   29.3325   -4.4196 C   0  0  0  0  0  0  0  0  0  0  0  0
    6.7808   30.0247   -3.1150 C   0  0  0  0  0  0  0  0  0  0  0  0
    8.1904   30.2697   -3.4968 C   0  0  0  0  0  0  0  0  0  0  0  0
   13.7309   26.1402   -4.1171 C   0  0  0  0  0  0  0  0  0  0  0  0
   15.1436   26.2963   -4.4664 C   0  0  0  0  0  0  0  0  0  0  0  0
   15.3431   25.7597   -5.9178 C   0  0  0  0  0  0  0  0  0  0  0  0
   16.1248   25.4851   -3.6673 C   0  0  0  0  0  0  0  0  0  0  0  0
 26 27  1  0  0  0
 27 25  1  0  0  0
 25 19  1  0  0  0
 19 15  1  0  0  0
 15 16  1  0  0  0
 16 17  2  0  0  0
 16  1  1  0  0  0
  1 28  1  0  0  0
 28 29  1  0  0  0
 29 30  1  0  0  0
 29 31  1  0  0  0
  1  2  1  0  0  0
  2  3  1  0  0  0
  3  4  2  0  0  0
  3  5  1  0  0  0
  5  8  1  0  0  0
  8  9  2  0  0  0
  9 10  1  0  0  0
 10 11  2  0  0  0
 11 12  1  0  0  0
 11 13  1  0  0  0
 13 14  2  0  0  0
 19 20  1  0  0  0
 20 21  1  0  0  0
 20 22  2  0  0  0
 14  8  1  0  0  0
 15 18  1  0  0  0
  2  6  1  0  0  0
  5  7  1  0  0  0
 21 23  1  0  0  0
 21 24  1  0  0  0
M  END
> <minimizedAffinity>
8.40453

> <CNNscore>
0.6278058290

> <CNNaffinity>
6.4624900818

> <CNN_VS>
4.0571889877

> <CNNaffinity_variance>
0.6671226025

$$$$
[H]c1c([H])c(N([H])C(=O)N([H])[C@]([H])(C(=O)N([H])[C@]([H])(C(=O)N([H])[H])C([H])([H])C([H])([H])C([H])([H])[H])C([H])([H])C([H])(C([H])([H])[H])C([H])([H])[H])c([H])c([H])c1Br


 31 31  0  0  0  0  0  0  0  0999 V2000
   12.0821   27.4767   -3.9201 C   0  0  0  0  0  0  0  0  0  0  0  0
   13.2732   27.8968   -4.6484 N   0  0  0  0  0  0  0  0  0  0  0  0
   14.5476   27.7141   -4.0629 C   0  0  0  0  0  0  0  0  0  0  0  0
   14.6552   27.1868   -2.9078 O   0  0  0  0  0  0  0  0  0  0  0  0
   15.7044   28.1077   -4.7405 N   0  0  0  0  0  0  0  0  0  0  0  0
   13.1753   28.3162   -5.5682 H   0  0  0  0  0  0  0  0  0  0  0  0
   15.5265   28.5484   -5.7024 H   0  0  0  0  0  0  0  0  0  0  0  0
   17.0497   27.9938   -4.3251 C   0  0  0  0  0  0  0  0  0  0  0  0
   18.1087   28.6986   -4.8280 C   0  0  0  0  0  0  0  0  0  0  0  0
   19.4235   28.5041   -4.3667 C   0  0  0  0  0  0  0  0  0  0  0  0
   19.7056   27.5913   -3.3825 C   0  0  0  0  0  0  0  0  0  0  0  0
   21.4933   27.3281   -2.7568 Br  0  0  0  0  0  0  0  0  0  0  0  0
   18.6538   26.8776   -2.8683 C   0  0  0  0  0  0  0  0  0  0  0  0
   17.3699   27.0666   -3.3183 C   0  0  0  0  0  0  0  0  0  0  0  0
   11.7615   25.7123   -2.1678 N   0  0  0  0  0  0  0  0  0  0  0  0
   12.3560   26.1357   -3.4034 C   0  0  0  0  0  0  0  0  0  0  0  0
   13.1275   25.3417   -4.0369 O   0  0  0  0  0  0  0  0  0  0  0  0
   11.1305   26.3807   -1.6847 H   0  0  0  0  0  0  0  0  0  0  0  0
   12.0321   24.4033   -1.6165 C   0  0  0  0  0  0  0  0  0  0  0  0
   10.9861   24.0616   -0.6222 C   0  0  0  0  0  0  0  0  0  0  0  0
    9.6691   23.7228   -1.0862 N   0  0  0  0  0  0  0  0  0  0  0  0
   11.1690   24.0470    0.6030 O   0  0  0  0  0  0  0  0  0  0  0  0
    9.3664   24.1207   -1.9907 H   0  0  0  0  0  0  0  0  0  0  0  0
    9.0307   23.0986   -0.5396 H   0  0  0  0  0  0  0  0  0  0  0  0
   13.3689   24.3834   -0.9388 C   0  0  0  0  0  0  0  0  0  0  0  0
   14.4925   22.5005    0.3415 C   0  0  0  0  0  0  0  0  0  0  0  0
   14.1471   23.1367   -0.9503 C   0  0  0  0  0  0  0  0  0  0  0  0
   10.8567   27.7017   -4.7040 C   0  0  0  0  0  0  0  0  0  0  0  0
   10.0320   28.8935   -4.5005 C   0  0  0  0  0  0  0  0  0  0  0  0
    9.2713   29.1859   -5.8309 C   0  0  0  0  0  0  0  0  0  0  0  0
   10.7658   30.1793   -4.2400 C   0  0  0  0  0  0  0  0  0  0  0  0
 26 27  1  0  0  0
 27 25  1  0  0  0
 25 19  1  0  0  0
 19 15  1  0  0  0
 15 16  1  0  0  0
 16 17  2  0  0  0
 16  1  1  0  0  0
  1 28  1  0  0  0
 28 29  1  0  0  0
 29 30  1  0  0  0
 29 31  1  0  0  0
  1  2  1  0  0  0
  2  3  1  0  0  0
  3  4  2  0  0  0
  3  5  1  0  0  0
  5  8  1  0  0  0
  8  9  2  0  0  0
  9 10  1  0  0  0
 10 11  2  0  0  0
 11 12  1  0  0  0
 11 13  1  0  0  0
 13 14  2  0  0  0
 19 20  1  0  0  0
 20 21  1  0  0  0
 20 22  2  0  0  0
 14  8  1  0  0  0
 15 18  1  0  0  0
  2  6  1  0  0  0
  5  7  1  0  0  0
 21 23  1  0  0  0
 21 24  1  0  0  0
M  END
> <minimizedAffinity>
19.76300

> <CNNscore>
0.5358791351

> <CNNaffinity>
6.3185491562

> <CNN_VS>
3.3859786987

> <CNNaffinity_variance>
1.1503316164

$$$$
[H]c1c([H])c(N([H])C(=O)N([H])[C@]([H])(C(=O)N([H])[C@]([H])(C(=O)N([H])[H])C([H])([H])C([H])([H])C([H])([H])[H])C([H])([H])C([H])(C([H])([H])[H])C([H])([H])[H])c([H])c([H])c1Br


 31 31  0  0  0  0  0  0  0  0999 V2000
   14.4285   27.0046   -4.9460 C   0  0  0  0  0  0  0  0  0  0  0  0
   15.7079   26.7714   -4.2868 N   0  0  0  0  0  0  0  0  0  0  0  0
   15.7467   26.0224   -3.0877 C   0  0  0  0  0  0  0  0  0  0  0  0
   14.6725   25.5549   -2.5863 O   0  0  0  0  0  0  0  0  0  0  0  0
   16.9600   25.7846   -2.4370 N   0  0  0  0  0  0  0  0  0  0  0  0
   16.5575   27.1492   -4.6954 H   0  0  0  0  0  0  0  0  0  0  0  0
   17.8145   26.2177   -2.9199 H   0  0  0  0  0  0  0  0  0  0  0  0
   17.1942   25.0550   -1.2502 C   0  0  0  0  0  0  0  0  0  0  0  0
   18.4175   24.6888   -0.7599 C   0  0  0  0  0  0  0  0  0  0  0  0
   18.5557   23.9413    0.4240 C   0  0  0  0  0  0  0  0  0  0  0  0
   17.4603   23.5429    1.1471 C   0  0  0  0  0  0  0  0  0  0  0  0
   17.6500   22.5268    2.7558 Br  0  0  0  0  0  0  0  0  0  0  0  0
   16.2271   23.9031    0.6680 C   0  0  0  0  0  0  0  0  0  0  0  0
   16.0913   24.6327   -0.4879 C   0  0  0  0  0  0  0  0  0  0  0  0
   13.6169   25.0245   -3.6397 N   0  0  0  0  0  0  0  0  0  0  0  0
   13.4066   26.3599   -4.1214 C   0  0  0  0  0  0  0  0  0  0  0  0
   12.3244   26.9709   -3.8342 O   0  0  0  0  0  0  0  0  0  0  0  0
   14.5137   24.5617   -3.8839 H   0  0  0  0  0  0  0  0  0  0  0  0
   12.6161   24.3491   -2.8442 C   0  0  0  0  0  0  0  0  0  0  0  0
   12.1999   25.2290   -1.7253 C   0  0  0  0  0  0  0  0  0  0  0  0
   10.8032   25.5161   -1.5482 N   0  0  0  0  0  0  0  0  0  0  0  0
   12.9843   25.7445   -0.9166 O   0  0  0  0  0  0  0  0  0  0  0  0
   10.2002   25.4805   -2.3868 H   0  0  0  0  0  0  0  0  0  0  0  0
   10.3989   25.7535   -0.6122 H   0  0  0  0  0  0  0  0  0  0  0  0
   13.1652   23.0741   -2.2787 C   0  0  0  0  0  0  0  0  0  0  0  0
   12.4216   22.1358   -0.0396 C   0  0  0  0  0  0  0  0  0  0  0  0
   12.2681   22.1990   -1.5111 C   0  0  0  0  0  0  0  0  0  0  0  0
   14.4899   26.6873   -6.3820 C   0  0  0  0  0  0  0  0  0  0  0  0
   15.7075   26.1493   -6.9905 C   0  0  0  0  0  0  0  0  0  0  0  0
   16.1165   24.8688   -6.1986 C   0  0  0  0  0  0  0  0  0  0  0  0
   16.9369   27.0097   -6.9021 C   0  0  0  0  0  0  0  0  0  0  0  0
 26 27  1  0  0  0
 27 25  1  0  0  0
 25 19  1  0  0  0
 19 15  1  0  0  0
 15 16  1  0  0  0
 16 17  2  0  0  0
 16  1  1  0  0  0
  1 28  1  0  0  0
 28 29  1  0  0  0
 29 30  1  0  0  0
 29 31  1  0  0  0
  1  2  1  0  0  0
  2  3  1  0  0  0
  3  4  2  0  0  0
  3  5  1  0  0  0
  5  8  1  0  0  0
  8  9  2  0  0  0
  9 10  1  0  0  0
 10 11  2  0  0  0
 11 12  1  0  0  0
 11 13  1  0  0  0
 13 14  2  0  0  0
 19 20  1  0  0  0
 20 21  1  0  0  0
 20 22  2  0  0  0
 14  8  1  0  0  0
 15 18  1  0  0  0
  2  6  1  0  0  0
  5  7  1  0  0  0
 21 23  1  0  0  0
 21 24  1  0  0  0
M  END
> <minimizedAffinity>
9.34968

> <CNNscore>
0.5086950064

> <CNNaffinity>
6.7135210037

> <CNN_VS>
3.4151346684

> <CNNaffinity_variance>
0.7135119438

$$$$
[H]c1c([H])c(N([H])C(=O)N([H])[C@]([H])(C(=O)N([H])[C@]([H])(C(=O)N([H])[H])C([H])([H])C([H])([H])C([H])([H])[H])C([H])([H])C([H])(C([H])([H])[H])C([H])([H])[H])c([H])c([H])c1Br


 31 31  0  0  0  0  0  0  0  0999 V2000
   10.4775   24.4264    0.8215 C   0  0  0  0  0  0  0  0  0  0  0  0
   10.9624   23.0581    0.6861 N   0  0  0  0  0  0  0  0  0  0  0  0
   12.3545   22.8150    0.6324 C   0  0  0  0  0  0  0  0  0  0  0  0
   13.1798   23.7836    0.7014 O   0  0  0  0  0  0  0  0  0  0  0  0
   12.8445   21.5129    0.5033 N   0  0  0  0  0  0  0  0  0  0  0  0
   10.2954   22.2941    0.6317 H   0  0  0  0  0  0  0  0  0  0  0  0
   12.0852   20.7572    0.4451 H   0  0  0  0  0  0  0  0  0  0  0  0
   14.1878   21.0793    0.4470 C   0  0  0  0  0  0  0  0  0  0  0  0
   14.6258   19.8817   -0.0480 C   0  0  0  0  0  0  0  0  0  0  0  0
   15.9863   19.5236   -0.0447 C   0  0  0  0  0  0  0  0  0  0  0  0
   16.9440   20.3668    0.4586 C   0  0  0  0  0  0  0  0  0  0  0  0
   18.7927   19.8784    0.4624 Br  0  0  0  0  0  0  0  0  0  0  0  0
   16.5197   21.5713    0.9579 C   0  0  0  0  0  0  0  0  0  0  0  0
   15.1916   21.9217    0.9554 C   0  0  0  0  0  0  0  0  0  0  0  0
   11.9503   25.1804   -1.0623 N   0  0  0  0  0  0  0  0  0  0  0  0
   11.5319   25.2993    0.3053 C   0  0  0  0  0  0  0  0  0  0  0  0
   12.0906   26.1597    1.0633 O   0  0  0  0  0  0  0  0  0  0  0  0
   11.4663   24.4768   -1.6530 H   0  0  0  0  0  0  0  0  0  0  0  0
   13.0072   26.0098   -1.5969 C   0  0  0  0  0  0  0  0  0  0  0  0
   13.0823   25.8258   -3.0665 C   0  0  0  0  0  0  0  0  0  0  0  0
   12.7692   26.9358   -3.9236 N   0  0  0  0  0  0  0  0  0  0  0  0
   13.4014   24.7641   -3.6195 O   0  0  0  0  0  0  0  0  0  0  0  0
   12.1196   27.6512   -3.5573 H   0  0  0  0  0  0  0  0  0  0  0  0
   13.1761   27.0287   -4.8837 H   0  0  0  0  0  0  0  0  0  0  0  0
   14.3273   25.6342   -0.9941 C   0  0  0  0  0  0  0  0  0  0  0  0
   16.7881   25.0851   -1.2932 C   0  0  0  0  0  0  0  0  0  0  0  0
   15.4665   25.3870   -1.8891 C   0  0  0  0  0  0  0  0  0  0  0  0
    9.9359   24.6818    2.1661 C   0  0  0  0  0  0  0  0  0  0  0  0
    8.6896   24.0592    2.6147 C   0  0  0  0  0  0  0  0  0  0  0  0
    8.0051   23.4039    1.3752 C   0  0  0  0  0  0  0  0  0  0  0  0
    7.6280   24.9862    3.1374 C   0  0  0  0  0  0  0  0  0  0  0  0
 26 27  1  0  0  0
 27 25  1  0  0  0
 25 19  1  0  0  0
 19 15  1  0  0  0
 15 16  1  0  0  0
 16 17  2  0  0  0
 16  1  1  0  0  0
  1 28  1  0  0  0
 28 29  1  0  0  0
 29 30  1  0  0  0
 29 31  1  0  0  0
  1  2  1  0  0  0
  2  3  1  0  0  0
  3  4  2  0  0  0
  3  5  1  0  0  0
  5  8  1  0  0  0
  8  9  2  0  0  0
  9 10  1  0  0  0
 10 11  2  0  0  0
 11 12  1  0  0  0
 11 13  1  0  0  0
 13 14  2  0  0  0
 19 20  1  0  0  0
 20 21  1  0  0  0
 20 22  2  0  0  0
 14  8  1  0  0  0
 15 18  1  0  0  0
  2  6  1  0  0  0
  5  7  1  0  0  0
 21 23  1  0  0  0
 21 24  1  0  0  0
M  END
> <minimizedAffinity>
6.53316

> <CNNscore>
0.4558224082

> <CNNaffinity>
6.6209502220

> <CNN_VS>
3.0179774761

> <CNNaffinity_variance>
0.8903585672

$$$$
[H]c1c([H])c(N([H])C(=O)N([H])[C@]([H])(C(=O)N([H])[C@]([H])(C(=O)N([H])[H])C([H])([H])C([H])([H])C([H])([H])[H])C([H])([H])C([H])(C([H])([H])[H])C([H])([H])[H])c([H])c([H])c1Br


 31 31  0  0  0  0  0  0  0  0999 V2000
   10.6695   23.7815    0.3341 C   0  0  0  0  0  0  0  0  0  0  0  0
   11.3290   22.5776   -0.1574 N   0  0  0  0  0  0  0  0  0  0  0  0
   12.2094   22.6672   -1.2605 C   0  0  0  0  0  0  0  0  0  0  0  0
   12.4253   23.7909   -1.8217 O   0  0  0  0  0  0  0  0  0  0  0  0
   12.8540   21.5284   -1.7501 N   0  0  0  0  0  0  0  0  0  0  0  0
   11.1491   21.6875    0.2975 H   0  0  0  0  0  0  0  0  0  0  0  0
   12.6131   20.6232   -1.2271 H   0  0  0  0  0  0  0  0  0  0  0  0
   13.7681   21.4267   -2.8224 C   0  0  0  0  0  0  0  0  0  0  0  0
   13.7557   20.4715   -3.8014 C   0  0  0  0  0  0  0  0  0  0  0  0
   14.7222   20.4348   -4.8231 C   0  0  0  0  0  0  0  0  0  0  0  0
   15.7294   21.3639   -4.8849 C   0  0  0  0  0  0  0  0  0  0  0  0
   17.0423   21.3125   -6.2741 Br  0  0  0  0  0  0  0  0  0  0  0  0
   15.7543   22.3281   -3.9103 C   0  0  0  0  0  0  0  0  0  0  0  0
   14.8113   22.3645   -2.9123 C   0  0  0  0  0  0  0  0  0  0  0  0
   11.9793   25.1536   -1.3055 N   0  0  0  0  0  0  0  0  0  0  0  0
   11.5669   24.9003    0.0455 C   0  0  0  0  0  0  0  0  0  0  0  0
   11.9948   25.6478    0.9864 O   0  0  0  0  0  0  0  0  0  0  0  0
   11.6030   24.5317   -2.0469 H   0  0  0  0  0  0  0  0  0  0  0  0
   12.8856   26.2350   -1.6214 C   0  0  0  0  0  0  0  0  0  0  0  0
   12.9912   26.3750   -3.0940 C   0  0  0  0  0  0  0  0  0  0  0  0
   12.4435   27.5452   -3.7228 N   0  0  0  0  0  0  0  0  0  0  0  0
   13.5277   25.5402   -3.8357 O   0  0  0  0  0  0  0  0  0  0  0  0
   11.6575   28.0175   -3.2462 H   0  0  0  0  0  0  0  0  0  0  0  0
   12.8164   27.9158   -4.6281 H   0  0  0  0  0  0  0  0  0  0  0  0
   14.2490   25.9598   -1.0625 C   0  0  0  0  0  0  0  0  0  0  0  0
   16.6844   25.3781   -1.4831 C   0  0  0  0  0  0  0  0  0  0  0  0
   15.3893   25.8895   -1.9869 C   0  0  0  0  0  0  0  0  0  0  0  0
   10.1680   23.6061    1.7068 C   0  0  0  0  0  0  0  0  0  0  0  0
    8.8226   23.0911    1.9647 C   0  0  0  0  0  0  0  0  0  0  0  0
    8.9555   21.6082    2.4312 C   0  0  0  0  0  0  0  0  0  0  0  0
    7.9044   22.9922    0.7786 C   0  0  0  0  0  0  0  0  0  0  0  0
 26 27  1  0  0  0
 27 25  1  0  0  0
 25 19  1  0  0  0
 19 15  1  0  0  0
 15 16  1  0  0  0
 16 17  2  0  0  0
 16  1  1  0  0  0
  1 28  1  0  0  0
 28 29  1  0  0  0
 29 30  1  0  0  0
 29 31  1  0  0  0
  1  2  1  0  0  0
  2  3  1  0  0  0
  3  4  2  0  0  0
  3  5  1  0  0  0
  5  8  1  0  0  0
  8  9  2  0  0  0
  9 10  1  0  0  0
 10 11  2  0  0  0
 11 12  1  0  0  0
 11 13  1  0  0  0
 13 14  2  0  0  0
 19 20  1  0  0  0
 20 21  1  0  0  0
 20 22  2  0  0  0
 14  8  1  0  0  0
 15 18  1  0  0  0
  2  6  1  0  0  0
  5  7  1  0  0  0
 21 23  1  0  0  0
 21 24  1  0  0  0
M  END
> <minimizedAffinity>
9.22172

> <CNNscore>
0.4253072143

> <CNNaffinity>
6.4288086891

> <CNN_VS>
2.7342185974

> <CNNaffinity_variance>
0.9146193266

$$$$
[H]c1c([H])c(N([H])C(=O)N([H])[C@]([H])(C(=O)N([H])[C@]([H])(C(=O)N([H])[H])C([H])([H])C([H])([H])C([H])([H])[H])C([H])([H])C([H])(C([H])([H])[H])C([H])([H])[H])c([H])c([H])c1Br


 31 31  0  0  0  0  0  0  0  0999 V2000
   12.2560   21.4989   -1.0850 C   0  0  0  0  0  0  0  0  0  0  0  0
   13.4921   21.7522   -1.8157 N   0  0  0  0  0  0  0  0  0  0  0  0
   13.7115   23.0247   -2.3924 C   0  0  0  0  0  0  0  0  0  0  0  0
   12.8363   23.9435   -2.2754 O   0  0  0  0  0  0  0  0  0  0  0  0
   14.8879   23.2927   -3.0970 N   0  0  0  0  0  0  0  0  0  0  0  0
   14.1823   21.0122   -1.9028 H   0  0  0  0  0  0  0  0  0  0  0  0
   15.5682   22.4652   -3.1551 H   0  0  0  0  0  0  0  0  0  0  0  0
   15.2842   24.4952   -3.7237 C   0  0  0  0  0  0  0  0  0  0  0  0
   15.1220   24.8036   -5.0464 C   0  0  0  0  0  0  0  0  0  0  0  0
   15.5682   26.0219   -5.5906 C   0  0  0  0  0  0  0  0  0  0  0  0
   16.1910   26.9642   -4.8124 C   0  0  0  0  0  0  0  0  0  0  0  0
   16.7971   28.6194   -5.5537 Br  0  0  0  0  0  0  0  0  0  0  0  0
   16.3602   26.6691   -3.4841 C   0  0  0  0  0  0  0  0  0  0  0  0
   15.9252   25.4798   -2.9521 C   0  0  0  0  0  0  0  0  0  0  0  0
   11.2126   23.6067   -0.2161 N   0  0  0  0  0  0  0  0  0  0  0  0
   12.1546   22.5356   -0.0579 C   0  0  0  0  0  0  0  0  0  0  0  0
   12.9038   22.5019    0.9739 O   0  0  0  0  0  0  0  0  0  0  0  0
   10.6117   23.5963   -1.0629 H   0  0  0  0  0  0  0  0  0  0  0  0
   11.1052   24.6609    0.7676 C   0  0  0  0  0  0  0  0  0  0  0  0
   12.3551   25.4590    0.7728 C   0  0  0  0  0  0  0  0  0  0  0  0
   13.6165   24.7771    0.6805 N   0  0  0  0  0  0  0  0  0  0  0  0
   12.3912   26.6948    0.8527 O   0  0  0  0  0  0  0  0  0  0  0  0
   13.6596   23.8067    1.0333 H   0  0  0  0  0  0  0  0  0  0  0  0
   14.4665   25.2334    0.2739 H   0  0  0  0  0  0  0  0  0  0  0  0
   10.8928   24.0853    2.1353 C   0  0  0  0  0  0  0  0  0  0  0  0
    8.5566   23.0923    2.1882 C   0  0  0  0  0  0  0  0  0  0  0  0
    9.5343   24.0818    2.6959 C   0  0  0  0  0  0  0  0  0  0  0  0
   12.1385   20.0869   -0.6863 C   0  0  0  0  0  0  0  0  0  0  0  0
   10.9163   19.5704   -0.0688 C   0  0  0  0  0  0  0  0  0  0  0  0
    9.7036   20.3266   -0.6947 C   0  0  0  0  0  0  0  0  0  0  0  0
   10.7508   19.8243    1.4035 C   0  0  0  0  0  0  0  0  0  0  0  0
 26 27  1  0  0  0
 27 25  1  0  0  0
 25 19  1  0  0  0
 19 15  1  0  0  0
 15 16  1  0  0  0
 16 17  2  0  0  0
 16  1  1  0  0  0
  1 28  1  0  0  0
 28 29  1  0  0  0
 29 30  1  0  0  0
 29 31  1  0  0  0
  1  2  1  0  0  0
  2  3  1  0  0  0
  3  4  2  0  0  0
  3  5  1  0  0  0
  5  8  1  0  0  0
  8  9  2  0  0  0
  9 10  1  0  0  0
 10 11  2  0  0  0
 11 12  1  0  0  0
 11 13  1  0  0  0
 13 14  2  0  0  0
 19 20  1  0  0  0
 20 21  1  0  0  0
 20 22  2  0  0  0
 14  8  1  0  0  0
 15 18  1  0  0  0
  2  6  1  0  0  0
  5  7  1  0  0  0
 21 23  1  0  0  0
 21 24  1  0  0  0
M  END
> <minimizedAffinity>
-2.98082

> <CNNscore>
0.3536278903

> <CNNaffinity>
6.5249228477

> <CNN_VS>
2.3073947430

> <CNNaffinity_variance>
0.3869202733

$$$$
[H]c1c([H])c(N([H])C(=O)N([H])[C@]([H])(C(=O)N([H])[C@]([H])(C(=O)N([H])[H])C([H])([H])C([H])([H])C([H])([H])[H])C([H])([H])C([H])(C([H])([H])[H])C([H])([H])[H])c([H])c([H])c1Br


 31 31  0  0  0  0  0  0  0  0999 V2000
   14.7338   23.8409   -1.0653 C   0  0  0  0  0  0  0  0  0  0  0  0
   13.7463   24.2606   -0.0782 N   0  0  0  0  0  0  0  0  0  0  0  0
   12.6399   23.4243    0.1987 C   0  0  0  0  0  0  0  0  0  0  0  0
   12.5059   22.3124   -0.4095 O   0  0  0  0  0  0  0  0  0  0  0  0
   11.6801   23.8035    1.1405 N   0  0  0  0  0  0  0  0  0  0  0  0
   13.8633   25.1489    0.4000 H   0  0  0  0  0  0  0  0  0  0  0  0
   11.8629   24.7549    1.6014 H   0  0  0  0  0  0  0  0  0  0  0  0
   10.5271   23.1002    1.5546 C   0  0  0  0  0  0  0  0  0  0  0  0
   10.4402   22.2628    2.6327 C   0  0  0  0  0  0  0  0  0  0  0  0
    9.2515   21.5848    2.9594 C   0  0  0  0  0  0  0  0  0  0  0  0
    8.1155   21.7346    2.2054 C   0  0  0  0  0  0  0  0  0  0  0  0
    6.5008   20.8122    2.6508 Br  0  0  0  0  0  0  0  0  0  0  0  0
    8.1874   22.5714    1.1216 C   0  0  0  0  0  0  0  0  0  0  0  0
    9.3476   23.2335    0.8017 C   0  0  0  0  0  0  0  0  0  0  0  0
   14.7791   25.7197   -2.7249 N   0  0  0  0  0  0  0  0  0  0  0  0
   15.3521   25.0600   -1.5865 C   0  0  0  0  0  0  0  0  0  0  0  0
   16.4031   25.5373   -1.0438 O   0  0  0  0  0  0  0  0  0  0  0  0
   13.9177   25.3092   -3.1344 H   0  0  0  0  0  0  0  0  0  0  0  0
   15.3800   26.9116   -3.2806 C   0  0  0  0  0  0  0  0  0  0  0  0
   14.8569   27.1344   -4.6503 C   0  0  0  0  0  0  0  0  0  0  0  0
   13.5621   26.6145   -4.9938 N   0  0  0  0  0  0  0  0  0  0  0  0
   15.4670   27.7481   -5.5369 O   0  0  0  0  0  0  0  0  0  0  0  0
   13.2318   25.7818   -4.4784 H   0  0  0  0  0  0  0  0  0  0  0  0
   12.9662   27.0521   -5.7350 H   0  0  0  0  0  0  0  0  0  0  0  0
   16.8704   26.7669   -3.3495 C   0  0  0  0  0  0  0  0  0  0  0  0
   18.7710   28.2750   -4.0979 C   0  0  0  0  0  0  0  0  0  0  0  0
   17.7057   27.9543   -3.1207 C   0  0  0  0  0  0  0  0  0  0  0  0
   14.1747   22.8639   -2.0138 C   0  0  0  0  0  0  0  0  0  0  0  0
   14.6610   22.7775   -3.3915 C   0  0  0  0  0  0  0  0  0  0  0  0
   14.6559   21.2748   -3.8109 C   0  0  0  0  0  0  0  0  0  0  0  0
   16.0875   23.1898   -3.6253 C   0  0  0  0  0  0  0  0  0  0  0  0
 26 27  1  0  0  0
 27 25  1  0  0  0
 25 19  1  0  0  0
 19 15  1  0  0  0
 15 16  1  0  0  0
 16 17  2  0  0  0
 16  1  1  0  0  0
  1 28  1  0  0  0
 28 29  1  0  0  0
 29 30  1  0  0  0
 29 31  1  0  0  0
  1  2  1  0  0  0
  2  3  1  0  0  0
  3  4  2  0  0  0
  3  5  1  0  0  0
  5  8  1  0  0  0
  8  9  2  0  0  0
  9 10  1  0  0  0
 10 11  2  0  0  0
 11 12  1  0  0  0
 11 13  1  0  0  0
 13 14  2  0  0  0
 19 20  1  0  0  0
 20 21  1  0  0  0
 20 22  2  0  0  0
 14  8  1  0  0  0
 15 18  1  0  0  0
  2  6  1  0  0  0
  5  7  1  0  0  0
 21 23  1  0  0  0
 21 24  1  0  0  0
M  END
> <minimizedAffinity>
-3.47187

> <CNNscore>
0.3392243981

> <CNNaffinity>
6.3548889160

> <CNN_VS>
2.1557333469

> <CNNaffinity_variance>
0.4920150638

$$$$
[H]c1c([H])c(N([H])C(=O)N([H])[C@]([H])(C(=O)N([H])[C@]([H])(C(=O)N([H])[H])C([H])([H])C([H])([H])C([H])([H])[H])C([H])([H])C([H])(C([H])([H])[H])C([H])([H])[H])c([H])c([H])c1Br


 31 31  0  0  0  0  0  0  0  0999 V2000
   12.3885   27.9466   -4.2995 C   0  0  0  0  0  0  0  0  0  0  0  0
   13.6512   28.4376   -4.8383 N   0  0  0  0  0  0  0  0  0  0  0  0
   14.8670   28.0396   -4.2353 C   0  0  0  0  0  0  0  0  0  0  0  0
   14.8602   27.2581   -3.2287 O   0  0  0  0  0  0  0  0  0  0  0  0
   16.0902   28.4958   -4.7330 N   0  0  0  0  0  0  0  0  0  0  0  0
   13.6443   29.0603   -5.6406 H   0  0  0  0  0  0  0  0  0  0  0  0
   16.0081   29.1543   -5.5760 H   0  0  0  0  0  0  0  0  0  0  0  0
   17.3930   28.1982   -4.2750 C   0  0  0  0  0  0  0  0  0  0  0  0
   18.4973   28.9921   -4.4211 C   0  0  0  0  0  0  0  0  0  0  0  0
   19.7650   28.6043   -3.9501 C   0  0  0  0  0  0  0  0  0  0  0  0
   19.9527   27.4022   -3.3166 C   0  0  0  0  0  0  0  0  0  0  0  0
   21.6765   26.8766   -2.6772 Br  0  0  0  0  0  0  0  0  0  0  0  0
   18.8545   26.5958   -3.1625 C   0  0  0  0  0  0  0  0  0  0  0  0
   17.6165   26.9735   -3.6223 C   0  0  0  0  0  0  0  0  0  0  0  0
   12.2436   26.5438   -2.2265 N   0  0  0  0  0  0  0  0  0  0  0  0
   12.6910   26.7093   -3.5800 C   0  0  0  0  0  0  0  0  0  0  0  0
   13.3582   25.7787   -4.1420 O   0  0  0  0  0  0  0  0  0  0  0  0
   11.6941   27.3172   -1.8045 H   0  0  0  0  0  0  0  0  0  0  0  0
   12.5478   25.3443   -1.4787 C   0  0  0  0  0  0  0  0  0  0  0  0
   13.5343   24.5316   -2.2309 C   0  0  0  0  0  0  0  0  0  0  0  0
   14.9301   24.6650   -1.9166 N   0  0  0  0  0  0  0  0  0  0  0  0
   13.2365   23.7307   -3.1280 O   0  0  0  0  0  0  0  0  0  0  0  0
   15.2449   25.5672   -1.5229 H   0  0  0  0  0  0  0  0  0  0  0  0
   15.6122   23.8869   -2.0749 H   0  0  0  0  0  0  0  0  0  0  0  0
   11.3090   24.5274   -1.2668 C   0  0  0  0  0  0  0  0  0  0  0  0
   10.8238   22.4038    0.0376 C   0  0  0  0  0  0  0  0  0  0  0  0
   11.1203   23.8546    0.0261 C   0  0  0  0  0  0  0  0  0  0  0  0
   11.3281   27.9362   -5.3203 C   0  0  0  0  0  0  0  0  0  0  0  0
    9.9477   28.2898   -4.9863 C   0  0  0  0  0  0  0  0  0  0  0  0
    9.2251   28.7080   -6.3043 C   0  0  0  0  0  0  0  0  0  0  0  0
    9.7592   29.4900   -4.1010 C   0  0  0  0  0  0  0  0  0  0  0  0
 26 27  1  0  0  0
 27 25  1  0  0  0
 25 19  1  0  0  0
 19 15  1  0  0  0
 15 16  1  0  0  0
 16 17  2  0  0  0
 16  1  1  0  0  0
  1 28  1  0  0  0
 28 29  1  0  0  0
 29 30  1  0  0  0
 29 31  1  0  0  0
  1  2  1  0  0  0
  2  3  1  0  0  0
  3  4  2  0  0  0
  3  5  1  0  0  0
  5  8  1  0  0  0
  8  9  2  0  0  0
  9 10  1  0  0  0
 10 11  2  0  0  0
 11 12  1  0  0  0
 11 13  1  0  0  0
 13 14  2  0  0  0
 19 20  1  0  0  0
 20 21  1  0  0  0
 20 22  2  0  0  0
 14  8  1  0  0  0
 15 18  1  0  0  0
  2  6  1  0  0  0
  5  7  1  0  0  0
 21 23  1  0  0  0
 21 24  1  0  0  0
M  END
> <minimizedAffinity>
23.38276

> <CNNscore>
0.3376988173

> <CNNaffinity>
5.8938374519

> <CNN_VS>
1.9903419018

> <CNNaffinity_variance>
0.9402281046

$$$$
[H]OC(C([H])([H])[H])(C([H])([H])[H])C([H])([H])C(=O)N([H])C([H])([H])C([H])([H])c1c([H])c([H])c2nc([H])nc(N([H])c3c([H])c([H])c(Oc4c([H])c([H])c([H])c(C(F)(F)F)c4[H])c(Cl)c3[H])c2c1[H]


 42 45  0  0  0  0  0  0  0  0999 V2000
   11.6214   20.7074   -0.3517 C   0  0  0  0  0  0  0  0  0  0  0  0
   10.5804   19.8554   -0.5904 C   0  0  0  0  0  0  0  0  0  0  0  0
    9.2959   20.2455   -0.3696 C   0  0  0  0  0  0  0  0  0  0  0  0
    8.9990   21.5147    0.1079 C   0  0  0  0  0  0  0  0  0  0  0  0
    7.7029   21.8226    0.3156 N   0  0  0  0  0  0  0  0  0  0  0  0
    7.3998   23.0372    0.7953 C   0  0  0  0  0  0  0  0  0  0  0  0
    8.4120   23.8614    1.0366 N   0  0  0  0  0  0  0  0  0  0  0  0
    9.7045   23.6372    0.8598 C   0  0  0  0  0  0  0  0  0  0  0  0
   10.0458   22.3766    0.3547 C   0  0  0  0  0  0  0  0  0  0  0  0
   11.3312   22.0024    0.1348 C   0  0  0  0  0  0  0  0  0  0  0  0
   10.7042   24.5605    1.2154 N   0  0  0  0  0  0  0  0  0  0  0  0
   10.6274   25.1822    2.0608 H   0  0  0  0  0  0  0  0  0  0  0  0
   11.8932   24.7360    0.4595 C   0  0  0  0  0  0  0  0  0  0  0  0
   13.1231   24.2795    0.8185 C   0  0  0  0  0  0  0  0  0  0  0  0
   14.2346   24.3880   -0.0223 C   0  0  0  0  0  0  0  0  0  0  0  0
   14.1019   24.9884   -1.2870 C   0  0  0  0  0  0  0  0  0  0  0  0
   12.8665   25.4609   -1.6659 C   0  0  0  0  0  0  0  0  0  0  0  0
   12.6255   26.2519   -3.2357 Cl  0  0  0  0  0  0  0  0  0  0  0  0
   11.8059   25.3258   -0.7988 C   0  0  0  0  0  0  0  0  0  0  0  0
   15.2061   25.0538   -2.0484 O   0  0  0  0  0  0  0  0  0  0  0  0
   15.6998   25.8469   -3.0140 C   0  0  0  0  0  0  0  0  0  0  0  0
   16.6318   26.8347   -2.6546 C   0  0  0  0  0  0  0  0  0  0  0  0
   17.1492   27.6512   -3.6199 C   0  0  0  0  0  0  0  0  0  0  0  0
   16.7518   27.4976   -4.9301 C   0  0  0  0  0  0  0  0  0  0  0  0
   15.8395   26.5417   -5.3150 C   0  0  0  0  0  0  0  0  0  0  0  0
   15.3170   25.7181   -4.3549 C   0  0  0  0  0  0  0  0  0  0  0  0
   15.4473   26.4590   -6.7471 C   0  0  0  0  0  0  0  0  0  0  0  0
   15.4055   25.1093   -7.1472 F   0  0  0  0  0  0  0  0  0  0  0  0
   14.1548   26.9293   -6.8553 F   0  0  0  0  0  0  0  0  0  0  0  0
   16.2668   27.1975   -7.5525 F   0  0  0  0  0  0  0  0  0  0  0  0
   13.0009   20.3158   -0.5255 C   0  0  0  0  0  0  0  0  0  0  0  0
   13.8565   20.2347    0.7225 C   0  0  0  0  0  0  0  0  0  0  0  0
   12.3989   20.0200    3.0451 C   0  0  0  0  0  0  0  0  0  0  0  0
   12.0948   18.9726    3.6490 O   0  0  0  0  0  0  0  0  0  0  0  0
   13.1271   20.1290    1.8847 N   0  0  0  0  0  0  0  0  0  0  0  0
   13.3862   18.7872    1.9289 H   0  0  0  0  0  0  0  0  0  0  0  0
   11.8865   21.2815    3.7004 C   0  0  0  0  0  0  0  0  0  0  0  0
    9.8411   22.5569    4.1933 C   0  0  0  0  0  0  0  0  0  0  0  0
   10.5157   21.2212    4.2272 C   0  0  0  0  0  0  0  0  0  0  0  0
   10.4036   20.5356    5.5789 C   0  0  0  0  0  0  0  0  0  0  0  0
    9.7868   20.3866    3.3068 O   0  0  0  0  0  0  0  0  0  0  0  0
   10.4161   19.6565    3.0599 H   0  0  0  0  0  0  0  0  0  0  0  0
 38 39  1  0  0  0
 39 40  1  0  0  0
 39 41  1  0  0  0
 39 37  1  0  0  0
 37 33  1  0  0  0
 33 34  2  0  0  0
 33 35  1  0  0  0
 35 32  1  0  0  0
 32 31  1  0  0  0
 31  1  1  0  0  0
  1  2  2  0  0  0
  2  3  1  0  0  0
  3  4  2  0  0  0
  4  5  1  0  0  0
  5  6  2  0  0  0
  6  7  1  0  0  0
  7  8  2  0  0  0
  8 11  1  0  0  0
 11 13  1  0  0  0
 13 14  2  0  0  0
 14 15  1  0  0  0
 15 16  2  0  0  0
 16 20  1  0  0  0
 20 21  1  0  0  0
 21 22  2  0  0  0
 22 23  1  0  0  0
 23 24  2  0  0  0
 24 25  1  0  0  0
 25 27  1  0  0  0
 27 28  1  0  0  0
 27 29  1  0  0  0
 27 30  1  0  0  0
 25 26  2  0  0  0
 16 17  1  0  0  0
 17 18  1  0  0  0
 17 19  2  0  0  0
  8  9  1  0  0  0
  9 10  2  0  0  0
 10  1  1  0  0  0
  9  4  1  0  0  0
 19 13  1  0  0  0
 26 21  1  0  0  0
 41 42  1  0  0  0
 35 36  1  0  0  0
 11 12  1  0  0  0
M  END
> <minimizedAffinity>
-8.70973

> <CNNscore>
0.2950596809

> <CNNaffinity>
7.8570480347

> <CNN_VS>
2.3182981014

> <CNNaffinity_variance>
0.3463025093

$$$$
[H]OC(C([H])([H])[H])(C([H])([H])[H])C([H])([H])C(=O)N([H])C([H])([H])C([H])([H])c1c([H])c([H])c2nc([H])nc(N([H])c3c([H])c([H])c(Oc4c([H])c([H])c([H])c(C(F)(F)F)c4[H])c(Cl)c3[H])c2c1[H]


 42 45  0  0  0  0  0  0  0  0999 V2000
   12.9929   24.5583   -0.6615 C   0  0  0  0  0  0  0  0  0  0  0  0
   14.2603   24.1918   -0.3070 C   0  0  0  0  0  0  0  0  0  0  0  0
   14.4903   23.0202    0.3453 C   0  0  0  0  0  0  0  0  0  0  0  0
   13.4503   22.1623    0.6763 C   0  0  0  0  0  0  0  0  0  0  0  0
   13.7560   21.0267    1.3358 N   0  0  0  0  0  0  0  0  0  0  0  0
   12.7615   20.1964    1.6807 C   0  0  0  0  0  0  0  0  0  0  0  0
   11.5291   20.5575    1.3450 N   0  0  0  0  0  0  0  0  0  0  0  0
   11.1473   21.6487    0.7003 C   0  0  0  0  0  0  0  0  0  0  0  0
   12.1692   22.5295    0.3251 C   0  0  0  0  0  0  0  0  0  0  0  0
   11.9259   23.6927   -0.3295 C   0  0  0  0  0  0  0  0  0  0  0  0
    9.8000   21.9695    0.4553 N   0  0  0  0  0  0  0  0  0  0  0  0
    9.3244   21.7602   -0.4596 H   0  0  0  0  0  0  0  0  0  0  0  0
    8.9744   22.6092    1.4172 C   0  0  0  0  0  0  0  0  0  0  0  0
    7.8417   22.0794    1.9523 C   0  0  0  0  0  0  0  0  0  0  0  0
    7.1331   22.7127    2.9774 C   0  0  0  0  0  0  0  0  0  0  0  0
    7.5860   23.9422    3.4878 C   0  0  0  0  0  0  0  0  0  0  0  0
    8.7273   24.4965    2.9557 C   0  0  0  0  0  0  0  0  0  0  0  0
    9.3474   26.0564    3.5306 Cl  0  0  0  0  0  0  0  0  0  0  0  0
    9.3866   23.8283    1.9488 C   0  0  0  0  0  0  0  0  0  0  0  0
    6.8642   24.4935    4.4770 O   0  0  0  0  0  0  0  0  0  0  0  0
    6.1584   25.6181    4.6821 C   0  0  0  0  0  0  0  0  0  0  0  0
    5.5288   25.7935    5.9255 C   0  0  0  0  0  0  0  0  0  0  0  0
    4.8078   26.9304    6.1577 C   0  0  0  0  0  0  0  0  0  0  0  0
    4.7061   27.8882    5.1726 C   0  0  0  0  0  0  0  0  0  0  0  0
    5.3086   27.7463    3.9433 C   0  0  0  0  0  0  0  0  0  0  0  0
    6.0344   26.6112    3.7024 C   0  0  0  0  0  0  0  0  0  0  0  0
    5.1288   28.8177    2.9278 C   0  0  0  0  0  0  0  0  0  0  0  0
    5.9450   29.9182    3.2540 F   0  0  0  0  0  0  0  0  0  0  0  0
    5.6001   28.3367    1.7237 F   0  0  0  0  0  0  0  0  0  0  0  0
    3.8208   29.1852    2.7879 F   0  0  0  0  0  0  0  0  0  0  0  0
   12.7008   25.8157   -1.3099 C   0  0  0  0  0  0  0  0  0  0  0  0
   12.7702   25.8428   -2.8233 C   0  0  0  0  0  0  0  0  0  0  0  0
   15.2767   25.3006   -3.8175 C   0  0  0  0  0  0  0  0  0  0  0  0
   16.3156   25.0840   -3.1632 O   0  0  0  0  0  0  0  0  0  0  0  0
   14.0237   25.5716   -3.3223 N   0  0  0  0  0  0  0  0  0  0  0  0
   14.4776   25.3243   -2.0565 H   0  0  0  0  0  0  0  0  0  0  0  0
   15.4686   25.2494   -5.3155 C   0  0  0  0  0  0  0  0  0  0  0  0
   15.9257   26.4290   -7.4256 C   0  0  0  0  0  0  0  0  0  0  0  0
   15.4521   26.5444   -6.0104 C   0  0  0  0  0  0  0  0  0  0  0  0
   16.1388   27.6639   -5.2459 C   0  0  0  0  0  0  0  0  0  0  0  0
   14.0639   26.9213   -6.0876 O   0  0  0  0  0  0  0  0  0  0  0  0
   13.6702   26.6523   -5.2143 H   0  0  0  0  0  0  0  0  0  0  0  0
 38 39  1  0  0  0
 39 40  1  0  0  0
 39 41  1  0  0  0
 39 37  1  0  0  0
 37 33  1  0  0  0
 33 34  2  0  0  0
 33 35  1  0  0  0
 35 32  1  0  0  0
 32 31  1  0  0  0
 31  1  1  0  0  0
  1  2  2  0  0  0
  2  3  1  0  0  0
  3  4  2  0  0  0
  4  5  1  0  0  0
  5  6  2  0  0  0
  6  7  1  0  0  0
  7  8  2  0  0  0
  8 11  1  0  0  0
 11 13  1  0  0  0
 13 14  2  0  0  0
 14 15  1  0  0  0
 15 16  2  0  0  0
 16 20  1  0  0  0
 20 21  1  0  0  0
 21 22  2  0  0  0
 22 23  1  0  0  0
 23 24  2  0  0  0
 24 25  1  0  0  0
 25 27  1  0  0  0
 27 28  1  0  0  0
 27 29  1  0  0  0
 27 30  1  0  0  0
 25 26  2  0  0  0
 16 17  1  0  0  0
 17 18  1  0  0  0
 17 19  2  0  0  0
  8  9  1  0  0  0
  9 10  2  0  0  0
 10  1  1  0  0  0
  9  4  1  0  0  0
 19 13  1  0  0  0
 26 21  1  0  0  0
 41 42  1  0  0  0
 35 36  1  0  0  0
 11 12  1  0  0  0
M  END
> <minimizedAffinity>
-9.36098

> <CNNscore>
0.2031590044

> <CNNaffinity>
7.3456182480

> <CNN_VS>
1.4923285246

> <CNNaffinity_variance>
0.1514500678

$$$$
[H]OC(C([H])([H])[H])(C([H])([H])[H])C([H])([H])C(=O)N([H])C([H])([H])C([H])([H])c1c([H])c([H])c2nc([H])nc(N([H])c3c([H])c([H])c(Oc4c([H])c([H])c([H])c(C(F)(F)F)c4[H])c(Cl)c3[H])c2c1[H]


 42 45  0  0  0  0  0  0  0  0999 V2000
    9.2173   23.8229    3.4820 C   0  0  0  0  0  0  0  0  0  0  0  0
    9.2997   23.4837    4.8029 C   0  0  0  0  0  0  0  0  0  0  0  0
    9.9418   22.3493    5.1924 C   0  0  0  0  0  0  0  0  0  0  0  0
   10.5290   21.4982    4.2662 C   0  0  0  0  0  0  0  0  0  0  0  0
   11.1344   20.3855    4.7281 N   0  0  0  0  0  0  0  0  0  0  0  0
   11.6893   19.5425    3.8457 C   0  0  0  0  0  0  0  0  0  0  0  0
   11.6005   19.8671    2.5617 N   0  0  0  0  0  0  0  0  0  0  0  0
   11.0274   20.9351    2.0295 C   0  0  0  0  0  0  0  0  0  0  0  0
   10.4448   21.8333    2.9320 C   0  0  0  0  0  0  0  0  0  0  0  0
    9.8115   22.9638    2.5298 C   0  0  0  0  0  0  0  0  0  0  0  0
   10.9287   21.1484    0.6428 N   0  0  0  0  0  0  0  0  0  0  0  0
   10.0603   20.9204    0.0942 H   0  0  0  0  0  0  0  0  0  0  0  0
   11.9938   21.6793   -0.1315 C   0  0  0  0  0  0  0  0  0  0  0  0
   13.0977   20.9874   -0.5223 C   0  0  0  0  0  0  0  0  0  0  0  0
   14.0584   21.5351   -1.3774 C   0  0  0  0  0  0  0  0  0  0  0  0
   13.9013   22.8459   -1.8615 C   0  0  0  0  0  0  0  0  0  0  0  0
   12.7935   23.5636   -1.4732 C   0  0  0  0  0  0  0  0  0  0  0  0
   12.5379   25.2312   -2.0229 Cl  0  0  0  0  0  0  0  0  0  0  0  0
   11.8781   22.9739   -0.6310 C   0  0  0  0  0  0  0  0  0  0  0  0
   14.8555   23.3089   -2.6851 O   0  0  0  0  0  0  0  0  0  0  0  0
   15.3603   24.4998   -3.0484 C   0  0  0  0  0  0  0  0  0  0  0  0
   16.1601   25.1950   -2.1261 C   0  0  0  0  0  0  0  0  0  0  0  0
   16.6862   26.4066   -2.4744 C   0  0  0  0  0  0  0  0  0  0  0  0
   16.4266   26.9315   -3.7215 C   0  0  0  0  0  0  0  0  0  0  0  0
   15.6458   26.2774   -4.6470 C   0  0  0  0  0  0  0  0  0  0  0  0
   15.1157   25.0621   -4.3075 C   0  0  0  0  0  0  0  0  0  0  0  0
   15.3960   26.9257   -5.9619 C   0  0  0  0  0  0  0  0  0  0  0  0
   15.8996   28.2409   -5.9423 F   0  0  0  0  0  0  0  0  0  0  0  0
   16.1350   26.2483   -6.9099 F   0  0  0  0  0  0  0  0  0  0  0  0
   14.0760   26.8973   -6.3116 F   0  0  0  0  0  0  0  0  0  0  0  0
    8.5023   24.9913    3.0235 C   0  0  0  0  0  0  0  0  0  0  0  0
    8.8366   26.3097    3.6914 C   0  0  0  0  0  0  0  0  0  0  0  0
    6.9144   28.2450    3.3376 C   0  0  0  0  0  0  0  0  0  0  0  0
    7.0960   29.4715    3.2072 O   0  0  0  0  0  0  0  0  0  0  0  0
    7.8737   27.2768    3.5144 N   0  0  0  0  0  0  0  0  0  0  0  0
    8.8481   28.2146    3.3128 H   0  0  0  0  0  0  0  0  0  0  0  0
    5.4631   27.8271    3.2899 C   0  0  0  0  0  0  0  0  0  0  0  0
    5.1931   28.2536    5.6979 C   0  0  0  0  0  0  0  0  0  0  0  0
    4.8932   27.3372    4.5530 C   0  0  0  0  0  0  0  0  0  0  0  0
    5.2216   25.8846    4.8559 C   0  0  0  0  0  0  0  0  0  0  0  0
    3.4647   27.3832    4.3734 O   0  0  0  0  0  0  0  0  0  0  0  0
    3.3084   27.0864    3.4367 H   0  0  0  0  0  0  0  0  0  0  0  0
 38 39  1  0  0  0
 39 40  1  0  0  0
 39 41  1  0  0  0
 39 37  1  0  0  0
 37 33  1  0  0  0
 33 34  2  0  0  0
 33 35  1  0  0  0
 35 32  1  0  0  0
 32 31  1  0  0  0
 31  1  1  0  0  0
  1  2  2  0  0  0
  2  3  1  0  0  0
  3  4  2  0  0  0
  4  5  1  0  0  0
  5  6  2  0  0  0
  6  7  1  0  0  0
  7  8  2  0  0  0
  8 11  1  0  0  0
 11 13  1  0  0  0
 13 14  2  0  0  0
 14 15  1  0  0  0
 15 16  2  0  0  0
 16 20  1  0  0  0
 20 21  1  0  0  0
 21 22  2  0  0  0
 22 23  1  0  0  0
 23 24  2  0  0  0
 24 25  1  0  0  0
 25 27  1  0  0  0
 27 28  1  0  0  0
 27 29  1  0  0  0
 27 30  1  0  0  0
 25 26  2  0  0  0
 16 17  1  0  0  0
 17 18  1  0  0  0
 17 19  2  0  0  0
  8  9  1  0  0  0
  9 10  2  0  0  0
 10  1  1  0  0  0
  9  4  1  0  0  0
 19 13  1  0  0  0
 26 21  1  0  0  0
 41 42  1  0  0  0
 35 36  1  0  0  0
 11 12  1  0  0  0
M  END
> <minimizedAffinity>
-11.42051

> <CNNscore>
0.1947966069

> <CNNaffinity>
6.8788542747

> <CNN_VS>
1.3399775028

> <CNNaffinity_variance>
0.7346768975

$$$$
[H]OC(C([H])([H])[H])(C([H])([H])[H])C([H])([H])C(=O)N([H])C([H])([H])C([H])([H])c1c([H])c([H])c2nc([H])nc(N([H])c3c([H])c([H])c(Oc4c([H])c([H])c([H])c(C(F)(F)F)c4[H])c(Cl)c3[H])c2c1[H]


 42 45  0  0  0  0  0  0  0  0999 V2000
    9.1171   23.2347    5.8642 C   0  0  0  0  0  0  0  0  0  0  0  0
    9.6396   22.3516    6.7662 C   0  0  0  0  0  0  0  0  0  0  0  0
   10.3941   21.2977    6.3530 C   0  0  0  0  0  0  0  0  0  0  0  0
   10.6548   21.0806    5.0068 C   0  0  0  0  0  0  0  0  0  0  0  0
   11.3984   20.0061    4.6743 N   0  0  0  0  0  0  0  0  0  0  0  0
   11.6430   19.7704    3.3775 C   0  0  0  0  0  0  0  0  0  0  0  0
   11.1269   20.6229    2.5005 N   0  0  0  0  0  0  0  0  0  0  0  0
   10.3912   21.6960    2.7441 C   0  0  0  0  0  0  0  0  0  0  0  0
   10.1261   21.9658    4.0923 C   0  0  0  0  0  0  0  0  0  0  0  0
    9.3758   23.0236    4.4907 C   0  0  0  0  0  0  0  0  0  0  0  0
    9.8336   22.4963    1.7308 N   0  0  0  0  0  0  0  0  0  0  0  0
    8.7972   22.6512    1.6361 H   0  0  0  0  0  0  0  0  0  0  0  0
   10.6209   23.1528    0.7484 C   0  0  0  0  0  0  0  0  0  0  0  0
   10.1835   23.5240   -0.4848 C   0  0  0  0  0  0  0  0  0  0  0  0
   10.9753   24.2665   -1.3658 C   0  0  0  0  0  0  0  0  0  0  0  0
   12.2734   24.6526   -0.9872 C   0  0  0  0  0  0  0  0  0  0  0  0
   12.7354   24.2821    0.2547 C   0  0  0  0  0  0  0  0  0  0  0  0
   14.3703   24.7111    0.7942 Cl  0  0  0  0  0  0  0  0  0  0  0  0
   11.9121   23.5528    1.0825 C   0  0  0  0  0  0  0  0  0  0  0  0
   12.9782   25.3710   -1.8762 O   0  0  0  0  0  0  0  0  0  0  0  0
   13.8479   25.1381   -2.8734 C   0  0  0  0  0  0  0  0  0  0  0  0
   14.6091   23.9582   -2.8330 C   0  0  0  0  0  0  0  0  0  0  0  0
   15.4981   23.6990   -3.8374 C   0  0  0  0  0  0  0  0  0  0  0  0
   15.6380   24.5953   -4.8744 C   0  0  0  0  0  0  0  0  0  0  0  0
   14.9095   25.7609   -4.9428 C   0  0  0  0  0  0  0  0  0  0  0  0
   14.0152   26.0281   -3.9417 C   0  0  0  0  0  0  0  0  0  0  0  0
   15.1391   26.6851   -6.0850 C   0  0  0  0  0  0  0  0  0  0  0  0
   13.9145   26.9561   -6.7257 F   0  0  0  0  0  0  0  0  0  0  0  0
   15.5745   27.8883   -5.5693 F   0  0  0  0  0  0  0  0  0  0  0  0
   16.0701   26.2046   -6.9615 F   0  0  0  0  0  0  0  0  0  0  0  0
    8.2703   24.3369    6.2576 C   0  0  0  0  0  0  0  0  0  0  0  0
    8.3816   25.6138    5.4494 C   0  0  0  0  0  0  0  0  0  0  0  0
    6.0276   26.3531    4.2341 C   0  0  0  0  0  0  0  0  0  0  0  0
    4.8775   25.9692    4.5244 O   0  0  0  0  0  0  0  0  0  0  0  0
    7.2047   25.9847    4.8403 N   0  0  0  0  0  0  0  0  0  0  0  0
    6.4949   25.3039    5.7902 H   0  0  0  0  0  0  0  0  0  0  0  0
    6.0802   27.3291    3.0817 C   0  0  0  0  0  0  0  0  0  0  0  0
    4.1729   28.8103    2.6114 C   0  0  0  0  0  0  0  0  0  0  0  0
    5.4773   28.6468    3.3271 C   0  0  0  0  0  0  0  0  0  0  0  0
    6.4267   29.8117    3.1008 C   0  0  0  0  0  0  0  0  0  0  0  0
    5.1627   28.6696    4.7327 O   0  0  0  0  0  0  0  0  0  0  0  0
    5.9271   28.2161    5.1799 H   0  0  0  0  0  0  0  0  0  0  0  0
 38 39  1  0  0  0
 39 40  1  0  0  0
 39 41  1  0  0  0
 39 37  1  0  0  0
 37 33  1  0  0  0
 33 34  2  0  0  0
 33 35  1  0  0  0
 35 32  1  0  0  0
 32 31  1  0  0  0
 31  1  1  0  0  0
  1  2  2  0  0  0
  2  3  1  0  0  0
  3  4  2  0  0  0
  4  5  1  0  0  0
  5  6  2  0  0  0
  6  7  1  0  0  0
  7  8  2  0  0  0
  8 11  1  0  0  0
 11 13  1  0  0  0
 13 14  2  0  0  0
 14 15  1  0  0  0
 15 16  2  0  0  0
 16 20  1  0  0  0
 20 21  1  0  0  0
 21 22  2  0  0  0
 22 23  1  0  0  0
 23 24  2  0  0  0
 24 25  1  0  0  0
 25 27  1  0  0  0
 27 28  1  0  0  0
 27 29  1  0  0  0
 27 30  1  0  0  0
 25 26  2  0  0  0
 16 17  1  0  0  0
 17 18  1  0  0  0
 17 19  2  0  0  0
  8  9  1  0  0  0
  9 10  2  0  0  0
 10  1  1  0  0  0
  9  4  1  0  0  0
 19 13  1  0  0  0
 26 21  1  0  0  0
 41 42  1  0  0  0
 35 36  1  0  0  0
 11 12  1  0  0  0
M  END
> <minimizedAffinity>
-11.26055

> <CNNscore>
0.1528010219

> <CNNaffinity>
7.0624604225

> <CNN_VS>
1.0791511536

> <CNNaffinity_variance>
0.2213954031

$$$$
[H]OC(C([H])([H])[H])(C([H])([H])[H])C([H])([H])C(=O)N([H])C([H])([H])C([H])([H])c1c([H])c([H])c2nc([H])nc(N([H])c3c([H])c([H])c(Oc4c([H])c([H])c([H])c(C(F)(F)F)c4[H])c(Cl)c3[H])c2c1[H]


 42 45  0  0  0  0  0  0  0  0999 V2000
    8.6783   24.8430    4.8945 C   0  0  0  0  0  0  0  0  0  0  0  0
    8.2149   23.6784    5.4380 C   0  0  0  0  0  0  0  0  0  0  0  0
    8.4525   22.4835    4.8323 C   0  0  0  0  0  0  0  0  0  0  0  0
    9.1664   22.4061    3.6443 C   0  0  0  0  0  0  0  0  0  0  0  0
    9.3483   21.1874    3.0968 N   0  0  0  0  0  0  0  0  0  0  0  0
   10.0184   21.0966    1.9392 C   0  0  0  0  0  0  0  0  0  0  0  0
   10.4599   22.2292    1.4061 N   0  0  0  0  0  0  0  0  0  0  0  0
   10.3246   23.4584    1.8781 C   0  0  0  0  0  0  0  0  0  0  0  0
    9.6321   23.5785    3.0892 C   0  0  0  0  0  0  0  0  0  0  0  0
    9.4064   24.7764    3.6848 C   0  0  0  0  0  0  0  0  0  0  0  0
   10.7736   24.6023    1.1938 N   0  0  0  0  0  0  0  0  0  0  0  0
   10.3395   25.5511    1.3291 H   0  0  0  0  0  0  0  0  0  0  0  0
   11.8415   24.5695    0.2587 C   0  0  0  0  0  0  0  0  0  0  0  0
   11.7455   24.9222   -1.0514 C   0  0  0  0  0  0  0  0  0  0  0  0
   12.8594   24.9738   -1.8944 C   0  0  0  0  0  0  0  0  0  0  0  0
   14.1336   24.6520   -1.3941 C   0  0  0  0  0  0  0  0  0  0  0  0
   14.2501   24.2879   -0.0725 C   0  0  0  0  0  0  0  0  0  0  0  0
   15.8201   23.8448    0.6253 Cl  0  0  0  0  0  0  0  0  0  0  0  0
   13.1199   24.2560    0.7128 C   0  0  0  0  0  0  0  0  0  0  0  0
   15.1623   24.7293   -2.2539 O   0  0  0  0  0  0  0  0  0  0  0  0
   15.6306   25.5987   -3.1648 C   0  0  0  0  0  0  0  0  0  0  0  0
   16.5224   26.5967   -2.7381 C   0  0  0  0  0  0  0  0  0  0  0  0
   17.0136   27.4902   -3.6472 C   0  0  0  0  0  0  0  0  0  0  0  0
   16.6294   27.4032   -4.9674 C   0  0  0  0  0  0  0  0  0  0  0  0
   15.7561   26.4393   -5.4175 C   0  0  0  0  0  0  0  0  0  0  0  0
   15.2602   25.5388   -4.5141 C   0  0  0  0  0  0  0  0  0  0  0  0
   15.3751   26.4307   -6.8550 C   0  0  0  0  0  0  0  0  0  0  0  0
   14.0594   26.9129   -6.9968 F   0  0  0  0  0  0  0  0  0  0  0  0
   16.1857   27.3358   -7.5085 F   0  0  0  0  0  0  0  0  0  0  0  0
   15.5232   25.1975   -7.4232 F   0  0  0  0  0  0  0  0  0  0  0  0
    8.4052   26.1354    5.4791 C   0  0  0  0  0  0  0  0  0  0  0  0
    7.0207   26.3522    6.0554 C   0  0  0  0  0  0  0  0  0  0  0  0
    5.1570   27.1309    4.1884 C   0  0  0  0  0  0  0  0  0  0  0  0
    3.9282   27.2553    4.3578 O   0  0  0  0  0  0  0  0  0  0  0  0
    6.0895   26.7420    5.1201 N   0  0  0  0  0  0  0  0  0  0  0  0
    5.1247   26.7717    6.0885 H   0  0  0  0  0  0  0  0  0  0  0  0
    5.6230   27.4537    2.7876 C   0  0  0  0  0  0  0  0  0  0  0  0
    5.9303   29.0775    0.9651 C   0  0  0  0  0  0  0  0  0  0  0  0
    5.5712   28.8714    2.4035 C   0  0  0  0  0  0  0  0  0  0  0  0
    6.3327   29.7932    3.3415 C   0  0  0  0  0  0  0  0  0  0  0  0
    4.1871   29.2518    2.5239 O   0  0  0  0  0  0  0  0  0  0  0  0
    3.8593   28.7927    3.3436 H   0  0  0  0  0  0  0  0  0  0  0  0
 38 39  1  0  0  0
 39 40  1  0  0  0
 39 41  1  0  0  0
 39 37  1  0  0  0
 37 33  1  0  0  0
 33 34  2  0  0  0
 33 35  1  0  0  0
 35 32  1  0  0  0
 32 31  1  0  0  0
 31  1  1  0  0  0
  1  2  2  0  0  0
  2  3  1  0  0  0
  3  4  2  0  0  0
  4  5  1  0  0  0
  5  6  2  0  0  0
  6  7  1  0  0  0
  7  8  2  0  0  0
  8 11  1  0  0  0
 11 13  1  0  0  0
 13 14  2  0  0  0
 14 15  1  0  0  0
 15 16  2  0  0  0
 16 20  1  0  0  0
 20 21  1  0  0  0
 21 22  2  0  0  0
 22 23  1  0  0  0
 23 24  2  0  0  0
 24 25  1  0  0  0
 25 27  1  0  0  0
 27 28  1  0  0  0
 27 29  1  0  0  0
 27 30  1  0  0  0
 25 26  2  0  0  0
 16 17  1  0  0  0
 17 18  1  0  0  0
 17 19  2  0  0  0
  8  9  1  0  0  0
  9 10  2  0  0  0
 10  1  1  0  0  0
  9  4  1  0  0  0
 19 13  1  0  0  0
 26 21  1  0  0  0
 41 42  1  0  0  0
 35 36  1  0  0  0
 11 12  1  0  0  0
M  END
> <minimizedAffinity>
-10.91920

> <CNNscore>
0.1389384419

> <CNNaffinity>
7.0927262306

> <CNN_VS>
0.9854523540

> <CNNaffinity_variance>
0.1196094751

$$$$
[H]OC(C([H])([H])[H])(C([H])([H])[H])C([H])([H])C(=O)N([H])C([H])([H])C([H])([H])c1c([H])c([H])c2nc([H])nc(N([H])c3c([H])c([H])c(Oc4c([H])c([H])c([H])c(C(F)(F)F)c4[H])c(Cl)c3[H])c2c1[H]


 42 45  0  0  0  0  0  0  0  0999 V2000
    6.4506   22.3313    4.6727 C   0  0  0  0  0  0  0  0  0  0  0  0
    5.9093   23.3354    5.4245 C   0  0  0  0  0  0  0  0  0  0  0  0
    6.4213   24.5950    5.3775 C   0  0  0  0  0  0  0  0  0  0  0  0
    7.5093   24.9021    4.5717 C   0  0  0  0  0  0  0  0  0  0  0  0
    7.9691   26.1694    4.5901 N   0  0  0  0  0  0  0  0  0  0  0  0
    9.0314   26.4786    3.8330 C   0  0  0  0  0  0  0  0  0  0  0  0
    9.5635   25.5006    3.1102 N   0  0  0  0  0  0  0  0  0  0  0  0
    9.1733   24.2378    3.0362 C   0  0  0  0  0  0  0  0  0  0  0  0
    8.0621   23.8917    3.8147 C   0  0  0  0  0  0  0  0  0  0  0  0
    7.5588   22.6323    3.8485 C   0  0  0  0  0  0  0  0  0  0  0  0
    9.8550   23.2615    2.2876 N   0  0  0  0  0  0  0  0  0  0  0  0
    9.6200   22.2375    2.3434 H   0  0  0  0  0  0  0  0  0  0  0  0
   10.9204   23.5754    1.4032 C   0  0  0  0  0  0  0  0  0  0  0  0
   11.0613   24.7512    0.7341 C   0  0  0  0  0  0  0  0  0  0  0  0
   12.1911   25.0413   -0.0363 C   0  0  0  0  0  0  0  0  0  0  0  0
   13.2303   24.0996   -0.1403 C   0  0  0  0  0  0  0  0  0  0  0  0
   13.1037   22.9022    0.5254 C   0  0  0  0  0  0  0  0  0  0  0  0
   14.3613   21.6548    0.4231 Cl  0  0  0  0  0  0  0  0  0  0  0  0
   11.9702   22.6703    1.2714 C   0  0  0  0  0  0  0  0  0  0  0  0
   14.2906   24.4437   -0.8890 O   0  0  0  0  0  0  0  0  0  0  0  0
   14.6464   24.4015   -2.1838 C   0  0  0  0  0  0  0  0  0  0  0  0
   15.0487   23.1695   -2.7256 C   0  0  0  0  0  0  0  0  0  0  0  0
   15.4125   23.1020   -4.0406 C   0  0  0  0  0  0  0  0  0  0  0  0
   15.3817   24.2394   -4.8175 C   0  0  0  0  0  0  0  0  0  0  0  0
   14.9948   25.4618   -4.3172 C   0  0  0  0  0  0  0  0  0  0  0  0
   14.6270   25.5386   -3.0012 C   0  0  0  0  0  0  0  0  0  0  0  0
   15.0127   26.6446   -5.2185 C   0  0  0  0  0  0  0  0  0  0  0  0
   15.7011   26.3231   -6.4045 F   0  0  0  0  0  0  0  0  0  0  0  0
   13.7106   26.9062   -5.5921 F   0  0  0  0  0  0  0  0  0  0  0  0
   15.5410   27.7494   -4.6136 F   0  0  0  0  0  0  0  0  0  0  0  0
    5.9686   20.9708    4.7315 C   0  0  0  0  0  0  0  0  0  0  0  0
    6.4420   20.0247    3.6467 C   0  0  0  0  0  0  0  0  0  0  0  0
    5.1413   20.3662    1.2474 C   0  0  0  0  0  0  0  0  0  0  0  0
    4.1718   21.1153    1.0165 O   0  0  0  0  0  0  0  0  0  0  0  0
    5.7923   20.1945    2.4455 N   0  0  0  0  0  0  0  0  0  0  0  0
    5.0500   21.2073    2.9866 H   0  0  0  0  0  0  0  0  0  0  0  0
    5.6150   19.5814    0.0461 C   0  0  0  0  0  0  0  0  0  0  0  0
    5.2793   20.5364   -2.1962 C   0  0  0  0  0  0  0  0  0  0  0  0
    6.2152   20.3686   -1.0403 C   0  0  0  0  0  0  0  0  0  0  0  0
    7.5948   19.8892   -1.4604 C   0  0  0  0  0  0  0  0  0  0  0  0
    6.4116   21.6877   -0.4958 O   0  0  0  0  0  0  0  0  0  0  0  0
    6.7159   21.5424    0.4403 H   0  0  0  0  0  0  0  0  0  0  0  0
 38 39  1  0  0  0
 39 40  1  0  0  0
 39 41  1  0  0  0
 39 37  1  0  0  0
 37 33  1  0  0  0
 33 34  2  0  0  0
 33 35  1  0  0  0
 35 32  1  0  0  0
 32 31  1  0  0  0
 31  1  1  0  0  0
  1  2  2  0  0  0
  2  3  1  0  0  0
  3  4  2  0  0  0
  4  5  1  0  0  0
  5  6  2  0  0  0
  6  7  1  0  0  0
  7  8  2  0  0  0
  8 11  1  0  0  0
 11 13  1  0  0  0
 13 14  2  0  0  0
 14 15  1  0  0  0
 15 16  2  0  0  0
 16 20  1  0  0  0
 20 21  1  0  0  0
 21 22  2  0  0  0
 22 23  1  0  0  0
 23 24  2  0  0  0
 24 25  1  0  0  0
 25 27  1  0  0  0
 27 28  1  0  0  0
 27 29  1  0  0  0
 27 30  1  0  0  0
 25 26  2  0  0  0
 16 17  1  0  0  0
 17 18  1  0  0  0
 17 19  2  0  0  0
  8  9  1  0  0  0
  9 10  2  0  0  0
 10  1  1  0  0  0
  9  4  1  0  0  0
 19 13  1  0  0  0
 26 21  1  0  0  0
 41 42  1  0  0  0
 35 36  1  0  0  0
 11 12  1  0  0  0
M  END
> <minimizedAffinity>
-9.42566

> <CNNscore>
0.1361045539

> <CNNaffinity>
6.7264328003

> <CNN_VS>
0.9154981375

> <CNNaffinity_variance>
0.5297616720

$$$$
[H]OC(C([H])([H])[H])(C([H])([H])[H])C([H])([H])C(=O)N([H])C([H])([H])C([H])([H])c1c([H])c([H])c2nc([H])nc(N([H])c3c([H])c([H])c(Oc4c([H])c([H])c([H])c(C(F)(F)F)c4[H])c(Cl)c3[H])c2c1[H]


 42 45  0  0  0  0  0  0  0  0999 V2000
    6.2459   22.4519    5.0413 C   0  0  0  0  0  0  0  0  0  0  0  0
    5.7900   23.4673    5.8334 C   0  0  0  0  0  0  0  0  0  0  0  0
    6.3514   24.7051    5.7719 C   0  0  0  0  0  0  0  0  0  0  0  0
    7.4049   24.9776    4.9099 C   0  0  0  0  0  0  0  0  0  0  0  0
    7.9182   26.2244    4.9167 N   0  0  0  0  0  0  0  0  0  0  0  0
    8.9489   26.4993    4.1047 C   0  0  0  0  0  0  0  0  0  0  0  0
    9.3982   25.5099    3.3423 N   0  0  0  0  0  0  0  0  0  0  0  0
    8.9516   24.2656    3.2762 C   0  0  0  0  0  0  0  0  0  0  0  0
    7.8717   23.9554    4.1119 C   0  0  0  0  0  0  0  0  0  0  0  0
    7.3183   22.7177    4.1596 C   0  0  0  0  0  0  0  0  0  0  0  0
    9.5487   23.2721    2.4796 N   0  0  0  0  0  0  0  0  0  0  0  0
    9.2250   22.2710    2.4840 H   0  0  0  0  0  0  0  0  0  0  0  0
   10.6415   23.5354    1.6122 C   0  0  0  0  0  0  0  0  0  0  0  0
   10.8720   24.7180    0.9809 C   0  0  0  0  0  0  0  0  0  0  0  0
   12.0263   24.9494    0.2271 C   0  0  0  0  0  0  0  0  0  0  0  0
   12.9960   23.9390    0.1003 C   0  0  0  0  0  0  0  0  0  0  0  0
   12.7781   22.7340    0.7275 C   0  0  0  0  0  0  0  0  0  0  0  0
   13.9438   21.4029    0.5943 Cl  0  0  0  0  0  0  0  0  0  0  0  0
   11.6247   22.5615    1.4588 C   0  0  0  0  0  0  0  0  0  0  0  0
   14.0846   24.2286   -0.6306 O   0  0  0  0  0  0  0  0  0  0  0  0
   14.4424   24.2157   -1.9256 C   0  0  0  0  0  0  0  0  0  0  0  0
   14.9656   23.0274   -2.4616 C   0  0  0  0  0  0  0  0  0  0  0  0
   15.3339   22.9900   -3.7766 C   0  0  0  0  0  0  0  0  0  0  0  0
   15.1891   24.1147   -4.5591 C   0  0  0  0  0  0  0  0  0  0  0  0
   14.6821   25.2948   -4.0645 C   0  0  0  0  0  0  0  0  0  0  0  0
   14.3090   25.3410   -2.7485 C   0  0  0  0  0  0  0  0  0  0  0  0
   14.5813   26.4689   -4.9717 C   0  0  0  0  0  0  0  0  0  0  0  0
   13.2990   27.0409   -4.8617 F   0  0  0  0  0  0  0  0  0  0  0  0
   15.4660   27.4255   -4.5184 F   0  0  0  0  0  0  0  0  0  0  0  0
   14.8814   26.1514   -6.2658 F   0  0  0  0  0  0  0  0  0  0  0  0
    5.7109   21.1119    5.1118 C   0  0  0  0  0  0  0  0  0  0  0  0
    6.1587   20.2517    6.2761 C   0  0  0  0  0  0  0  0  0  0  0  0
    8.5340   18.9398    5.8269 C   0  0  0  0  0  0  0  0  0  0  0  0
    8.6832   17.7656    5.4354 O   0  0  0  0  0  0  0  0  0  0  0  0
    7.3480   19.5967    6.0517 N   0  0  0  0  0  0  0  0  0  0  0  0
    6.6666   18.5298    5.5353 H   0  0  0  0  0  0  0  0  0  0  0  0
    9.8294   19.6797    6.0674 C   0  0  0  0  0  0  0  0  0  0  0  0
   11.4713   19.0811    4.3358 C   0  0  0  0  0  0  0  0  0  0  0  0
   10.5450   20.1307    4.8655 C   0  0  0  0  0  0  0  0  0  0  0  0
   11.2128   21.4874    5.0175 C   0  0  0  0  0  0  0  0  0  0  0  0
    9.5306   20.3077    3.8582 O   0  0  0  0  0  0  0  0  0  0  0  0
    8.7542   20.7074    4.3351 H   0  0  0  0  0  0  0  0  0  0  0  0
 38 39  1  0  0  0
 39 40  1  0  0  0
 39 41  1  0  0  0
 39 37  1  0  0  0
 37 33  1  0  0  0
 33 34  2  0  0  0
 33 35  1  0  0  0
 35 32  1  0  0  0
 32 31  1  0  0  0
 31  1  1  0  0  0
  1  2  2  0  0  0
  2  3  1  0  0  0
  3  4  2  0  0  0
  4  5  1  0  0  0
  5  6  2  0  0  0
  6  7  1  0  0  0
  7  8  2  0  0  0
  8 11  1  0  0  0
 11 13  1  0  0  0
 13 14  2  0  0  0
 14 15  1  0  0  0
 15 16  2  0  0  0
 16 20  1  0  0  0
 20 21  1  0  0  0
 21 22  2  0  0  0
 22 23  1  0  0  0
 23 24  2  0  0  0
 24 25  1  0  0  0
 25 27  1  0  0  0
 27 28  1  0  0  0
 27 29  1  0  0  0
 27 30  1  0  0  0
 25 26  2  0  0  0
 16 17  1  0  0  0
 17 18  1  0  0  0
 17 19  2  0  0  0
  8  9  1  0  0  0
  9 10  2  0  0  0
 10  1  1  0  0  0
  9  4  1  0  0  0
 19 13  1  0  0  0
 26 21  1  0  0  0
 41 42  1  0  0  0
 35 36  1  0  0  0
 11 12  1  0  0  0
M  END
> <minimizedAffinity>
-8.86519

> <CNNscore>
0.1311599016

> <CNNaffinity>
6.8610315323

> <CNN_VS>
0.8998922110

> <CNNaffinity_variance>
0.2190582007

$$$$
[H]OC(C([H])([H])[H])(C([H])([H])[H])C([H])([H])C(=O)N([H])C([H])([H])C([H])([H])c1c([H])c([H])c2nc([H])nc(N([H])c3c([H])c([H])c(Oc4c([H])c([H])c([H])c(C(F)(F)F)c4[H])c(Cl)c3[H])c2c1[H]


 42 45  0  0  0  0  0  0  0  0999 V2000
    7.7686   20.4774   -0.6616 C   0  0  0  0  0  0  0  0  0  0  0  0
    6.7745   21.0909    0.0469 C   0  0  0  0  0  0  0  0  0  0  0  0
    7.0543   21.7823    1.1847 C   0  0  0  0  0  0  0  0  0  0  0  0
    8.3524   21.8844    1.6663 C   0  0  0  0  0  0  0  0  0  0  0  0
    8.5483   22.5739    2.8083 N   0  0  0  0  0  0  0  0  0  0  0  0
    9.7928   22.6656    3.2981 C   0  0  0  0  0  0  0  0  0  0  0  0
   10.7571   22.0610    2.6150 N   0  0  0  0  0  0  0  0  0  0  0  0
   10.6485   21.3691    1.4918 C   0  0  0  0  0  0  0  0  0  0  0  0
    9.3583   21.2634    0.9579 C   0  0  0  0  0  0  0  0  0  0  0  0
    9.0941   20.5745   -0.1807 C   0  0  0  0  0  0  0  0  0  0  0  0
   11.7308   20.7071    0.8848 N   0  0  0  0  0  0  0  0  0  0  0  0
   11.9677   19.7024    1.0885 H   0  0  0  0  0  0  0  0  0  0  0  0
   12.5970   21.3411   -0.0445 C   0  0  0  0  0  0  0  0  0  0  0  0
   13.6647   20.7518   -0.6469 C   0  0  0  0  0  0  0  0  0  0  0  0
   14.4129   21.3955   -1.6368 C   0  0  0  0  0  0  0  0  0  0  0  0
   14.0707   22.6988   -2.0388 C   0  0  0  0  0  0  0  0  0  0  0  0
   12.9968   23.3135   -1.4374 C   0  0  0  0  0  0  0  0  0  0  0  0
   12.5185   24.9655   -1.8740 Cl  0  0  0  0  0  0  0  0  0  0  0  0
   12.2940   22.6320   -0.4696 C   0  0  0  0  0  0  0  0  0  0  0  0
   14.8247   23.2570   -2.9997 O   0  0  0  0  0  0  0  0  0  0  0  0
   15.3454   24.4642   -3.2763 C   0  0  0  0  0  0  0  0  0  0  0  0
   16.1078   25.1051   -2.2857 C   0  0  0  0  0  0  0  0  0  0  0  0
   16.6493   26.3321   -2.5454 C   0  0  0  0  0  0  0  0  0  0  0  0
   16.4413   26.9253   -3.7714 C   0  0  0  0  0  0  0  0  0  0  0  0
   15.6979   26.3256   -4.7623 C   0  0  0  0  0  0  0  0  0  0  0  0
   15.1530   25.0954   -4.5116 C   0  0  0  0  0  0  0  0  0  0  0  0
   15.5027   27.0456   -6.0488 C   0  0  0  0  0  0  0  0  0  0  0  0
   16.1697   26.3568   -7.0805 F   0  0  0  0  0  0  0  0  0  0  0  0
   14.1597   26.9911   -6.3597 F   0  0  0  0  0  0  0  0  0  0  0  0
   15.8984   28.3510   -5.9775 F   0  0  0  0  0  0  0  0  0  0  0  0
    7.5073   19.6927   -1.8460 C   0  0  0  0  0  0  0  0  0  0  0  0
    6.1035   19.7485   -2.4136 C   0  0  0  0  0  0  0  0  0  0  0  0
    4.4504   17.7654   -1.4652 C   0  0  0  0  0  0  0  0  0  0  0  0
    3.7674   16.9686   -2.1382 O   0  0  0  0  0  0  0  0  0  0  0  0
    5.2768   18.7567   -1.9375 N   0  0  0  0  0  0  0  0  0  0  0  0
    5.0787   18.3053   -3.2128 H   0  0  0  0  0  0  0  0  0  0  0  0
    4.3201   17.5811    0.0290 C   0  0  0  0  0  0  0  0  0  0  0  0
    6.4861   16.4568   -0.2835 C   0  0  0  0  0  0  0  0  0  0  0  0
    5.4248   16.8699    0.6878 C   0  0  0  0  0  0  0  0  0  0  0  0
    4.9754   15.7340    1.5919 C   0  0  0  0  0  0  0  0  0  0  0  0
    6.0406   17.8386    1.5580 O   0  0  0  0  0  0  0  0  0  0  0  0
    5.2868   18.3602    1.9450 H   0  0  0  0  0  0  0  0  0  0  0  0
 38 39  1  0  0  0
 39 40  1  0  0  0
 39 41  1  0  0  0
 39 37  1  0  0  0
 37 33  1  0  0  0
 33 34  2  0  0  0
 33 35  1  0  0  0
 35 32  1  0  0  0
 32 31  1  0  0  0
 31  1  1  0  0  0
  1  2  2  0  0  0
  2  3  1  0  0  0
  3  4  2  0  0  0
  4  5  1  0  0  0
  5  6  2  0  0  0
  6  7  1  0  0  0
  7  8  2  0  0  0
  8 11  1  0  0  0
 11 13  1  0  0  0
 13 14  2  0  0  0
 14 15  1  0  0  0
 15 16  2  0  0  0
 16 20  1  0  0  0
 20 21  1  0  0  0
 21 22  2  0  0  0
 22 23  1  0  0  0
 23 24  2  0  0  0
 24 25  1  0  0  0
 25 27  1  0  0  0
 27 28  1  0  0  0
 27 29  1  0  0  0
 27 30  1  0  0  0
 25 26  2  0  0  0
 16 17  1  0  0  0
 17 18  1  0  0  0
 17 19  2  0  0  0
  8  9  1  0  0  0
  9 10  2  0  0  0
 10  1  1  0  0  0
  9  4  1  0  0  0
 19 13  1  0  0  0
 26 21  1  0  0  0
 41 42  1  0  0  0
 35 36  1  0  0  0
 11 12  1  0  0  0
M  END
> <minimizedAffinity>
-10.74274

> <CNNscore>
0.1252452433

> <CNNaffinity>
7.3319511414

> <CNN_VS>
0.9182919860

> <CNNaffinity_variance>
0.1682491750

$$$$
[H]OC(C([H])([H])[H])(C([H])([H])[H])C([H])([H])C(=O)N([H])C([H])([H])C([H])([H])c1c([H])c([H])c2nc([H])nc(N([H])c3c([H])c([H])c(Oc4c([H])c([H])c([H])c(C(F)(F)F)c4[H])c(Cl)c3[H])c2c1[H]


 42 45  0  0  0  0  0  0  0  0999 V2000
    8.8875   22.4181    4.7947 C   0  0  0  0  0  0  0  0  0  0  0  0
    9.1402   21.5853    5.8478 C   0  0  0  0  0  0  0  0  0  0  0  0
   10.0449   20.5754    5.7362 C   0  0  0  0  0  0  0  0  0  0  0  0
   10.7365   20.3535    4.5531 C   0  0  0  0  0  0  0  0  0  0  0  0
   11.6060   19.3237    4.5152 N   0  0  0  0  0  0  0  0  0  0  0  0
   12.2676   19.0830    3.3743 C   0  0  0  0  0  0  0  0  0  0  0  0
   12.0146   19.8862    2.3482 N   0  0  0  0  0  0  0  0  0  0  0  0
   11.1812   20.9136    2.3045 C   0  0  0  0  0  0  0  0  0  0  0  0
   10.4819   21.1879    3.4862 C   0  0  0  0  0  0  0  0  0  0  0  0
    9.5857   22.2017    3.5849 C   0  0  0  0  0  0  0  0  0  0  0  0
   10.9357   21.6598    1.1378 N   0  0  0  0  0  0  0  0  0  0  0  0
    9.9671   21.9387    0.8361 H   0  0  0  0  0  0  0  0  0  0  0  0
   11.9719   22.0899    0.2675 C   0  0  0  0  0  0  0  0  0  0  0  0
   13.0390   21.3362   -0.1110 C   0  0  0  0  0  0  0  0  0  0  0  0
   13.9672   21.7784   -1.0581 C   0  0  0  0  0  0  0  0  0  0  0  0
   13.8150   23.0438   -1.6522 C   0  0  0  0  0  0  0  0  0  0  0  0
   12.7445   23.8231   -1.2783 C   0  0  0  0  0  0  0  0  0  0  0  0
   12.4986   25.4403   -1.9655 Cl  0  0  0  0  0  0  0  0  0  0  0  0
   11.8599   23.3366   -0.3424 C   0  0  0  0  0  0  0  0  0  0  0  0
   14.7365   23.4048   -2.5599 O   0  0  0  0  0  0  0  0  0  0  0  0
   15.2780   24.5428   -3.0254 C   0  0  0  0  0  0  0  0  0  0  0  0
   16.1129   25.2827   -2.1716 C   0  0  0  0  0  0  0  0  0  0  0  0
   16.6766   26.4418   -2.6242 C   0  0  0  0  0  0  0  0  0  0  0  0
   16.4200   26.8709   -3.9080 C   0  0  0  0  0  0  0  0  0  0  0  0
   15.6053   26.1710   -4.7687 C   0  0  0  0  0  0  0  0  0  0  0  0
   15.0375   25.0076   -4.3244 C   0  0  0  0  0  0  0  0  0  0  0  0
   15.3621   26.7170   -6.1304 C   0  0  0  0  0  0  0  0  0  0  0  0
   15.7451   25.7651   -7.0953 F   0  0  0  0  0  0  0  0  0  0  0  0
   14.0004   26.8832   -6.2778 F   0  0  0  0  0  0  0  0  0  0  0  0
   15.9885   27.9144   -6.3283 F   0  0  0  0  0  0  0  0  0  0  0  0
    7.8993   23.4700    4.8563 C   0  0  0  0  0  0  0  0  0  0  0  0
    6.4623   23.0826    4.5720 C   0  0  0  0  0  0  0  0  0  0  0  0
    6.2180   20.8024    3.0534 C   0  0  0  0  0  0  0  0  0  0  0  0
    6.6583   19.6676    3.3229 O   0  0  0  0  0  0  0  0  0  0  0  0
    6.3391   21.9426    3.8111 N   0  0  0  0  0  0  0  0  0  0  0  0
    6.8981   21.2061    4.8183 H   0  0  0  0  0  0  0  0  0  0  0  0
    5.4781   20.8813    1.7382 C   0  0  0  0  0  0  0  0  0  0  0  0
    7.3893   21.8969    0.5682 C   0  0  0  0  0  0  0  0  0  0  0  0
    6.3127   20.8578    0.5286 C   0  0  0  0  0  0  0  0  0  0  0  0
    5.5205   20.8755   -0.7682 C   0  0  0  0  0  0  0  0  0  0  0  0
    6.9892   19.5863    0.5532 O   0  0  0  0  0  0  0  0  0  0  0  0
    6.3127   18.9356    0.8834 H   0  0  0  0  0  0  0  0  0  0  0  0
 38 39  1  0  0  0
 39 40  1  0  0  0
 39 41  1  0  0  0
 39 37  1  0  0  0
 37 33  1  0  0  0
 33 34  2  0  0  0
 33 35  1  0  0  0
 35 32  1  0  0  0
 32 31  1  0  0  0
 31  1  1  0  0  0
  1  2  2  0  0  0
  2  3  1  0  0  0
  3  4  2  0  0  0
  4  5  1  0  0  0
  5  6  2  0  0  0
  6  7  1  0  0  0
  7  8  2  0  0  0
  8 11  1  0  0  0
 11 13  1  0  0  0
 13 14  2  0  0  0
 14 15  1  0  0  0
 15 16  2  0  0  0
 16 20  1  0  0  0
 20 21  1  0  0  0
 21 22  2  0  0  0
 22 23  1  0  0  0
 23 24  2  0  0  0
 24 25  1  0  0  0
 25 27  1  0  0  0
 27 28  1  0  0  0
 27 29  1  0  0  0
 27 30  1  0  0  0
 25 26  2  0  0  0
 16 17  1  0  0  0
 17 18  1  0  0  0
 17 19  2  0  0  0
  8  9  1  0  0  0
  9 10  2  0  0  0
 10  1  1  0  0  0
  9  4  1  0  0  0
 19 13  1  0  0  0
 26 21  1  0  0  0
 41 42  1  0  0  0
 35 36  1  0  0  0
 11 12  1  0  0  0
M  END
> <minimizedAffinity>
-9.70901

> <CNNscore>
0.1228800416

> <CNNaffinity>
7.1323790550

> <CNN_VS>
0.8764270544

> <CNNaffinity_variance>
0.1853923053

$$$$
[H]OC(=O)c1c([H])c([H])c(C([H])([H])N([H])C(=O)c2c([H])c([H])c(C(C([H])([H])[H])(C([H])([H])[H])C([H])([H])[H])c([H])c2[H])c([H])c1F


 26 27  0  0  0  0  0  0  0  0999 V2000
   14.4204   25.2473   -3.7794 C   0  0  0  0  0  0  0  0  0  0  0  0
   15.1791   24.8665   -4.7189 O   0  0  0  0  0  0  0  0  0  0  0  0
   14.1503   24.3680   -2.7238 N   0  0  0  0  0  0  0  0  0  0  0  0
   13.5183   24.7230   -1.9419 H   0  0  0  0  0  0  0  0  0  0  0  0
   12.6612   29.1358   -3.8515 C   0  0  0  0  0  0  0  0  0  0  0  0
   14.0039   28.9455   -4.1173 C   0  0  0  0  0  0  0  0  0  0  0  0
   14.5846   27.6954   -4.0883 C   0  0  0  0  0  0  0  0  0  0  0  0
   13.8343   26.5791   -3.7875 C   0  0  0  0  0  0  0  0  0  0  0  0
   12.5022   26.7248   -3.5170 C   0  0  0  0  0  0  0  0  0  0  0  0
   11.9441   28.0041   -3.5556 C   0  0  0  0  0  0  0  0  0  0  0  0
   11.7957   30.9189   -2.4466 C   0  0  0  0  0  0  0  0  0  0  0  0
   12.0233   30.4900   -3.8824 C   0  0  0  0  0  0  0  0  0  0  0  0
   10.6673   30.3934   -4.5412 C   0  0  0  0  0  0  0  0  0  0  0  0
   12.8740   31.4924   -4.6354 C   0  0  0  0  0  0  0  0  0  0  0  0
   14.6441   23.0340   -2.5536 C   0  0  0  0  0  0  0  0  0  0  0  0
   14.1269   22.3802   -1.3275 C   0  0  0  0  0  0  0  0  0  0  0  0
   12.8747   22.8060   -0.8386 C   0  0  0  0  0  0  0  0  0  0  0  0
   12.3177   22.2273    0.2719 C   0  0  0  0  0  0  0  0  0  0  0  0
   12.9398   21.1995    0.9780 C   0  0  0  0  0  0  0  0  0  0  0  0
   14.1667   20.7776    0.5076 C   0  0  0  0  0  0  0  0  0  0  0  0
   14.8133   19.7751    1.1550 F   0  0  0  0  0  0  0  0  0  0  0  0
   14.7298   21.3732   -0.6272 C   0  0  0  0  0  0  0  0  0  0  0  0
   12.2897   20.6186    2.1363 C   0  0  0  0  0  0  0  0  0  0  0  0
   11.6453   19.5455    1.9714 O   0  0  0  0  0  0  0  0  0  0  0  0
   12.3699   21.2071    3.3684 O   0  0  0  0  0  0  0  0  0  0  0  0
   13.1166   21.0464    4.0533 H   0  0  0  0  0  0  0  0  0  0  0  0
 11 12  1  0  0  0
 12 13  1  0  0  0
 12 14  1  0  0  0
 12  5  1  0  0  0
  5  6  2  0  0  0
  6  7  1  0  0  0
  7  8  2  0  0  0
  8  1  1  0  0  0
  1  2  2  0  0  0
  1  3  1  0  0  0
  3 15  1  0  0  0
 15 16  1  0  0  0
 16 17  2  0  0  0
 17 18  1  0  0  0
 18 19  2  0  0  0
 19 23  1  0  0  0
 23 24  2  0  0  0
 23 25  1  0  0  0
 19 20  1  0  0  0
 20 21  1  0  0  0
 20 22  2  0  0  0
  8  9  1  0  0  0
  9 10  2  0  0  0
 10  5  1  0  0  0
 22 16  1  0  0  0
  3  4  1  0  0  0
 25 26  1  0  0  0
M  END
> <minimizedAffinity>
10.38048

> <CNNscore>
0.5382283330

> <CNNaffinity>
5.9049353600

> <CNN_VS>
3.1782035828

> <CNNaffinity_variance>
0.4687543809

$$$$
[H]OC(=O)c1c([H])c([H])c(C([H])([H])N([H])C(=O)c2c([H])c([H])c(C(C([H])([H])[H])(C([H])([H])[H])C([H])([H])[H])c([H])c2[H])c([H])c1F


 26 27  0  0  0  0  0  0  0  0999 V2000
   13.6652   27.4044   -4.0119 C   0  0  0  0  0  0  0  0  0  0  0  0
   13.8891   27.0068   -2.8307 O   0  0  0  0  0  0  0  0  0  0  0  0
   14.6575   27.2383   -4.9856 N   0  0  0  0  0  0  0  0  0  0  0  0
   14.4334   27.5718   -5.9733 H   0  0  0  0  0  0  0  0  0  0  0  0
    9.9286   29.2293   -4.9752 C   0  0  0  0  0  0  0  0  0  0  0  0
   10.2386   27.9510   -5.3990 C   0  0  0  0  0  0  0  0  0  0  0  0
   11.4456   27.3550   -5.1012 C   0  0  0  0  0  0  0  0  0  0  0  0
   12.3964   28.0250   -4.3619 C   0  0  0  0  0  0  0  0  0  0  0  0
   12.1292   29.2924   -3.9248 C   0  0  0  0  0  0  0  0  0  0  0  0
   10.8970   29.8675   -4.2423 C   0  0  0  0  0  0  0  0  0  0  0  0
    8.9163   31.2942   -5.7585 C   0  0  0  0  0  0  0  0  0  0  0  0
    8.6195   29.8826   -5.2935 C   0  0  0  0  0  0  0  0  0  0  0  0
    7.7911   29.9906   -4.0349 C   0  0  0  0  0  0  0  0  0  0  0  0
    7.8442   29.1035   -6.3364 C   0  0  0  0  0  0  0  0  0  0  0  0
   15.9515   26.6468   -4.8181 C   0  0  0  0  0  0  0  0  0  0  0  0
   16.0878   25.9118   -3.5376 C   0  0  0  0  0  0  0  0  0  0  0  0
   16.8986   26.4867   -2.5374 C   0  0  0  0  0  0  0  0  0  0  0  0
   17.0480   25.8815   -1.3169 C   0  0  0  0  0  0  0  0  0  0  0  0
   16.4207   24.6809   -0.9896 C   0  0  0  0  0  0  0  0  0  0  0  0
   15.6266   24.1101   -1.9633 C   0  0  0  0  0  0  0  0  0  0  0  0
   14.9877   22.9432   -1.6944 F   0  0  0  0  0  0  0  0  0  0  0  0
   15.4785   24.7337   -3.2078 C   0  0  0  0  0  0  0  0  0  0  0  0
   16.6073   24.1004    0.3256 C   0  0  0  0  0  0  0  0  0  0  0  0
   15.5907   23.9820    1.0648 O   0  0  0  0  0  0  0  0  0  0  0  0
   17.8395   23.6911    0.7557 O   0  0  0  0  0  0  0  0  0  0  0  0
   18.2443   22.7626    0.5935 H   0  0  0  0  0  0  0  0  0  0  0  0
 11 12  1  0  0  0
 12 13  1  0  0  0
 12 14  1  0  0  0
 12  5  1  0  0  0
  5  6  2  0  0  0
  6  7  1  0  0  0
  7  8  2  0  0  0
  8  1  1  0  0  0
  1  2  2  0  0  0
  1  3  1  0  0  0
  3 15  1  0  0  0
 15 16  1  0  0  0
 16 17  2  0  0  0
 17 18  1  0  0  0
 18 19  2  0  0  0
 19 23  1  0  0  0
 23 24  2  0  0  0
 23 25  1  0  0  0
 19 20  1  0  0  0
 20 21  1  0  0  0
 20 22  2  0  0  0
  8  9  1  0  0  0
  9 10  2  0  0  0
 10  5  1  0  0  0
 22 16  1  0  0  0
  3  4  1  0  0  0
 25 26  1  0  0  0
M  END
> <minimizedAffinity>
15.10601

> <CNNscore>
0.5176259875

> <CNNaffinity>
5.4885892868

> <CNN_VS>
2.8410365582

> <CNNaffinity_variance>
0.2716181278

$$$$
[H]OC(=O)c1c([H])c([H])c(C([H])([H])N([H])C(=O)c2c([H])c([H])c(C(C([H])([H])[H])(C([H])([H])[H])C([H])([H])[H])c([H])c2[H])c([H])c1F


 26 27  0  0  0  0  0  0  0  0999 V2000
   13.9060   23.6244   -0.2185 C   0  0  0  0  0  0  0  0  0  0  0  0
   14.4814   23.9627    0.8576 O   0  0  0  0  0  0  0  0  0  0  0  0
   12.9970   22.5597   -0.1986 N   0  0  0  0  0  0  0  0  0  0  0  0
   12.5197   22.3078   -1.1182 H   0  0  0  0  0  0  0  0  0  0  0  0
   14.7526   25.7215   -3.8387 C   0  0  0  0  0  0  0  0  0  0  0  0
   13.5185   25.8120   -3.2233 C   0  0  0  0  0  0  0  0  0  0  0  0
   13.2312   25.1324   -2.0587 C   0  0  0  0  0  0  0  0  0  0  0  0
   14.1785   24.3279   -1.4628 C   0  0  0  0  0  0  0  0  0  0  0  0
   15.4116   24.2103   -2.0409 C   0  0  0  0  0  0  0  0  0  0  0  0
   15.6715   24.9124   -3.2196 C   0  0  0  0  0  0  0  0  0  0  0  0
   15.6103   25.4459   -6.0949 C   0  0  0  0  0  0  0  0  0  0  0  0
   15.0725   26.4575   -5.1027 C   0  0  0  0  0  0  0  0  0  0  0  0
   16.1749   27.4561   -4.8391 C   0  0  0  0  0  0  0  0  0  0  0  0
   13.8605   27.1843   -5.6492 C   0  0  0  0  0  0  0  0  0  0  0  0
   12.6086   21.7672    0.9298 C   0  0  0  0  0  0  0  0  0  0  0  0
   11.2881   22.1567    1.4804 C   0  0  0  0  0  0  0  0  0  0  0  0
   11.0598   21.9294    2.8532 C   0  0  0  0  0  0  0  0  0  0  0  0
    9.8753   22.2911    3.4401 C   0  0  0  0  0  0  0  0  0  0  0  0
    8.8380   22.8959    2.7329 C   0  0  0  0  0  0  0  0  0  0  0  0
    9.0521   23.1206    1.3882 C   0  0  0  0  0  0  0  0  0  0  0  0
    8.0761   23.7123    0.6537 F   0  0  0  0  0  0  0  0  0  0  0  0
   10.2643   22.7484    0.7952 C   0  0  0  0  0  0  0  0  0  0  0  0
    7.6153   23.2690    3.4167 C   0  0  0  0  0  0  0  0  0  0  0  0
    7.1916   24.4480    3.2608 O   0  0  0  0  0  0  0  0  0  0  0  0
    6.9383   22.3780    4.2033 O   0  0  0  0  0  0  0  0  0  0  0  0
    6.2243   21.7200    3.8722 H   0  0  0  0  0  0  0  0  0  0  0  0
 11 12  1  0  0  0
 12 13  1  0  0  0
 12 14  1  0  0  0
 12  5  1  0  0  0
  5  6  2  0  0  0
  6  7  1  0  0  0
  7  8  2  0  0  0
  8  1  1  0  0  0
  1  2  2  0  0  0
  1  3  1  0  0  0
  3 15  1  0  0  0
 15 16  1  0  0  0
 16 17  2  0  0  0
 17 18  1  0  0  0
 18 19  2  0  0  0
 19 23  1  0  0  0
 23 24  2  0  0  0
 23 25  1  0  0  0
 19 20  1  0  0  0
 20 21  1  0  0  0
 20 22  2  0  0  0
  8  9  1  0  0  0
  9 10  2  0  0  0
 10  5  1  0  0  0
 22 16  1  0  0  0
  3  4  1  0  0  0
 25 26  1  0  0  0
M  END
> <minimizedAffinity>
-7.72301

> <CNNscore>
0.5032950044

> <CNNaffinity>
6.3480410576

> <CNN_VS>
3.1949374676

> <CNNaffinity_variance>
0.1901649535

$$$$
[H]OC(=O)c1c([H])c([H])c(C([H])([H])N([H])C(=O)c2c([H])c([H])c(C(C([H])([H])[H])(C([H])([H])[H])C([H])([H])[H])c([H])c2[H])c([H])c1F


 26 27  0  0  0  0  0  0  0  0999 V2000
   12.9009   22.5785    0.5092 C   0  0  0  0  0  0  0  0  0  0  0  0
   13.7790   21.7948    0.9764 O   0  0  0  0  0  0  0  0  0  0  0  0
   13.0548   23.0761   -0.7904 N   0  0  0  0  0  0  0  0  0  0  0  0
   12.2919   23.7233   -1.1592 H   0  0  0  0  0  0  0  0  0  0  0  0
    9.5388   23.7524    2.8628 C   0  0  0  0  0  0  0  0  0  0  0  0
   10.1929   22.5553    3.0843 C   0  0  0  0  0  0  0  0  0  0  0  0
   11.2743   22.1621    2.3248 C   0  0  0  0  0  0  0  0  0  0  0  0
   11.7437   22.9608    1.3044 C   0  0  0  0  0  0  0  0  0  0  0  0
   11.1234   24.1525    1.0520 C   0  0  0  0  0  0  0  0  0  0  0  0
   10.0315   24.5225    1.8398 C   0  0  0  0  0  0  0  0  0  0  0  0
    7.2833   23.1372    3.5234 C   0  0  0  0  0  0  0  0  0  0  0  0
    8.3648   24.1868    3.6841 C   0  0  0  0  0  0  0  0  0  0  0  0
    7.8166   25.4824    3.1339 C   0  0  0  0  0  0  0  0  0  0  0  0
    8.7408   24.3815    5.1389 C   0  0  0  0  0  0  0  0  0  0  0  0
   14.1202   22.8010   -1.7077 C   0  0  0  0  0  0  0  0  0  0  0  0
   14.3377   23.8960   -2.6834 C   0  0  0  0  0  0  0  0  0  0  0  0
   15.3305   23.7072   -3.6669 C   0  0  0  0  0  0  0  0  0  0  0  0
   15.5676   24.6617   -4.6213 C   0  0  0  0  0  0  0  0  0  0  0  0
   14.8573   25.8591   -4.6821 C   0  0  0  0  0  0  0  0  0  0  0  0
   13.8849   26.0531   -3.7223 C   0  0  0  0  0  0  0  0  0  0  0  0
   13.1594   27.2001   -3.7394 F   0  0  0  0  0  0  0  0  0  0  0  0
   13.6479   25.0740   -2.7503 C   0  0  0  0  0  0  0  0  0  0  0  0
   15.1461   26.8213   -5.7273 C   0  0  0  0  0  0  0  0  0  0  0  0
   15.0655   26.4294   -6.9248 O   0  0  0  0  0  0  0  0  0  0  0  0
   15.4925   28.1112   -5.4326 O   0  0  0  0  0  0  0  0  0  0  0  0
   14.8321   28.8829   -5.2886 H   0  0  0  0  0  0  0  0  0  0  0  0
 11 12  1  0  0  0
 12 13  1  0  0  0
 12 14  1  0  0  0
 12  5  1  0  0  0
  5  6  2  0  0  0
  6  7  1  0  0  0
  7  8  2  0  0  0
  8  1  1  0  0  0
  1  2  2  0  0  0
  1  3  1  0  0  0
  3 15  1  0  0  0
 15 16  1  0  0  0
 16 17  2  0  0  0
 17 18  1  0  0  0
 18 19  2  0  0  0
 19 23  1  0  0  0
 23 24  2  0  0  0
 23 25  1  0  0  0
 19 20  1  0  0  0
 20 21  1  0  0  0
 20 22  2  0  0  0
  8  9  1  0  0  0
  9 10  2  0  0  0
 10  5  1  0  0  0
 22 16  1  0  0  0
  3  4  1  0  0  0
 25 26  1  0  0  0
M  END
> <minimizedAffinity>
-9.34690

> <CNNscore>
0.4694965780

> <CNNaffinity>
6.1768550873

> <CNN_VS>
2.9000122547

> <CNNaffinity_variance>
0.2615304589

$$$$
[H]OC(=O)c1c([H])c([H])c(C([H])([H])N([H])C(=O)c2c([H])c([H])c(C(C([H])([H])[H])(C([H])([H])[H])C([H])([H])[H])c([H])c2[H])c([H])c1F


 26 27  0  0  0  0  0  0  0  0999 V2000
   14.3298   26.0536   -3.4992 C   0  0  0  0  0  0  0  0  0  0  0  0
   14.6964   25.3142   -4.4595 O   0  0  0  0  0  0  0  0  0  0  0  0
   14.9208   25.8794   -2.2419 N   0  0  0  0  0  0  0  0  0  0  0  0
   14.5997   26.5262   -1.4574 H   0  0  0  0  0  0  0  0  0  0  0  0
   11.3759   29.0742   -4.1085 C   0  0  0  0  0  0  0  0  0  0  0  0
   12.0194   28.9278   -2.8942 C   0  0  0  0  0  0  0  0  0  0  0  0
   12.9687   27.9504   -2.6835 C   0  0  0  0  0  0  0  0  0  0  0  0
   13.3103   27.0741   -3.6910 C   0  0  0  0  0  0  0  0  0  0  0  0
   12.6957   27.1846   -4.9070 C   0  0  0  0  0  0  0  0  0  0  0  0
   11.7394   28.1858   -5.0887 C   0  0  0  0  0  0  0  0  0  0  0  0
   11.0654   31.3614   -4.8664 C   0  0  0  0  0  0  0  0  0  0  0  0
   10.3451   30.1340   -4.3452 C   0  0  0  0  0  0  0  0  0  0  0  0
    9.7035   30.5152   -3.0318 C   0  0  0  0  0  0  0  0  0  0  0  0
    9.2725   29.6663   -5.3078 C   0  0  0  0  0  0  0  0  0  0  0  0
   15.9358   24.9354   -1.8800 C   0  0  0  0  0  0  0  0  0  0  0  0
   15.3954   23.7537   -1.1659 C   0  0  0  0  0  0  0  0  0  0  0  0
   15.9855   23.4094    0.0676 C   0  0  0  0  0  0  0  0  0  0  0  0
   15.5200   22.3488    0.8001 C   0  0  0  0  0  0  0  0  0  0  0  0
   14.4532   21.5553    0.3825 C   0  0  0  0  0  0  0  0  0  0  0  0
   13.8706   21.8840   -0.8245 C   0  0  0  0  0  0  0  0  0  0  0  0
   12.8237   21.1469   -1.2752 F   0  0  0  0  0  0  0  0  0  0  0  0
   14.3512   22.9686   -1.5676 C   0  0  0  0  0  0  0  0  0  0  0  0
   13.9984   20.4568    1.2121 C   0  0  0  0  0  0  0  0  0  0  0  0
   12.8951   20.5909    1.8111 O   0  0  0  0  0  0  0  0  0  0  0  0
   14.7338   19.3111    1.3435 O   0  0  0  0  0  0  0  0  0  0  0  0
   14.6788   18.4981    0.7203 H   0  0  0  0  0  0  0  0  0  0  0  0
 11 12  1  0  0  0
 12 13  1  0  0  0
 12 14  1  0  0  0
 12  5  1  0  0  0
  5  6  2  0  0  0
  6  7  1  0  0  0
  7  8  2  0  0  0
  8  1  1  0  0  0
  1  2  2  0  0  0
  1  3  1  0  0  0
  3 15  1  0  0  0
 15 16  1  0  0  0
 16 17  2  0  0  0
 17 18  1  0  0  0
 18 19  2  0  0  0
 19 23  1  0  0  0
 23 24  2  0  0  0
 23 25  1  0  0  0
 19 20  1  0  0  0
 20 21  1  0  0  0
 20 22  2  0  0  0
  8  9  1  0  0  0
  9 10  2  0  0  0
 10  5  1  0  0  0
 22 16  1  0  0  0
  3  4  1  0  0  0
 25 26  1  0  0  0
M  END
> <minimizedAffinity>
19.35998

> <CNNscore>
0.4694248140

> <CNNaffinity>
5.6437234879

> <CNN_VS>
2.6493039131

> <CNNaffinity_variance>
0.5125310421

$$$$
[H]OC(=O)c1c([H])c([H])c(C([H])([H])N([H])C(=O)c2c([H])c([H])c(C(C([H])([H])[H])(C([H])([H])[H])C([H])([H])[H])c([H])c2[H])c([H])c1F


 26 27  0  0  0  0  0  0  0  0999 V2000
   12.9193   22.7652    0.4104 C   0  0  0  0  0  0  0  0  0  0  0  0
   13.0987   21.5584    0.0715 O   0  0  0  0  0  0  0  0  0  0  0  0
   13.8459   23.7320    0.0017 N   0  0  0  0  0  0  0  0  0  0  0  0
   13.6596   24.7408    0.2924 H   0  0  0  0  0  0  0  0  0  0  0  0
    9.5081   23.8478    2.7368 C   0  0  0  0  0  0  0  0  0  0  0  0
   10.0426   24.7070    1.7956 C   0  0  0  0  0  0  0  0  0  0  0  0
   11.1491   24.3714    1.0448 C   0  0  0  0  0  0  0  0  0  0  0  0
   11.7679   23.1513    1.2121 C   0  0  0  0  0  0  0  0  0  0  0  0
   11.2708   22.2731    2.1343 C   0  0  0  0  0  0  0  0  0  0  0  0
   10.1482   22.6425    2.8779 C   0  0  0  0  0  0  0  0  0  0  0  0
    7.7196   25.4751    2.9725 C   0  0  0  0  0  0  0  0  0  0  0  0
    8.3059   24.2046    3.5549 C   0  0  0  0  0  0  0  0  0  0  0  0
    8.7338   24.5165    4.9697 C   0  0  0  0  0  0  0  0  0  0  0  0
    7.2900   23.0807    3.5767 C   0  0  0  0  0  0  0  0  0  0  0  0
   15.0229   23.5304   -0.7898 C   0  0  0  0  0  0  0  0  0  0  0  0
   15.1533   24.5160   -1.8898 C   0  0  0  0  0  0  0  0  0  0  0  0
   14.0495   24.6837   -2.7511 C   0  0  0  0  0  0  0  0  0  0  0  0
   14.0842   25.5978   -3.7716 C   0  0  0  0  0  0  0  0  0  0  0  0
   15.1912   26.4066   -4.0211 C   0  0  0  0  0  0  0  0  0  0  0  0
   16.2769   26.2480   -3.1841 C   0  0  0  0  0  0  0  0  0  0  0  0
   17.3794   27.0152   -3.3795 F   0  0  0  0  0  0  0  0  0  0  0  0
   16.2347   25.3123   -2.1437 C   0  0  0  0  0  0  0  0  0  0  0  0
   15.1582   27.3659   -5.1076 C   0  0  0  0  0  0  0  0  0  0  0  0
   14.5680   27.0282   -6.1714 O   0  0  0  0  0  0  0  0  0  0  0  0
   15.7428   28.5968   -4.9895 O   0  0  0  0  0  0  0  0  0  0  0  0
   15.2885   29.4331   -4.6066 H   0  0  0  0  0  0  0  0  0  0  0  0
 11 12  1  0  0  0
 12 13  1  0  0  0
 12 14  1  0  0  0
 12  5  1  0  0  0
  5  6  2  0  0  0
  6  7  1  0  0  0
  7  8  2  0  0  0
  8  1  1  0  0  0
  1  2  2  0  0  0
  1  3  1  0  0  0
  3 15  1  0  0  0
 15 16  1  0  0  0
 16 17  2  0  0  0
 17 18  1  0  0  0
 18 19  2  0  0  0
 19 23  1  0  0  0
 23 24  2  0  0  0
 23 25  1  0  0  0
 19 20  1  0  0  0
 20 21  1  0  0  0
 20 22  2  0  0  0
  8  9  1  0  0  0
  9 10  2  0  0  0
 10  5  1  0  0  0
 22 16  1  0  0  0
  3  4  1  0  0  0
 25 26  1  0  0  0
M  END
> <minimizedAffinity>
-8.65479

> <CNNscore>
0.4451960921

> <CNNaffinity>
6.1282324791

> <CNN_VS>
2.7282650471

> <CNNaffinity_variance>
0.2931118011

$$$$
[H]OC(=O)c1c([H])c([H])c(C([H])([H])N([H])C(=O)c2c([H])c([H])c(C(C([H])([H])[H])(C([H])([H])[H])C([H])([H])[H])c([H])c2[H])c([H])c1F


 26 27  0  0  0  0  0  0  0  0999 V2000
   14.0650   23.2069    0.1464 C   0  0  0  0  0  0  0  0  0  0  0  0
   14.7346   22.1368    0.0455 O   0  0  0  0  0  0  0  0  0  0  0  0
   14.6681   24.4223   -0.1993 N   0  0  0  0  0  0  0  0  0  0  0  0
   14.0738   25.3036   -0.1156 H   0  0  0  0  0  0  0  0  0  0  0  0
   10.0348   23.1877    1.5525 C   0  0  0  0  0  0  0  0  0  0  0  0
   10.8721   22.1053    1.7452 C   0  0  0  0  0  0  0  0  0  0  0  0
   12.1727   22.0971    1.2879 C   0  0  0  0  0  0  0  0  0  0  0  0
   12.6868   23.1829    0.6126 C   0  0  0  0  0  0  0  0  0  0  0  0
   11.8903   24.2735    0.4000 C   0  0  0  0  0  0  0  0  0  0  0  0
   10.5781   24.2510    0.8768 C   0  0  0  0  0  0  0  0  0  0  0  0
    7.7344   22.7485    0.9066 C   0  0  0  0  0  0  0  0  0  0  0  0
    8.6218   23.2046    2.0474 C   0  0  0  0  0  0  0  0  0  0  0  0
    8.2233   24.6219    2.3857 C   0  0  0  0  0  0  0  0  0  0  0  0
    8.4475   22.3309    3.2730 C   0  0  0  0  0  0  0  0  0  0  0  0
   16.0024   24.6270   -0.6789 C   0  0  0  0  0  0  0  0  0  0  0  0
   16.0505   25.4329   -1.9225 C   0  0  0  0  0  0  0  0  0  0  0  0
   15.0597   25.1913   -2.8963 C   0  0  0  0  0  0  0  0  0  0  0  0
   15.0210   25.9178   -4.0578 C   0  0  0  0  0  0  0  0  0  0  0  0
   15.9405   26.9239   -4.3480 C   0  0  0  0  0  0  0  0  0  0  0  0
   16.9149   27.1660   -3.4012 C   0  0  0  0  0  0  0  0  0  0  0  0
   17.8323   28.1395   -3.6313 F   0  0  0  0  0  0  0  0  0  0  0  0
   16.9486   26.4201   -2.2171 C   0  0  0  0  0  0  0  0  0  0  0  0
   15.8350   27.6669   -5.5884 C   0  0  0  0  0  0  0  0  0  0  0  0
   15.7976   27.0093   -6.6654 O   0  0  0  0  0  0  0  0  0  0  0  0
   15.7754   29.0333   -5.5978 O   0  0  0  0  0  0  0  0  0  0  0  0
   14.9167   29.5886   -5.5155 H   0  0  0  0  0  0  0  0  0  0  0  0
 11 12  1  0  0  0
 12 13  1  0  0  0
 12 14  1  0  0  0
 12  5  1  0  0  0
  5  6  2  0  0  0
  6  7  1  0  0  0
  7  8  2  0  0  0
  8  1  1  0  0  0
  1  2  2  0  0  0
  1  3  1  0  0  0
  3 15  1  0  0  0
 15 16  1  0  0  0
 16 17  2  0  0  0
 17 18  1  0  0  0
 18 19  2  0  0  0
 19 23  1  0  0  0
 23 24  2  0  0  0
 23 25  1  0  0  0
 19 20  1  0  0  0
 20 21  1  0  0  0
 20 22  2  0  0  0
  8  9  1  0  0  0
  9 10  2  0  0  0
 10  5  1  0  0  0
 22 16  1  0  0  0
  3  4  1  0  0  0
 25 26  1  0  0  0
M  END
> <minimizedAffinity>
-8.67681

> <CNNscore>
0.4279850125

> <CNNaffinity>
6.2318620682

> <CNN_VS>
2.6671435833

> <CNNaffinity_variance>
0.4251170158

$$$$
[H]OC(=O)c1c([H])c([H])c(C([H])([H])N([H])C(=O)c2c([H])c([H])c(C(C([H])([H])[H])(C([H])([H])[H])C([H])([H])[H])c([H])c2[H])c([H])c1F


 26 27  0  0  0  0  0  0  0  0999 V2000
   14.1432   23.6434   -0.3576 C   0  0  0  0  0  0  0  0  0  0  0  0
   15.0096   22.9961    0.3010 O   0  0  0  0  0  0  0  0  0  0  0  0
   12.7930   23.5247   -0.0067 N   0  0  0  0  0  0  0  0  0  0  0  0
   12.0896   24.0924   -0.5722 H   0  0  0  0  0  0  0  0  0  0  0  0
   15.2782   26.1173   -3.6458 C   0  0  0  0  0  0  0  0  0  0  0  0
   16.2001   25.6983   -2.7053 C   0  0  0  0  0  0  0  0  0  0  0  0
   15.8431   24.9064   -1.6346 C   0  0  0  0  0  0  0  0  0  0  0  0
   14.5365   24.5026   -1.4642 C   0  0  0  0  0  0  0  0  0  0  0  0
   13.5935   24.8969   -2.3721 C   0  0  0  0  0  0  0  0  0  0  0  0
   13.9873   25.6978   -3.4459 C   0  0  0  0  0  0  0  0  0  0  0  0
   14.5221   27.9503   -5.0495 C   0  0  0  0  0  0  0  0  0  0  0  0
   15.6585   26.9761   -4.8118 C   0  0  0  0  0  0  0  0  0  0  0  0
   15.7803   26.1194   -6.0501 C   0  0  0  0  0  0  0  0  0  0  0  0
   16.9696   27.6967   -4.5722 C   0  0  0  0  0  0  0  0  0  0  0  0
   12.2341   22.7355    1.0503 C   0  0  0  0  0  0  0  0  0  0  0  0
   10.9811   22.0480    0.6554 C   0  0  0  0  0  0  0  0  0  0  0  0
   10.9746   21.3568   -0.5736 C   0  0  0  0  0  0  0  0  0  0  0  0
    9.8633   20.6720   -0.9913 C   0  0  0  0  0  0  0  0  0  0  0  0
    8.6887   20.6145   -0.2437 C   0  0  0  0  0  0  0  0  0  0  0  0
    8.6856   21.2897    0.9599 C   0  0  0  0  0  0  0  0  0  0  0  0
    7.5685   21.2614    1.7304 F   0  0  0  0  0  0  0  0  0  0  0  0
    9.8241   21.9872    1.3803 C   0  0  0  0  0  0  0  0  0  0  0  0
    7.5529   19.8591   -0.7346 C   0  0  0  0  0  0  0  0  0  0  0  0
    7.1479   18.8878   -0.0371 O   0  0  0  0  0  0  0  0  0  0  0  0
    6.9358   20.1839   -1.9112 O   0  0  0  0  0  0  0  0  0  0  0  0
    6.1740   20.8635   -2.0117 H   0  0  0  0  0  0  0  0  0  0  0  0
 11 12  1  0  0  0
 12 13  1  0  0  0
 12 14  1  0  0  0
 12  5  1  0  0  0
  5  6  2  0  0  0
  6  7  1  0  0  0
  7  8  2  0  0  0
  8  1  1  0  0  0
  1  2  2  0  0  0
  1  3  1  0  0  0
  3 15  1  0  0  0
 15 16  1  0  0  0
 16 17  2  0  0  0
 17 18  1  0  0  0
 18 19  2  0  0  0
 19 23  1  0  0  0
 23 24  2  0  0  0
 23 25  1  0  0  0
 19 20  1  0  0  0
 20 21  1  0  0  0
 20 22  2  0  0  0
  8  9  1  0  0  0
  9 10  2  0  0  0
 10  5  1  0  0  0
 22 16  1  0  0  0
  3  4  1  0  0  0
 25 26  1  0  0  0
M  END
> <minimizedAffinity>
-7.21199

> <CNNscore>
0.3968415260

> <CNNaffinity>
6.1393604279

> <CNN_VS>
2.4363532066

> <CNNaffinity_variance>
0.4034851491

$$$$
[H]OC(=O)c1c([H])c([H])c(C([H])([H])N([H])C(=O)c2c([H])c([H])c(C(C([H])([H])[H])(C([H])([H])[H])C([H])([H])[H])c([H])c2[H])c([H])c1F


 26 27  0  0  0  0  0  0  0  0999 V2000
   12.1312   22.2414   -0.1634 C   0  0  0  0  0  0  0  0  0  0  0  0
   11.9277   21.1070   -0.6880 O   0  0  0  0  0  0  0  0  0  0  0  0
   13.1887   23.0292   -0.6341 N   0  0  0  0  0  0  0  0  0  0  0  0
   13.3257   23.9844   -0.1805 H   0  0  0  0  0  0  0  0  0  0  0  0
    9.6019   23.6167    2.9881 C   0  0  0  0  0  0  0  0  0  0  0  0
    9.7551   24.3368    1.8186 C   0  0  0  0  0  0  0  0  0  0  0  0
   10.5758   23.9066    0.7978 C   0  0  0  0  0  0  0  0  0  0  0  0
   11.2816   22.7284    0.9130 C   0  0  0  0  0  0  0  0  0  0  0  0
   11.1587   21.9871    2.0550 C   0  0  0  0  0  0  0  0  0  0  0  0
   10.3186   22.4496    3.0698 C   0  0  0  0  0  0  0  0  0  0  0  0
    8.9672   25.5563    4.3061 C   0  0  0  0  0  0  0  0  0  0  0  0
    8.7114   24.0767    4.1004 C   0  0  0  0  0  0  0  0  0  0  0  0
    9.0988   23.3732    5.3798 C   0  0  0  0  0  0  0  0  0  0  0  0
    7.2523   23.7996    3.8003 C   0  0  0  0  0  0  0  0  0  0  0  0
   14.1122   22.7110   -1.6820 C   0  0  0  0  0  0  0  0  0  0  0  0
   14.3068   23.8281   -2.6373 C   0  0  0  0  0  0  0  0  0  0  0  0
   15.2477   23.6467   -3.6718 C   0  0  0  0  0  0  0  0  0  0  0  0
   15.4599   24.6223   -4.6107 C   0  0  0  0  0  0  0  0  0  0  0  0
   14.7734   25.8350   -4.6053 C   0  0  0  0  0  0  0  0  0  0  0  0
   13.8517   26.0219   -3.5953 C   0  0  0  0  0  0  0  0  0  0  0  0
   13.1510   27.1833   -3.5470 F   0  0  0  0  0  0  0  0  0  0  0  0
   13.6400   25.0212   -2.6396 C   0  0  0  0  0  0  0  0  0  0  0  0
   15.0330   26.8198   -5.6371 C   0  0  0  0  0  0  0  0  0  0  0  0
   14.8089   26.4887   -6.8346 O   0  0  0  0  0  0  0  0  0  0  0  0
   15.5027   28.0671   -5.3297 O   0  0  0  0  0  0  0  0  0  0  0  0
   14.9195   28.8769   -5.0924 H   0  0  0  0  0  0  0  0  0  0  0  0
 11 12  1  0  0  0
 12 13  1  0  0  0
 12 14  1  0  0  0
 12  5  1  0  0  0
  5  6  2  0  0  0
  6  7  1  0  0  0
  7  8  2  0  0  0
  8  1  1  0  0  0
  1  2  2  0  0  0
  1  3  1  0  0  0
  3 15  1  0  0  0
 15 16  1  0  0  0
 16 17  2  0  0  0
 17 18  1  0  0  0
 18 19  2  0  0  0
 19 23  1  0  0  0
 23 24  2  0  0  0
 23 25  1  0  0  0
 19 20  1  0  0  0
 20 21  1  0  0  0
 20 22  2  0  0  0
  8  9  1  0  0  0
  9 10  2  0  0  0
 10  5  1  0  0  0
 22 16  1  0  0  0
  3  4  1  0  0  0
 25 26  1  0  0  0
M  END
> <minimizedAffinity>
-8.98105

> <CNNscore>
0.3879226744

> <CNNaffinity>
5.9528484344

> <CNN_VS>
2.3092448711

> <CNNaffinity_variance>
0.2418181449

$$$$
[H]Oc1c([H])c(O[H])c([H])c([C@@]([H])(O[H])C([H])([H])N([H])[C@@]([H])(C([H])([H])[H])C([H])([H])c2c([H])c([H])c(OC([H])([H])[H])c([H])c2[H])c1[H]


 27 28  0  0  0  0  0  0  0  0999 V2000
    9.9716   21.1710   -0.0756 C   0  0  0  0  0  0  0  0  0  0  0  0
   11.0498   20.2131    0.2920 C   0  0  0  0  0  0  0  0  0  0  0  0
   11.0421   20.0443    1.7261 O   0  0  0  0  0  0  0  0  0  0  0  0
   10.7856   19.1204    1.8778 H   0  0  0  0  0  0  0  0  0  0  0  0
   12.4393   20.7008    0.0203 C   0  0  0  0  0  0  0  0  0  0  0  0
   13.3929   20.8512    0.9831 C   0  0  0  0  0  0  0  0  0  0  0  0
   14.6817   21.3077    0.6855 C   0  0  0  0  0  0  0  0  0  0  0  0
   15.6608   21.4659    1.6513 O   0  0  0  0  0  0  0  0  0  0  0  0
   14.9793   21.6085   -0.6193 C   0  0  0  0  0  0  0  0  0  0  0  0
   14.0618   21.4769   -1.6307 C   0  0  0  0  0  0  0  0  0  0  0  0
   14.4007   21.7910   -2.9401 O   0  0  0  0  0  0  0  0  0  0  0  0
   12.8049   21.0240   -1.2907 C   0  0  0  0  0  0  0  0  0  0  0  0
   16.2471   20.6325    1.8168 H   0  0  0  0  0  0  0  0  0  0  0  0
   14.7885   21.0036   -3.4816 H   0  0  0  0  0  0  0  0  0  0  0  0
    9.4117   22.0030    0.8875 N   0  0  0  0  0  0  0  0  0  0  0  0
    8.5750   21.6136    1.3904 H   0  0  0  0  0  0  0  0  0  0  0  0
    9.5553   23.3818    0.9153 C   0  0  0  0  0  0  0  0  0  0  0  0
    8.3770   24.0902    1.5196 C   0  0  0  0  0  0  0  0  0  0  0  0
   10.8580   23.9179    1.4431 C   0  0  0  0  0  0  0  0  0  0  0  0
   13.2843   25.1558   -1.9043 C   0  0  0  0  0  0  0  0  0  0  0  0
   11.9383   24.8920   -2.0472 C   0  0  0  0  0  0  0  0  0  0  0  0
   11.1584   24.4976   -0.9725 C   0  0  0  0  0  0  0  0  0  0  0  0
   11.6966   24.3507    0.2935 C   0  0  0  0  0  0  0  0  0  0  0  0
   13.0442   24.6146    0.4380 C   0  0  0  0  0  0  0  0  0  0  0  0
   13.8166   25.0082   -0.6409 C   0  0  0  0  0  0  0  0  0  0  0  0
   13.6358   26.4438   -3.9645 C   0  0  0  0  0  0  0  0  0  0  0  0
   14.0899   25.5540   -2.9696 O   0  0  0  0  0  0  0  0  0  0  0  0
 26 27  1  0  0  0
 27 20  1  0  0  0
 20 21  2  0  0  0
 21 22  1  0  0  0
 22 23  2  0  0  0
 23 19  1  0  0  0
 19 17  1  0  0  0
 17 18  1  0  0  0
 17 15  1  0  0  0
 15  1  1  0  0  0
  1  2  1  0  0  0
  2  3  1  0  0  0
  2  5  1  0  0  0
  5  6  2  0  0  0
  6  7  1  0  0  0
  7  8  1  0  0  0
  7  9  2  0  0  0
  9 10  1  0  0  0
 10 11  1  0  0  0
 10 12  2  0  0  0
 23 24  1  0  0  0
 24 25  2  0  0  0
 25 20  1  0  0  0
 12  5  1  0  0  0
 15 16  1  0  0  0
  3  4  1  0  0  0
  8 13  1  0  0  0
 11 14  1  0  0  0
M  END
> <minimizedAffinity>
-7.40948

> <CNNscore>
0.6559761167

> <CNNaffinity>
6.5439996719

> <CNN_VS>
4.2927074432

> <CNNaffinity_variance>
0.0686807856

$$$$
[H]Oc1c([H])c(O[H])c([H])c([C@@]([H])(O[H])C([H])([H])N([H])[C@@]([H])(C([H])([H])[H])C([H])([H])c2c([H])c([H])c(OC([H])([H])[H])c([H])c2[H])c1[H]


 27 28  0  0  0  0  0  0  0  0999 V2000
   10.6456   22.4727   -1.7017 C   0  0  0  0  0  0  0  0  0  0  0  0
   10.0301   21.4347   -0.8307 C   0  0  0  0  0  0  0  0  0  0  0  0
    8.7051   21.8744   -0.4615 O   0  0  0  0  0  0  0  0  0  0  0  0
    8.0961   21.2447   -0.8798 H   0  0  0  0  0  0  0  0  0  0  0  0
   10.7026   21.2508    0.4946 C   0  0  0  0  0  0  0  0  0  0  0  0
   10.0447   21.2676    1.6886 C   0  0  0  0  0  0  0  0  0  0  0  0
   10.7117   21.0886    2.9056 C   0  0  0  0  0  0  0  0  0  0  0  0
   10.0584   21.1032    4.1259 O   0  0  0  0  0  0  0  0  0  0  0  0
   12.0689   20.8910    2.8797 C   0  0  0  0  0  0  0  0  0  0  0  0
   12.7846   20.8638    1.7096 C   0  0  0  0  0  0  0  0  0  0  0  0
   14.1581   20.6606    1.7238 O   0  0  0  0  0  0  0  0  0  0  0  0
   12.0856   21.0448    0.5352 C   0  0  0  0  0  0  0  0  0  0  0  0
    9.7153   20.1838    4.4466 H   0  0  0  0  0  0  0  0  0  0  0  0
   14.4441   19.6713    1.6692 H   0  0  0  0  0  0  0  0  0  0  0  0
   10.5986   23.8139   -1.3380 N   0  0  0  0  0  0  0  0  0  0  0  0
    9.7890   24.3599   -1.7268 H   0  0  0  0  0  0  0  0  0  0  0  0
   11.6948   24.5557   -0.9250 C   0  0  0  0  0  0  0  0  0  0  0  0
   11.6617   24.9025    0.5358 C   0  0  0  0  0  0  0  0  0  0  0  0
   13.0497   24.0579   -1.3485 C   0  0  0  0  0  0  0  0  0  0  0  0
   14.3583   26.3758   -4.7455 C   0  0  0  0  0  0  0  0  0  0  0  0
   13.2875   26.7710   -3.9716 C   0  0  0  0  0  0  0  0  0  0  0  0
   12.8690   26.0290   -2.8794 C   0  0  0  0  0  0  0  0  0  0  0  0
   13.5079   24.8569   -2.5164 C   0  0  0  0  0  0  0  0  0  0  0  0
   14.5803   24.4600   -3.2904 C   0  0  0  0  0  0  0  0  0  0  0  0
   14.9923   25.2070   -4.3802 C   0  0  0  0  0  0  0  0  0  0  0  0
   15.6258   26.5408   -6.8415 C   0  0  0  0  0  0  0  0  0  0  0  0
   14.7986   27.1047   -5.8487 O   0  0  0  0  0  0  0  0  0  0  0  0
 26 27  1  0  0  0
 27 20  1  0  0  0
 20 21  2  0  0  0
 21 22  1  0  0  0
 22 23  2  0  0  0
 23 19  1  0  0  0
 19 17  1  0  0  0
 17 18  1  0  0  0
 17 15  1  0  0  0
 15  1  1  0  0  0
  1  2  1  0  0  0
  2  3  1  0  0  0
  2  5  1  0  0  0
  5  6  2  0  0  0
  6  7  1  0  0  0
  7  8  1  0  0  0
  7  9  2  0  0  0
  9 10  1  0  0  0
 10 11  1  0  0  0
 10 12  2  0  0  0
 23 24  1  0  0  0
 24 25  2  0  0  0
 25 20  1  0  0  0
 12  5  1  0  0  0
 15 16  1  0  0  0
  3  4  1  0  0  0
  8 13  1  0  0  0
 11 14  1  0  0  0
M  END
> <minimizedAffinity>
-8.27893

> <CNNscore>
0.5534356833

> <CNNaffinity>
6.3963036537

> <CNN_VS>
3.5399427414

> <CNNaffinity_variance>
0.0980657786

$$$$
[H]Oc1c([H])c(O[H])c([H])c([C@@]([H])(O[H])C([H])([H])N([H])[C@@]([H])(C([H])([H])[H])C([H])([H])c2c([H])c([H])c(OC([H])([H])[H])c([H])c2[H])c1[H]


 27 28  0  0  0  0  0  0  0  0999 V2000
   10.7467   23.1055   -1.4996 C   0  0  0  0  0  0  0  0  0  0  0  0
    9.9155   22.4034   -0.4841 C   0  0  0  0  0  0  0  0  0  0  0  0
    9.1047   23.3833    0.1999 O   0  0  0  0  0  0  0  0  0  0  0  0
    8.1874   23.1754   -0.0406 H   0  0  0  0  0  0  0  0  0  0  0  0
   10.6904   21.7733    0.6316 C   0  0  0  0  0  0  0  0  0  0  0  0
   12.0366   21.5604    0.5953 C   0  0  0  0  0  0  0  0  0  0  0  0
   12.7232   20.9702    1.6622 C   0  0  0  0  0  0  0  0  0  0  0  0
   14.0893   20.7471    1.6407 O   0  0  0  0  0  0  0  0  0  0  0  0
   12.0059   20.6006    2.7715 C   0  0  0  0  0  0  0  0  0  0  0  0
   10.6505   20.7896    2.8658 C   0  0  0  0  0  0  0  0  0  0  0  0
    9.9587   20.4026    4.0059 O   0  0  0  0  0  0  0  0  0  0  0  0
   10.0161   21.3744    1.7905 C   0  0  0  0  0  0  0  0  0  0  0  0
   14.6626   21.5238    2.0068 H   0  0  0  0  0  0  0  0  0  0  0  0
    9.8930   21.1305    4.7334 H   0  0  0  0  0  0  0  0  0  0  0  0
   11.0104   24.4649   -1.3746 N   0  0  0  0  0  0  0  0  0  0  0  0
   10.3522   25.1025   -1.8891 H   0  0  0  0  0  0  0  0  0  0  0  0
   12.2464   24.9992   -1.0440 C   0  0  0  0  0  0  0  0  0  0  0  0
   12.3713   25.3538    0.4100 C   0  0  0  0  0  0  0  0  0  0  0  0
   13.4595   24.2632   -1.5438 C   0  0  0  0  0  0  0  0  0  0  0  0
   14.7827   26.1297   -5.2031 C   0  0  0  0  0  0  0  0  0  0  0  0
   13.7780   26.6795   -4.4349 C   0  0  0  0  0  0  0  0  0  0  0  0
   13.3550   26.0824   -3.2587 C   0  0  0  0  0  0  0  0  0  0  0  0
   13.9229   24.9064   -2.8023 C   0  0  0  0  0  0  0  0  0  0  0  0
   14.9290   24.3548   -3.5705 C   0  0  0  0  0  0  0  0  0  0  0  0
   15.3459   24.9575   -4.7445 C   0  0  0  0  0  0  0  0  0  0  0  0
   15.6732   25.9416   -7.4831 C   0  0  0  0  0  0  0  0  0  0  0  0
   15.2259   26.7110   -6.3896 O   0  0  0  0  0  0  0  0  0  0  0  0
 26 27  1  0  0  0
 27 20  1  0  0  0
 20 21  2  0  0  0
 21 22  1  0  0  0
 22 23  2  0  0  0
 23 19  1  0  0  0
 19 17  1  0  0  0
 17 18  1  0  0  0
 17 15  1  0  0  0
 15  1  1  0  0  0
  1  2  1  0  0  0
  2  3  1  0  0  0
  2  5  1  0  0  0
  5  6  2  0  0  0
  6  7  1  0  0  0
  7  8  1  0  0  0
  7  9  2  0  0  0
  9 10  1  0  0  0
 10 11  1  0  0  0
 10 12  2  0  0  0
 23 24  1  0  0  0
 24 25  2  0  0  0
 25 20  1  0  0  0
 12  5  1  0  0  0
 15 16  1  0  0  0
  3  4  1  0  0  0
  8 13  1  0  0  0
 11 14  1  0  0  0
M  END
> <minimizedAffinity>
-8.14938

> <CNNscore>
0.4991792738

> <CNNaffinity>
6.3465185165

> <CNN_VS>
3.1680505276

> <CNNaffinity_variance>
0.1516375244

$$$$
[H]Oc1c([H])c(O[H])c([H])c([C@@]([H])(O[H])C([H])([H])N([H])[C@@]([H])(C([H])([H])[H])C([H])([H])c2c([H])c([H])c(OC([H])([H])[H])c([H])c2[H])c1[H]


 27 28  0  0  0  0  0  0  0  0999 V2000
   11.4429   24.5279    0.1004 C   0  0  0  0  0  0  0  0  0  0  0  0
   10.4913   23.4953    0.5939 C   0  0  0  0  0  0  0  0  0  0  0  0
    9.2771   23.5840   -0.1827 O   0  0  0  0  0  0  0  0  0  0  0  0
    9.2247   22.7516   -0.6795 H   0  0  0  0  0  0  0  0  0  0  0  0
   10.0082   23.7082    1.9951 C   0  0  0  0  0  0  0  0  0  0  0  0
    9.8924   22.7113    2.9180 C   0  0  0  0  0  0  0  0  0  0  0  0
    9.4388   22.9542    4.2192 C   0  0  0  0  0  0  0  0  0  0  0  0
    9.3154   21.9532    5.1675 O   0  0  0  0  0  0  0  0  0  0  0  0
    9.1048   24.2399    4.5615 C   0  0  0  0  0  0  0  0  0  0  0  0
    9.2009   25.2837    3.6764 C   0  0  0  0  0  0  0  0  0  0  0  0
    8.8539   26.5722    4.0602 O   0  0  0  0  0  0  0  0  0  0  0  0
    9.6523   24.9972    2.4057 C   0  0  0  0  0  0  0  0  0  0  0  0
   10.1580   21.7919    5.7418 H   0  0  0  0  0  0  0  0  0  0  0  0
    9.6294   27.1225    4.4595 H   0  0  0  0  0  0  0  0  0  0  0  0
   12.7580   24.5451    0.5515 N   0  0  0  0  0  0  0  0  0  0  0  0
   12.9042   24.9660    1.5033 H   0  0  0  0  0  0  0  0  0  0  0  0
   13.8725   24.4915   -0.2716 C   0  0  0  0  0  0  0  0  0  0  0  0
   15.1466   24.2067    0.4707 C   0  0  0  0  0  0  0  0  0  0  0  0
   13.7561   23.6576   -1.5182 C   0  0  0  0  0  0  0  0  0  0  0  0
   14.5336   26.1743   -4.9368 C   0  0  0  0  0  0  0  0  0  0  0  0
   15.2421   25.0109   -4.7211 C   0  0  0  0  0  0  0  0  0  0  0  0
   14.9908   24.2012   -3.6257 C   0  0  0  0  0  0  0  0  0  0  0  0
   14.0165   24.5247   -2.6983 C   0  0  0  0  0  0  0  0  0  0  0  0
   13.3064   25.6893   -2.9130 C   0  0  0  0  0  0  0  0  0  0  0  0
   13.5635   26.4929   -4.0101 C   0  0  0  0  0  0  0  0  0  0  0  0
   15.7930   26.7498   -6.9640 C   0  0  0  0  0  0  0  0  0  0  0  0
   14.7674   27.0053   -6.0308 O   0  0  0  0  0  0  0  0  0  0  0  0
 26 27  1  0  0  0
 27 20  1  0  0  0
 20 21  2  0  0  0
 21 22  1  0  0  0
 22 23  2  0  0  0
 23 19  1  0  0  0
 19 17  1  0  0  0
 17 18  1  0  0  0
 17 15  1  0  0  0
 15  1  1  0  0  0
  1  2  1  0  0  0
  2  3  1  0  0  0
  2  5  1  0  0  0
  5  6  2  0  0  0
  6  7  1  0  0  0
  7  8  1  0  0  0
  7  9  2  0  0  0
  9 10  1  0  0  0
 10 11  1  0  0  0
 10 12  2  0  0  0
 23 24  1  0  0  0
 24 25  2  0  0  0
 25 20  1  0  0  0
 12  5  1  0  0  0
 15 16  1  0  0  0
  3  4  1  0  0  0
  8 13  1  0  0  0
 11 14  1  0  0  0
M  END
> <minimizedAffinity>
-8.25401

> <CNNscore>
0.4856650829

> <CNNaffinity>
5.7918043137

> <CNN_VS>
2.8128771782

> <CNNaffinity_variance>
0.0518770218

$$$$
[H]Oc1c([H])c(O[H])c([H])c([C@@]([H])(O[H])C([H])([H])N([H])[C@@]([H])(C([H])([H])[H])C([H])([H])c2c([H])c([H])c(OC([H])([H])[H])c([H])c2[H])c1[H]


 27 28  0  0  0  0  0  0  0  0999 V2000
   14.3741   23.7942   -2.5877 C   0  0  0  0  0  0  0  0  0  0  0  0
   15.6943   24.4634   -2.4322 C   0  0  0  0  0  0  0  0  0  0  0  0
   15.7730   25.0157   -1.1003 O   0  0  0  0  0  0  0  0  0  0  0  0
   16.4760   24.5174   -0.6533 H   0  0  0  0  0  0  0  0  0  0  0  0
   15.8936   25.6643   -3.3043 C   0  0  0  0  0  0  0  0  0  0  0  0
   16.8056   26.6451   -3.0488 C   0  0  0  0  0  0  0  0  0  0  0  0
   16.9618   27.7506   -3.8923 C   0  0  0  0  0  0  0  0  0  0  0  0
   17.8826   28.7547   -3.6468 O   0  0  0  0  0  0  0  0  0  0  0  0
   16.1659   27.8354   -5.0064 C   0  0  0  0  0  0  0  0  0  0  0  0
   15.2315   26.8797   -5.3155 C   0  0  0  0  0  0  0  0  0  0  0  0
   14.4444   27.0002   -6.4531 O   0  0  0  0  0  0  0  0  0  0  0  0
   15.1126   25.8086   -4.4558 C   0  0  0  0  0  0  0  0  0  0  0  0
   18.8151   28.6007   -4.0623 H   0  0  0  0  0  0  0  0  0  0  0  0
   14.8479   26.5703   -7.2992 H   0  0  0  0  0  0  0  0  0  0  0  0
   13.7429   23.2204   -1.4897 N   0  0  0  0  0  0  0  0  0  0  0  0
   13.9756   22.2113   -1.3105 H   0  0  0  0  0  0  0  0  0  0  0  0
   12.5627   23.6850   -0.9295 C   0  0  0  0  0  0  0  0  0  0  0  0
   12.0819   24.9712   -1.5375 C   0  0  0  0  0  0  0  0  0  0  0  0
   11.4455   22.6891   -0.7774 C   0  0  0  0  0  0  0  0  0  0  0  0
   11.5137   21.1101    3.2384 C   0  0  0  0  0  0  0  0  0  0  0  0
   12.2892   20.5665    2.2360 C   0  0  0  0  0  0  0  0  0  0  0  0
   12.2699   21.0749    0.9476 C   0  0  0  0  0  0  0  0  0  0  0  0
   11.4706   22.1521    0.6094 C   0  0  0  0  0  0  0  0  0  0  0  0
   10.6935   22.6974    1.6121 C   0  0  0  0  0  0  0  0  0  0  0  0
   10.7184   22.1837    2.8970 C   0  0  0  0  0  0  0  0  0  0  0  0
   10.3566   20.0913    5.1489 C   0  0  0  0  0  0  0  0  0  0  0  0
   11.5155   20.6170    4.5419 O   0  0  0  0  0  0  0  0  0  0  0  0
 26 27  1  0  0  0
 27 20  1  0  0  0
 20 21  2  0  0  0
 21 22  1  0  0  0
 22 23  2  0  0  0
 23 19  1  0  0  0
 19 17  1  0  0  0
 17 18  1  0  0  0
 17 15  1  0  0  0
 15  1  1  0  0  0
  1  2  1  0  0  0
  2  3  1  0  0  0
  2  5  1  0  0  0
  5  6  2  0  0  0
  6  7  1  0  0  0
  7  8  1  0  0  0
  7  9  2  0  0  0
  9 10  1  0  0  0
 10 11  1  0  0  0
 10 12  2  0  0  0
 23 24  1  0  0  0
 24 25  2  0  0  0
 25 20  1  0  0  0
 12  5  1  0  0  0
 15 16  1  0  0  0
  3  4  1  0  0  0
  8 13  1  0  0  0
 11 14  1  0  0  0
M  END
> <minimizedAffinity>
-7.96429

> <CNNscore>
0.4475707412

> <CNNaffinity>
6.0925383568

> <CNN_VS>
2.7268419266

> <CNNaffinity_variance>
0.2190901041

$$$$
[H]Oc1c([H])c(O[H])c([H])c([C@@]([H])(O[H])C([H])([H])N([H])[C@@]([H])(C([H])([H])[H])C([H])([H])c2c([H])c([H])c(OC([H])([H])[H])c([H])c2[H])c1[H]


 27 28  0  0  0  0  0  0  0  0999 V2000
   12.6770   21.8416    0.7982 C   0  0  0  0  0  0  0  0  0  0  0  0
   11.6081   21.4952    1.7742 C   0  0  0  0  0  0  0  0  0  0  0  0
   11.0173   20.2384    1.3784 O   0  0  0  0  0  0  0  0  0  0  0  0
   11.2434   19.6111    2.0840 H   0  0  0  0  0  0  0  0  0  0  0  0
   10.4372   22.4287    1.7772 C   0  0  0  0  0  0  0  0  0  0  0  0
   10.3635   23.5516    2.5469 C   0  0  0  0  0  0  0  0  0  0  0  0
    9.2506   24.3993    2.5174 C   0  0  0  0  0  0  0  0  0  0  0  0
    9.1604   25.5427    3.2926 O   0  0  0  0  0  0  0  0  0  0  0  0
    8.2105   24.0772    1.6832 C   0  0  0  0  0  0  0  0  0  0  0  0
    8.2277   22.9613    0.8855 C   0  0  0  0  0  0  0  0  0  0  0  0
    7.1554   22.6686    0.0532 O   0  0  0  0  0  0  0  0  0  0  0  0
    9.3444   22.1553    0.9477 C   0  0  0  0  0  0  0  0  0  0  0  0
    9.5313   26.3986    2.8501 H   0  0  0  0  0  0  0  0  0  0  0  0
    7.2225   23.0794   -0.8903 H   0  0  0  0  0  0  0  0  0  0  0  0
   13.3919   23.0269    0.9296 N   0  0  0  0  0  0  0  0  0  0  0  0
   13.1726   23.5949    1.7863 H   0  0  0  0  0  0  0  0  0  0  0  0
   13.9823   23.7100   -0.1227 C   0  0  0  0  0  0  0  0  0  0  0  0
   15.3807   24.1687    0.1763 C   0  0  0  0  0  0  0  0  0  0  0  0
   13.8829   23.0770   -1.4837 C   0  0  0  0  0  0  0  0  0  0  0  0
   14.4876   26.1323   -4.4711 C   0  0  0  0  0  0  0  0  0  0  0  0
   15.2751   25.0011   -4.4261 C   0  0  0  0  0  0  0  0  0  0  0  0
   15.0794   24.0187   -3.4693 C   0  0  0  0  0  0  0  0  0  0  0  0
   14.0838   24.1295   -2.5153 C   0  0  0  0  0  0  0  0  0  0  0  0
   13.2945   25.2616   -2.5592 C   0  0  0  0  0  0  0  0  0  0  0  0
   13.4964   26.2386   -3.5184 C   0  0  0  0  0  0  0  0  0  0  0  0
   15.8482   27.8957   -5.5034 C   0  0  0  0  0  0  0  0  0  0  0  0
   14.6643   27.1343   -5.4234 O   0  0  0  0  0  0  0  0  0  0  0  0
 26 27  1  0  0  0
 27 20  1  0  0  0
 20 21  2  0  0  0
 21 22  1  0  0  0
 22 23  2  0  0  0
 23 19  1  0  0  0
 19 17  1  0  0  0
 17 18  1  0  0  0
 17 15  1  0  0  0
 15  1  1  0  0  0
  1  2  1  0  0  0
  2  3  1  0  0  0
  2  5  1  0  0  0
  5  6  2  0  0  0
  6  7  1  0  0  0
  7  8  1  0  0  0
  7  9  2  0  0  0
  9 10  1  0  0  0
 10 11  1  0  0  0
 10 12  2  0  0  0
 23 24  1  0  0  0
 24 25  2  0  0  0
 25 20  1  0  0  0
 12  5  1  0  0  0
 15 16  1  0  0  0
  3  4  1  0  0  0
  8 13  1  0  0  0
 11 14  1  0  0  0
M  END
> <minimizedAffinity>
-8.17476

> <CNNscore>
0.4375681579

> <CNNaffinity>
6.0009145737

> <CNN_VS>
2.6258091927

> <CNNaffinity_variance>
0.0853050128

$$$$
[H]Oc1c([H])c(O[H])c([H])c([C@@]([H])(O[H])C([H])([H])N([H])[C@@]([H])(C([H])([H])[H])C([H])([H])c2c([H])c([H])c(OC([H])([H])[H])c([H])c2[H])c1[H]


 27 28  0  0  0  0  0  0  0  0999 V2000
   14.9546   22.2021    0.4156 C   0  0  0  0  0  0  0  0  0  0  0  0
   14.2462   20.9705   -0.0274 C   0  0  0  0  0  0  0  0  0  0  0  0
   14.3839   20.8540   -1.4602 O   0  0  0  0  0  0  0  0  0  0  0  0
   14.9208   20.0584   -1.6060 H   0  0  0  0  0  0  0  0  0  0  0  0
   12.7614   20.9994    0.1643 C   0  0  0  0  0  0  0  0  0  0  0  0
   12.1504   20.8890    1.3782 C   0  0  0  0  0  0  0  0  0  0  0  0
   10.7581   20.9238    1.5136 C   0  0  0  0  0  0  0  0  0  0  0  0
   10.1226   20.8129    2.7384 O   0  0  0  0  0  0  0  0  0  0  0  0
    9.9987   21.0745    0.3812 C   0  0  0  0  0  0  0  0  0  0  0  0
   10.5566   21.1908   -0.8667 C   0  0  0  0  0  0  0  0  0  0  0  0
    9.7545   21.3426   -1.9900 O   0  0  0  0  0  0  0  0  0  0  0  0
   11.9320   21.1510   -0.9519 C   0  0  0  0  0  0  0  0  0  0  0  0
    9.9583   21.7081    3.2258 H   0  0  0  0  0  0  0  0  0  0  0  0
    9.5390   22.3217   -2.2318 H   0  0  0  0  0  0  0  0  0  0  0  0
   14.2677   23.4056    0.5305 N   0  0  0  0  0  0  0  0  0  0  0  0
   13.4623   23.4041    1.2057 H   0  0  0  0  0  0  0  0  0  0  0  0
   14.2524   24.3980   -0.4377 C   0  0  0  0  0  0  0  0  0  0  0  0
   15.6227   24.7805   -0.9187 C   0  0  0  0  0  0  0  0  0  0  0  0
   13.2918   24.2161   -1.5810 C   0  0  0  0  0  0  0  0  0  0  0  0
   14.9642   26.0299   -5.1218 C   0  0  0  0  0  0  0  0  0  0  0  0
   14.0049   26.6714   -4.3668 C   0  0  0  0  0  0  0  0  0  0  0  0
   13.4700   26.0909   -3.2285 C   0  0  0  0  0  0  0  0  0  0  0  0
   13.8753   24.8401   -2.7985 C   0  0  0  0  0  0  0  0  0  0  0  0
   14.8358   24.1967   -3.5535 C   0  0  0  0  0  0  0  0  0  0  0  0
   15.3654   24.7834   -4.6896 C   0  0  0  0  0  0  0  0  0  0  0  0
   15.6252   25.8785   -7.4813 C   0  0  0  0  0  0  0  0  0  0  0  0
   15.5177   26.5927   -6.2704 O   0  0  0  0  0  0  0  0  0  0  0  0
 26 27  1  0  0  0
 27 20  1  0  0  0
 20 21  2  0  0  0
 21 22  1  0  0  0
 22 23  2  0  0  0
 23 19  1  0  0  0
 19 17  1  0  0  0
 17 18  1  0  0  0
 17 15  1  0  0  0
 15  1  1  0  0  0
  1  2  1  0  0  0
  2  3  1  0  0  0
  2  5  1  0  0  0
  5  6  2  0  0  0
  6  7  1  0  0  0
  7  8  1  0  0  0
  7  9  2  0  0  0
  9 10  1  0  0  0
 10 11  1  0  0  0
 10 12  2  0  0  0
 23 24  1  0  0  0
 24 25  2  0  0  0
 25 20  1  0  0  0
 12  5  1  0  0  0
 15 16  1  0  0  0
  3  4  1  0  0  0
  8 13  1  0  0  0
 11 14  1  0  0  0
M  END
> <minimizedAffinity>
-8.52042

> <CNNscore>
0.4203016460

> <CNNaffinity>
6.2262563705

> <CNN_VS>
2.6169056892

> <CNNaffinity_variance>
0.1965241134

$$$$
[H]Oc1c([H])c(O[H])c([H])c([C@@]([H])(O[H])C([H])([H])N([H])[C@@]([H])(C([H])([H])[H])C([H])([H])c2c([H])c([H])c(OC([H])([H])[H])c([H])c2[H])c1[H]


 27 28  0  0  0  0  0  0  0  0999 V2000
   12.7770   21.6980    0.6890 C   0  0  0  0  0  0  0  0  0  0  0  0
   11.6500   21.2641    1.5589 C   0  0  0  0  0  0  0  0  0  0  0  0
   11.0782   20.0614    1.0006 O   0  0  0  0  0  0  0  0  0  0  0  0
   11.2588   19.3622    1.6494 H   0  0  0  0  0  0  0  0  0  0  0  0
   10.4854   22.2049    1.5897 C   0  0  0  0  0  0  0  0  0  0  0  0
    9.3822   22.0735    0.7993 C   0  0  0  0  0  0  0  0  0  0  0  0
    8.3134   22.9744    0.8619 C   0  0  0  0  0  0  0  0  0  0  0  0
    7.1869   22.8550    0.0663 O   0  0  0  0  0  0  0  0  0  0  0  0
    8.3929   24.0161    1.7509 C   0  0  0  0  0  0  0  0  0  0  0  0
    9.4767   24.1996    2.5717 C   0  0  0  0  0  0  0  0  0  0  0  0
    9.5205   25.2663    3.4596 O   0  0  0  0  0  0  0  0  0  0  0  0
   10.5059   23.2874    2.4754 C   0  0  0  0  0  0  0  0  0  0  0  0
    6.4264   22.2865    0.4717 H   0  0  0  0  0  0  0  0  0  0  0  0
    9.1229   25.0646    4.3896 H   0  0  0  0  0  0  0  0  0  0  0  0
   13.3473   22.9556    0.8518 N   0  0  0  0  0  0  0  0  0  0  0  0
   12.9400   23.5403    1.6243 H   0  0  0  0  0  0  0  0  0  0  0  0
   14.0339   23.6419   -0.1381 C   0  0  0  0  0  0  0  0  0  0  0  0
   15.3647   24.1684    0.3173 C   0  0  0  0  0  0  0  0  0  0  0  0
   14.1294   22.9766   -1.4839 C   0  0  0  0  0  0  0  0  0  0  0  0
   14.4155   26.0266   -4.5236 C   0  0  0  0  0  0  0  0  0  0  0  0
   13.4655   26.0890   -3.5259 C   0  0  0  0  0  0  0  0  0  0  0  0
   13.3752   25.1119   -2.5483 C   0  0  0  0  0  0  0  0  0  0  0  0
   14.2355   24.0287   -2.5298 C   0  0  0  0  0  0  0  0  0  0  0  0
   15.1872   23.9650   -3.5282 C   0  0  0  0  0  0  0  0  0  0  0  0
   15.2709   24.9454   -4.5015 C   0  0  0  0  0  0  0  0  0  0  0  0
   15.6157   27.0357   -6.4125 C   0  0  0  0  0  0  0  0  0  0  0  0
   14.5267   26.9968   -5.5179 O   0  0  0  0  0  0  0  0  0  0  0  0
 26 27  1  0  0  0
 27 20  1  0  0  0
 20 21  2  0  0  0
 21 22  1  0  0  0
 22 23  2  0  0  0
 23 19  1  0  0  0
 19 17  1  0  0  0
 17 18  1  0  0  0
 17 15  1  0  0  0
 15  1  1  0  0  0
  1  2  1  0  0  0
  2  3  1  0  0  0
  2  5  1  0  0  0
  5  6  2  0  0  0
  6  7  1  0  0  0
  7  8  1  0  0  0
  7  9  2  0  0  0
  9 10  1  0  0  0
 10 11  1  0  0  0
 10 12  2  0  0  0
 23 24  1  0  0  0
 24 25  2  0  0  0
 25 20  1  0  0  0
 12  5  1  0  0  0
 15 16  1  0  0  0
  3  4  1  0  0  0
  8 13  1  0  0  0
 11 14  1  0  0  0
M  END
> <minimizedAffinity>
-8.36451

> <CNNscore>
0.4197774827

> <CNNaffinity>
5.9427247047

> <CNN_VS>
2.4946219921

> <CNNaffinity_variance>
0.0491326042

$$$$
[H]Oc1c([H])c(O[H])c([H])c([C@@]([H])(O[H])C([H])([H])N([H])[C@@]([H])(C([H])([H])[H])C([H])([H])c2c([H])c([H])c(OC([H])([H])[H])c([H])c2[H])c1[H]


 27 28  0  0  0  0  0  0  0  0999 V2000
   12.1721   21.1822   -0.0058 C   0  0  0  0  0  0  0  0  0  0  0  0
   12.7023   21.6135    1.3163 C   0  0  0  0  0  0  0  0  0  0  0  0
   13.9331   20.9021    1.5697 O   0  0  0  0  0  0  0  0  0  0  0  0
   14.6289   21.5789    1.5722 H   0  0  0  0  0  0  0  0  0  0  0  0
   11.8493   21.2332    2.4868 C   0  0  0  0  0  0  0  0  0  0  0  0
   11.9723   20.0571    3.1655 C   0  0  0  0  0  0  0  0  0  0  0  0
   11.1556   19.7418    4.2572 C   0  0  0  0  0  0  0  0  0  0  0  0
   11.2678   18.5524    4.9564 O   0  0  0  0  0  0  0  0  0  0  0  0
   10.2074   20.6544    4.6442 C   0  0  0  0  0  0  0  0  0  0  0  0
   10.0371   21.8539    4.0006 C   0  0  0  0  0  0  0  0  0  0  0  0
    9.0662   22.7526    4.4222 O   0  0  0  0  0  0  0  0  0  0  0  0
   10.8640   22.1215    2.9305 C   0  0  0  0  0  0  0  0  0  0  0  0
   11.9242   18.5763    5.7529 H   0  0  0  0  0  0  0  0  0  0  0  0
    9.3880   23.4264    5.1337 H   0  0  0  0  0  0  0  0  0  0  0  0
   12.5249   21.8681   -1.1626 N   0  0  0  0  0  0  0  0  0  0  0  0
   13.3648   21.4941   -1.6719 H   0  0  0  0  0  0  0  0  0  0  0  0
   12.1820   23.1842   -1.4321 C   0  0  0  0  0  0  0  0  0  0  0  0
   10.8208   23.5605   -0.9211 C   0  0  0  0  0  0  0  0  0  0  0  0
   13.2090   24.2337   -1.1055 C   0  0  0  0  0  0  0  0  0  0  0  0
   14.2633   26.2948   -4.7476 C   0  0  0  0  0  0  0  0  0  0  0  0
   13.2061   26.7083   -3.9646 C   0  0  0  0  0  0  0  0  0  0  0  0
   12.8692   26.0489   -2.7939 C   0  0  0  0  0  0  0  0  0  0  0  0
   13.5797   24.9448   -2.3582 C   0  0  0  0  0  0  0  0  0  0  0  0
   14.6385   24.5296   -3.1412 C   0  0  0  0  0  0  0  0  0  0  0  0
   14.9687   25.1939   -4.3097 C   0  0  0  0  0  0  0  0  0  0  0  0
   15.4178   26.3211   -6.9140 C   0  0  0  0  0  0  0  0  0  0  0  0
   14.6221   26.9411   -5.9290 O   0  0  0  0  0  0  0  0  0  0  0  0
 26 27  1  0  0  0
 27 20  1  0  0  0
 20 21  2  0  0  0
 21 22  1  0  0  0
 22 23  2  0  0  0
 23 19  1  0  0  0
 19 17  1  0  0  0
 17 18  1  0  0  0
 17 15  1  0  0  0
 15  1  1  0  0  0
  1  2  1  0  0  0
  2  3  1  0  0  0
  2  5  1  0  0  0
  5  6  2  0  0  0
  6  7  1  0  0  0
  7  8  1  0  0  0
  7  9  2  0  0  0
  9 10  1  0  0  0
 10 11  1  0  0  0
 10 12  2  0  0  0
 23 24  1  0  0  0
 24 25  2  0  0  0
 25 20  1  0  0  0
 12  5  1  0  0  0
 15 16  1  0  0  0
  3  4  1  0  0  0
  8 13  1  0  0  0
 11 14  1  0  0  0
M  END
> <minimizedAffinity>
-8.81127

> <CNNscore>
0.4112526774

> <CNNaffinity>
5.8099651337

> <CNN_VS>
2.3893637657

> <CNNaffinity_variance>
0.1164982095

$$$$
[H]c1nc(N2C([H])([H])C([H])([H])C(N3C([H])([H])C([H])([H])OC([H])([H])C3([H])[H])(C([H])(C([H])([H])[H])C([H])([H])[H])C([H])([H])C2([H])[H])c([H])c2c1C(=O)c1c(n([H])c3c([H])c(C#N)c([H])c([H])c13)C2(C([H])([H])[H])C([H])([H])[H]


 38 43  0  0  0  0  0  0  0  0999 V2000
   11.3781   27.5447   -4.6742 C   0  0  0  0  0  0  0  0  0  0  0  0
   11.6058   26.8921   -3.4909 C   0  0  0  0  0  0  0  0  0  0  0  0
   12.8989   26.5264   -3.0922 C   0  0  0  0  0  0  0  0  0  0  0  0
   13.9337   26.8464   -3.9323 C   0  0  0  0  0  0  0  0  0  0  0  0
   13.6774   27.5059   -5.1224 C   0  0  0  0  0  0  0  0  0  0  0  0
   12.4236   27.8378   -5.4661 N   0  0  0  0  0  0  0  0  0  0  0  0
   15.2948   26.4909   -3.5669 C   0  0  0  0  0  0  0  0  0  0  0  0
   16.2584   26.7826   -4.3376 O   0  0  0  0  0  0  0  0  0  0  0  0
   15.5313   25.8011   -2.3133 C   0  0  0  0  0  0  0  0  0  0  0  0
   14.4617   25.5024   -1.5056 C   0  0  0  0  0  0  0  0  0  0  0  0
   14.9246   24.8611   -0.3956 N   0  0  0  0  0  0  0  0  0  0  0  0
   16.2700   24.7416   -0.4742 C   0  0  0  0  0  0  0  0  0  0  0  0
   17.2087   24.1813    0.3740 C   0  0  0  0  0  0  0  0  0  0  0  0
   18.5358   24.2059    0.0267 C   0  0  0  0  0  0  0  0  0  0  0  0
   18.8908   24.7950   -1.1690 C   0  0  0  0  0  0  0  0  0  0  0  0
   17.9591   25.3532   -2.0149 C   0  0  0  0  0  0  0  0  0  0  0  0
   16.6407   25.3275   -1.6676 C   0  0  0  0  0  0  0  0  0  0  0  0
   13.0702   25.8332   -1.8160 C   0  0  0  0  0  0  0  0  0  0  0  0
   12.5475   26.6917   -0.6558 C   0  0  0  0  0  0  0  0  0  0  0  0
   12.2726   24.5323   -1.7411 C   0  0  0  0  0  0  0  0  0  0  0  0
   14.3722   24.5047    0.4052 H   0  0  0  0  0  0  0  0  0  0  0  0
    7.1968   28.6479   -5.5640 C   0  0  0  0  0  0  0  0  0  0  0  0
    7.7428   27.2693   -5.1342 C   0  0  0  0  0  0  0  0  0  0  0  0
    9.1129   26.9826   -5.6580 C   0  0  0  0  0  0  0  0  0  0  0  0
   10.0568   27.9215   -5.0834 N   0  0  0  0  0  0  0  0  0  0  0  0
    9.5613   29.2863   -4.9525 C   0  0  0  0  0  0  0  0  0  0  0  0
    8.4443   29.4045   -5.9680 C   0  0  0  0  0  0  0  0  0  0  0  0
    6.5609   29.1652   -4.4338 N   0  0  0  0  0  0  0  0  0  0  0  0
    6.8512   30.3634   -3.8354 C   0  0  0  0  0  0  0  0  0  0  0  0
    6.9537   30.2662   -2.3325 C   0  0  0  0  0  0  0  0  0  0  0  0
    5.9968   29.4697   -1.7626 O   0  0  0  0  0  0  0  0  0  0  0  0
    5.9472   28.1990   -2.3438 C   0  0  0  0  0  0  0  0  0  0  0  0
    5.5588   28.4117   -3.7925 C   0  0  0  0  0  0  0  0  0  0  0  0
    6.2080   27.0867   -7.2941 C   0  0  0  0  0  0  0  0  0  0  0  0
    6.2731   28.5066   -6.7274 C   0  0  0  0  0  0  0  0  0  0  0  0
    4.8526   28.9099   -6.5450 C   0  0  0  0  0  0  0  0  0  0  0  0
   19.5527   23.6246    0.8971 C   0  0  0  0  0  0  0  0  0  0  0  0
   20.3532   23.1481    1.5814 N   0  0  0  0  0  0  0  0  0  0  0  0
 34 35  1  0  0  0
 35 36  1  0  0  0
 35 22  1  0  0  0
 22 28  1  0  0  0
 28 29  1  0  0  0
 29 30  1  0  0  0
 30 31  1  0  0  0
 31 32  1  0  0  0
 32 33  1  0  0  0
 22 23  1  0  0  0
 23 24  1  0  0  0
 24 25  1  0  0  0
 25  1  1  0  0  0
  1  2  2  0  0  0
  2  3  1  0  0  0
  3  4  2  0  0  0
  4  5  1  0  0  0
  5  6  2  0  0  0
  4  7  1  0  0  0
  7  8  2  0  0  0
  7  9  1  0  0  0
  9 10  2  0  0  0
 10 11  1  0  0  0
 11 12  1  0  0  0
 12 13  2  0  0  0
 13 14  1  0  0  0
 14 37  1  0  0  0
 37 38  3  0  0  0
 14 15  2  0  0  0
 15 16  1  0  0  0
 16 17  2  0  0  0
 10 18  1  0  0  0
 18 19  1  0  0  0
 18 20  1  0  0  0
 25 26  1  0  0  0
 26 27  1  0  0  0
 27 22  1  0  0  0
 33 28  1  0  0  0
  6  1  1  0  0  0
 17  9  1  0  0  0
 18  3  1  0  0  0
 17 12  1  0  0  0
 11 21  1  0  0  0
M  END
> <minimizedAffinity>
46.51844

> <CNNscore>
0.5571458340

> <CNNaffinity>
7.0538511276

> <CNN_VS>
3.9300236702

> <CNNaffinity_variance>
0.7740776539

$$$$
[H]c1nc(N2C([H])([H])C([H])([H])C(N3C([H])([H])C([H])([H])OC([H])([H])C3([H])[H])(C([H])(C([H])([H])[H])C([H])([H])[H])C([H])([H])C2([H])[H])c([H])c2c1C(=O)c1c(n([H])c3c([H])c(C#N)c([H])c([H])c13)C2(C([H])([H])[H])C([H])([H])[H]


 38 43  0  0  0  0  0  0  0  0999 V2000
   11.8947   27.3643   -4.0093 C   0  0  0  0  0  0  0  0  0  0  0  0
   11.6004   26.5803   -2.9246 C   0  0  0  0  0  0  0  0  0  0  0  0
   12.4395   25.5287   -2.5307 C   0  0  0  0  0  0  0  0  0  0  0  0
   13.5712   25.3110   -3.2728 C   0  0  0  0  0  0  0  0  0  0  0  0
   13.8460   26.1172   -4.3644 C   0  0  0  0  0  0  0  0  0  0  0  0
   13.0155   27.1136   -4.7072 N   0  0  0  0  0  0  0  0  0  0  0  0
   14.4763   24.2340   -2.9075 C   0  0  0  0  0  0  0  0  0  0  0  0
   15.5254   24.0249   -3.5880 O   0  0  0  0  0  0  0  0  0  0  0  0
   14.1613   23.4072   -1.7584 C   0  0  0  0  0  0  0  0  0  0  0  0
   13.0157   23.6649   -1.0466 C   0  0  0  0  0  0  0  0  0  0  0  0
   12.9323   22.7687   -0.0232 N   0  0  0  0  0  0  0  0  0  0  0  0
   14.0014   21.9403   -0.0634 C   0  0  0  0  0  0  0  0  0  0  0  0
   14.3887   20.8767    0.7323 C   0  0  0  0  0  0  0  0  0  0  0  0
   15.5503   20.2047    0.4466 C   0  0  0  0  0  0  0  0  0  0  0  0
   16.2988   20.6181   -0.6357 C   0  0  0  0  0  0  0  0  0  0  0  0
   15.9158   21.6760   -1.4293 C   0  0  0  0  0  0  0  0  0  0  0  0
   14.7609   22.3423   -1.1434 C   0  0  0  0  0  0  0  0  0  0  0  0
   12.0657   24.7326   -1.3623 C   0  0  0  0  0  0  0  0  0  0  0  0
   11.9591   25.6172   -0.1124 C   0  0  0  0  0  0  0  0  0  0  0  0
   10.6916   24.0812   -1.5090 C   0  0  0  0  0  0  0  0  0  0  0  0
   12.1886   22.6958    0.6944 H   0  0  0  0  0  0  0  0  0  0  0  0
    8.9573   30.4570   -5.1491 C   0  0  0  0  0  0  0  0  0  0  0  0
    9.1775   29.0734   -5.7977 C   0  0  0  0  0  0  0  0  0  0  0  0
   10.6048   28.6303   -5.7836 C   0  0  0  0  0  0  0  0  0  0  0  0
   11.0392   28.4415   -4.4132 N   0  0  0  0  0  0  0  0  0  0  0  0
   10.5405   29.4346   -3.4696 C   0  0  0  0  0  0  0  0  0  0  0  0
   10.2022   30.6485   -4.3092 C   0  0  0  0  0  0  0  0  0  0  0  0
    7.7832   30.3357   -4.4033 N   0  0  0  0  0  0  0  0  0  0  0  0
    7.5757   30.8602   -3.1544 C   0  0  0  0  0  0  0  0  0  0  0  0
    6.9347   29.8824   -2.1996 C   0  0  0  0  0  0  0  0  0  0  0  0
    5.9386   29.1306   -2.7628 O   0  0  0  0  0  0  0  0  0  0  0  0
    6.3542   28.4878   -3.9329 C   0  0  0  0  0  0  0  0  0  0  0  0
    6.7072   29.5854   -4.9155 C   0  0  0  0  0  0  0  0  0  0  0  0
    9.2607   32.9096   -5.6972 C   0  0  0  0  0  0  0  0  0  0  0  0
    8.8655   31.5176   -6.1946 C   0  0  0  0  0  0  0  0  0  0  0  0
    9.6384   31.3284   -7.4519 C   0  0  0  0  0  0  0  0  0  0  0  0
   15.9892   19.0786    1.2645 C   0  0  0  0  0  0  0  0  0  0  0  0
   16.3351   18.1761    1.8984 N   0  0  0  0  0  0  0  0  0  0  0  0
 34 35  1  0  0  0
 35 36  1  0  0  0
 35 22  1  0  0  0
 22 28  1  0  0  0
 28 29  1  0  0  0
 29 30  1  0  0  0
 30 31  1  0  0  0
 31 32  1  0  0  0
 32 33  1  0  0  0
 22 23  1  0  0  0
 23 24  1  0  0  0
 24 25  1  0  0  0
 25  1  1  0  0  0
  1  2  2  0  0  0
  2  3  1  0  0  0
  3  4  2  0  0  0
  4  5  1  0  0  0
  5  6  2  0  0  0
  4  7  1  0  0  0
  7  8  2  0  0  0
  7  9  1  0  0  0
  9 10  2  0  0  0
 10 11  1  0  0  0
 11 12  1  0  0  0
 12 13  2  0  0  0
 13 14  1  0  0  0
 14 37  1  0  0  0
 37 38  3  0  0  0
 14 15  2  0  0  0
 15 16  1  0  0  0
 16 17  2  0  0  0
 10 18  1  0  0  0
 18 19  1  0  0  0
 18 20  1  0  0  0
 25 26  1  0  0  0
 26 27  1  0  0  0
 27 22  1  0  0  0
 33 28  1  0  0  0
  6  1  1  0  0  0
 17  9  1  0  0  0
 18  3  1  0  0  0
 17 12  1  0  0  0
 11 21  1  0  0  0
M  END
> <minimizedAffinity>
41.72834

> <CNNscore>
0.4773622155

> <CNNaffinity>
7.2001304626

> <CNN_VS>
3.4370701313

> <CNNaffinity_variance>
0.7483838797

$$$$
[H]c1nc(N2C([H])([H])C([H])([H])C(N3C([H])([H])C([H])([H])OC([H])([H])C3([H])[H])(C([H])(C([H])([H])[H])C([H])([H])[H])C([H])([H])C2([H])[H])c([H])c2c1C(=O)c1c(n([H])c3c([H])c(C#N)c([H])c([H])c13)C2(C([H])([H])[H])C([H])([H])[H]


 38 43  0  0  0  0  0  0  0  0999 V2000
   10.9391   22.0524   -0.1979 C   0  0  0  0  0  0  0  0  0  0  0  0
   11.1356   23.0616   -1.1038 C   0  0  0  0  0  0  0  0  0  0  0  0
   12.3960   23.6466   -1.2879 C   0  0  0  0  0  0  0  0  0  0  0  0
   13.4312   23.1710   -0.5255 C   0  0  0  0  0  0  0  0  0  0  0  0
   13.2067   22.1505    0.3829 C   0  0  0  0  0  0  0  0  0  0  0  0
   11.9836   21.6183    0.5278 N   0  0  0  0  0  0  0  0  0  0  0  0
   14.7592   23.7419   -0.6769 C   0  0  0  0  0  0  0  0  0  0  0  0
   15.7228   23.3086    0.0239 O   0  0  0  0  0  0  0  0  0  0  0  0
   14.9628   24.8092   -1.6375 C   0  0  0  0  0  0  0  0  0  0  0  0
   13.8942   25.2514   -2.3779 C   0  0  0  0  0  0  0  0  0  0  0  0
   14.3234   26.2477   -3.2031 N   0  0  0  0  0  0  0  0  0  0  0  0
   15.6462   26.4543   -3.0075 C   0  0  0  0  0  0  0  0  0  0  0  0
   16.5483   27.3336   -3.5798 C   0  0  0  0  0  0  0  0  0  0  0  0
   17.8593   27.3179   -3.1751 C   0  0  0  0  0  0  0  0  0  0  0  0
   18.2351   26.4161   -2.2013 C   0  0  0  0  0  0  0  0  0  0  0  0
   17.3396   25.5402   -1.6301 C   0  0  0  0  0  0  0  0  0  0  0  0
   16.0373   25.5577   -2.0339 C   0  0  0  0  0  0  0  0  0  0  0  0
   12.5352   24.7185   -2.2729 C   0  0  0  0  0  0  0  0  0  0  0  0
   12.1409   24.2263   -3.6723 C   0  0  0  0  0  0  0  0  0  0  0  0
   11.6104   25.9013   -1.9903 C   0  0  0  0  0  0  0  0  0  0  0  0
   13.7628   26.7879   -3.8867 H   0  0  0  0  0  0  0  0  0  0  0  0
    7.0881   20.1107    0.7470 C   0  0  0  0  0  0  0  0  0  0  0  0
    8.4792   19.4512    0.6304 C   0  0  0  0  0  0  0  0  0  0  0  0
    9.3543   20.0872   -0.4009 C   0  0  0  0  0  0  0  0  0  0  0  0
    9.6514   21.4512   -0.0089 N   0  0  0  0  0  0  0  0  0  0  0  0
    8.5371   22.1722    0.5943 C   0  0  0  0  0  0  0  0  0  0  0  0
    7.2914   21.4655    0.1026 C   0  0  0  0  0  0  0  0  0  0  0  0
    6.8173   20.1685    2.1155 N   0  0  0  0  0  0  0  0  0  0  0  0
    5.6202   20.5311    2.6754 C   0  0  0  0  0  0  0  0  0  0  0  0
    5.7714   21.5020    3.8212 C   0  0  0  0  0  0  0  0  0  0  0  0
    6.8191   21.2159    4.6550 O   0  0  0  0  0  0  0  0  0  0  0  0
    8.0248   21.0675    3.9626 C   0  0  0  0  0  0  0  0  0  0  0  0
    7.8392   19.8801    3.0404 C   0  0  0  0  0  0  0  0  0  0  0  0
    4.7283   20.0417   -0.1663 C   0  0  0  0  0  0  0  0  0  0  0  0
    6.0694   19.3226   -0.0064 C   0  0  0  0  0  0  0  0  0  0  0  0
    6.4184   18.8575   -1.3760 C   0  0  0  0  0  0  0  0  0  0  0  0
   18.8378   28.2308   -3.7570 C   0  0  0  0  0  0  0  0  0  0  0  0
   19.6251   28.9413   -4.2169 N   0  0  0  0  0  0  0  0  0  0  0  0
 34 35  1  0  0  0
 35 36  1  0  0  0
 35 22  1  0  0  0
 22 28  1  0  0  0
 28 29  1  0  0  0
 29 30  1  0  0  0
 30 31  1  0  0  0
 31 32  1  0  0  0
 32 33  1  0  0  0
 22 23  1  0  0  0
 23 24  1  0  0  0
 24 25  1  0  0  0
 25  1  1  0  0  0
  1  2  2  0  0  0
  2  3  1  0  0  0
  3  4  2  0  0  0
  4  5  1  0  0  0
  5  6  2  0  0  0
  4  7  1  0  0  0
  7  8  2  0  0  0
  7  9  1  0  0  0
  9 10  2  0  0  0
 10 11  1  0  0  0
 11 12  1  0  0  0
 12 13  2  0  0  0
 13 14  1  0  0  0
 14 37  1  0  0  0
 37 38  3  0  0  0
 14 15  2  0  0  0
 15 16  1  0  0  0
 16 17  2  0  0  0
 10 18  1  0  0  0
 18 19  1  0  0  0
 18 20  1  0  0  0
 25 26  1  0  0  0
 26 27  1  0  0  0
 27 22  1  0  0  0
 33 28  1  0  0  0
  6  1  1  0  0  0
 17  9  1  0  0  0
 18  3  1  0  0  0
 17 12  1  0  0  0
 11 21  1  0  0  0
M  END
> <minimizedAffinity>
8.64949

> <CNNscore>
0.4437271059

> <CNNaffinity>
7.7207360268

> <CNN_VS>
3.4258997440

> <CNNaffinity_variance>
2.0209498405

$$$$
[H]c1nc(N2C([H])([H])C([H])([H])C(N3C([H])([H])C([H])([H])OC([H])([H])C3([H])[H])(C([H])(C([H])([H])[H])C([H])([H])[H])C([H])([H])C2([H])[H])c([H])c2c1C(=O)c1c(n([H])c3c([H])c(C#N)c([H])c([H])c13)C2(C([H])([H])[H])C([H])([H])[H]


 38 43  0  0  0  0  0  0  0  0999 V2000
    8.2402   23.9324    1.2016 C   0  0  0  0  0  0  0  0  0  0  0  0
    8.2053   24.6098    2.3923 C   0  0  0  0  0  0  0  0  0  0  0  0
    7.7381   25.9290    2.4719 C   0  0  0  0  0  0  0  0  0  0  0  0
    7.3151   26.5210    1.3103 C   0  0  0  0  0  0  0  0  0  0  0  0
    7.3606   25.8152    0.1200 C   0  0  0  0  0  0  0  0  0  0  0  0
    7.8154   24.5534    0.0881 N   0  0  0  0  0  0  0  0  0  0  0  0
    6.8204   27.8875    1.3366 C   0  0  0  0  0  0  0  0  0  0  0  0
    6.4271   28.4435    0.2672 O   0  0  0  0  0  0  0  0  0  0  0  0
    6.7844   28.6004    2.5991 C   0  0  0  0  0  0  0  0  0  0  0  0
    7.2191   27.9641    3.7357 C   0  0  0  0  0  0  0  0  0  0  0  0
    7.0924   28.8228    4.7865 N   0  0  0  0  0  0  0  0  0  0  0  0
    6.5852   29.9979    4.3477 C   0  0  0  0  0  0  0  0  0  0  0  0
    6.2695   31.1787    4.9961 C   0  0  0  0  0  0  0  0  0  0  0  0
    5.7579   32.2300    4.2781 C   0  0  0  0  0  0  0  0  0  0  0  0
    5.5743   32.0703    2.9204 C   0  0  0  0  0  0  0  0  0  0  0  0
    5.8876   30.8966    2.2725 C   0  0  0  0  0  0  0  0  0  0  0  0
    6.3960   29.8532    2.9882 C   0  0  0  0  0  0  0  0  0  0  0  0
    7.7269   26.5920    3.7753 C   0  0  0  0  0  0  0  0  0  0  0  0
    6.8485   25.8212    4.7706 C   0  0  0  0  0  0  0  0  0  0  0  0
    9.1105   26.6444    4.4211 C   0  0  0  0  0  0  0  0  0  0  0  0
    7.3328   28.6473    5.7789 H   0  0  0  0  0  0  0  0  0  0  0  0
   10.0199   19.8923    1.1436 C   0  0  0  0  0  0  0  0  0  0  0  0
   10.5449   21.1697    0.4536 C   0  0  0  0  0  0  0  0  0  0  0  0
    9.4578   22.0786   -0.0216 C   0  0  0  0  0  0  0  0  0  0  0  0
    8.7158   22.5825    1.1177 N   0  0  0  0  0  0  0  0  0  0  0  0
    8.4858   21.6093    2.1785 C   0  0  0  0  0  0  0  0  0  0  0  0
    8.5964   20.2555    1.5091 C   0  0  0  0  0  0  0  0  0  0  0  0
   10.8552   19.6940    2.2447 N   0  0  0  0  0  0  0  0  0  0  0  0
   12.1015   20.2404    2.4071 C   0  0  0  0  0  0  0  0  0  0  0  0
   13.1282   19.2431    2.8865 C   0  0  0  0  0  0  0  0  0  0  0  0
   12.6624   18.3883    3.8493 O   0  0  0  0  0  0  0  0  0  0  0  0
   11.4822   17.7451    3.4639 C   0  0  0  0  0  0  0  0  0  0  0  0
   10.4462   18.8355    3.2833 C   0  0  0  0  0  0  0  0  0  0  0  0
   10.8899   17.5622    0.6725 C   0  0  0  0  0  0  0  0  0  0  0  0
   10.0369   18.7398    0.1960 C   0  0  0  0  0  0  0  0  0  0  0  0
    8.7342   18.1347   -0.1920 C   0  0  0  0  0  0  0  0  0  0  0  0
    5.4137   33.4898    4.9293 C   0  0  0  0  0  0  0  0  0  0  0  0
    5.1242   34.4850    5.4410 N   0  0  0  0  0  0  0  0  0  0  0  0
 34 35  1  0  0  0
 35 36  1  0  0  0
 35 22  1  0  0  0
 22 28  1  0  0  0
 28 29  1  0  0  0
 29 30  1  0  0  0
 30 31  1  0  0  0
 31 32  1  0  0  0
 32 33  1  0  0  0
 22 23  1  0  0  0
 23 24  1  0  0  0
 24 25  1  0  0  0
 25  1  1  0  0  0
  1  2  2  0  0  0
  2  3  1  0  0  0
  3  4  2  0  0  0
  4  5  1  0  0  0
  5  6  2  0  0  0
  4  7  1  0  0  0
  7  8  2  0  0  0
  7  9  1  0  0  0
  9 10  2  0  0  0
 10 11  1  0  0  0
 11 12  1  0  0  0
 12 13  2  0  0  0
 13 14  1  0  0  0
 14 37  1  0  0  0
 37 38  3  0  0  0
 14 15  2  0  0  0
 15 16  1  0  0  0
 16 17  2  0  0  0
 10 18  1  0  0  0
 18 19  1  0  0  0
 18 20  1  0  0  0
 25 26  1  0  0  0
 26 27  1  0  0  0
 27 22  1  0  0  0
 33 28  1  0  0  0
  6  1  1  0  0  0
 17  9  1  0  0  0
 18  3  1  0  0  0
 17 12  1  0  0  0
 11 21  1  0  0  0
M  END
> <minimizedAffinity>
62.22577

> <CNNscore>
0.4306221008

> <CNNaffinity>
5.8393316269

> <CNN_VS>
2.5145452023

> <CNNaffinity_variance>
0.2802724242

$$$$
[H]c1nc(N2C([H])([H])C([H])([H])C(N3C([H])([H])C([H])([H])OC([H])([H])C3([H])[H])(C([H])(C([H])([H])[H])C([H])([H])[H])C([H])([H])C2([H])[H])c([H])c2c1C(=O)c1c(n([H])c3c([H])c(C#N)c([H])c([H])c13)C2(C([H])([H])[H])C([H])([H])[H]


 38 43  0  0  0  0  0  0  0  0999 V2000
   10.5558   22.6828    0.5201 C   0  0  0  0  0  0  0  0  0  0  0  0
   10.5785   23.7807   -0.2996 C   0  0  0  0  0  0  0  0  0  0  0  0
   11.6153   23.9872   -1.2201 C   0  0  0  0  0  0  0  0  0  0  0  0
   12.6113   23.0468   -1.2719 C   0  0  0  0  0  0  0  0  0  0  0  0
   12.5653   21.9464   -0.4330 C   0  0  0  0  0  0  0  0  0  0  0  0
   11.5540   21.7871    0.4342 N   0  0  0  0  0  0  0  0  0  0  0  0
   13.7100   23.2118   -2.2090 C   0  0  0  0  0  0  0  0  0  0  0  0
   14.6359   22.3474   -2.2640 O   0  0  0  0  0  0  0  0  0  0  0  0
   13.7296   24.3749   -3.0752 C   0  0  0  0  0  0  0  0  0  0  0  0
   12.7088   25.2889   -2.9859 C   0  0  0  0  0  0  0  0  0  0  0  0
   12.9408   26.2847   -3.8870 N   0  0  0  0  0  0  0  0  0  0  0  0
   14.0902   26.0288   -4.5533 C   0  0  0  0  0  0  0  0  0  0  0  0
   14.7623   26.7113   -5.5518 C   0  0  0  0  0  0  0  0  0  0  0  0
   15.9349   26.2016   -6.0496 C   0  0  0  0  0  0  0  0  0  0  0  0
   16.4070   25.0137   -5.5312 C   0  0  0  0  0  0  0  0  0  0  0  0
   15.7403   24.3325   -4.5377 C   0  0  0  0  0  0  0  0  0  0  0  0
   14.5752   24.8411   -4.0445 C   0  0  0  0  0  0  0  0  0  0  0  0
   11.5762   25.1799   -2.0654 C   0  0  0  0  0  0  0  0  0  0  0  0
   10.3029   25.1981   -2.9225 C   0  0  0  0  0  0  0  0  0  0  0  0
   11.5307   26.4743   -1.2551 C   0  0  0  0  0  0  0  0  0  0  0  0
   12.3582   27.1223   -4.0677 H   0  0  0  0  0  0  0  0  0  0  0  0
    7.4484   22.3082    3.6340 C   0  0  0  0  0  0  0  0  0  0  0  0
    8.9566   22.0027    3.7579 C   0  0  0  0  0  0  0  0  0  0  0  0
    9.5588   21.4608    2.5019 C   0  0  0  0  0  0  0  0  0  0  0  0
    9.4957   22.4683    1.4611 N   0  0  0  0  0  0  0  0  0  0  0  0
    8.2665   23.2519    1.4402 C   0  0  0  0  0  0  0  0  0  0  0  0
    7.2333   22.3924    2.1377 C   0  0  0  0  0  0  0  0  0  0  0  0
    7.2576   23.5186    4.3033 N   0  0  0  0  0  0  0  0  0  0  0  0
    6.7160   24.6531    3.7579 C   0  0  0  0  0  0  0  0  0  0  0  0
    7.4976   25.9014    4.0887 C   0  0  0  0  0  0  0  0  0  0  0  0
    7.9416   25.9501    5.3830 O   0  0  0  0  0  0  0  0  0  0  0  0
    8.6547   24.8030    5.7443 C   0  0  0  0  0  0  0  0  0  0  0  0
    7.6791   23.6487    5.6407 C   0  0  0  0  0  0  0  0  0  0  0  0
    6.3883   20.0429    3.2431 C   0  0  0  0  0  0  0  0  0  0  0  0
    6.6389   21.1976    4.2153 C   0  0  0  0  0  0  0  0  0  0  0  0
    7.1345   20.5483    5.4589 C   0  0  0  0  0  0  0  0  0  0  0  0
   16.6700   26.8946   -7.1027 C   0  0  0  0  0  0  0  0  0  0  0  0
   17.2659   27.4452   -7.9259 N   0  0  0  0  0  0  0  0  0  0  0  0
 34 35  1  0  0  0
 35 36  1  0  0  0
 35 22  1  0  0  0
 22 28  1  0  0  0
 28 29  1  0  0  0
 29 30  1  0  0  0
 30 31  1  0  0  0
 31 32  1  0  0  0
 32 33  1  0  0  0
 22 23  1  0  0  0
 23 24  1  0  0  0
 24 25  1  0  0  0
 25  1  1  0  0  0
  1  2  2  0  0  0
  2  3  1  0  0  0
  3  4  2  0  0  0
  4  5  1  0  0  0
  5  6  2  0  0  0
  4  7  1  0  0  0
  7  8  2  0  0  0
  7  9  1  0  0  0
  9 10  2  0  0  0
 10 11  1  0  0  0
 11 12  1  0  0  0
 12 13  2  0  0  0
 13 14  1  0  0  0
 14 37  1  0  0  0
 37 38  3  0  0  0
 14 15  2  0  0  0
 15 16  1  0  0  0
 16 17  2  0  0  0
 10 18  1  0  0  0
 18 19  1  0  0  0
 18 20  1  0  0  0
 25 26  1  0  0  0
 26 27  1  0  0  0
 27 22  1  0  0  0
 33 28  1  0  0  0
  6  1  1  0  0  0
 17  9  1  0  0  0
 18  3  1  0  0  0
 17 12  1  0  0  0
 11 21  1  0  0  0
M  END
> <minimizedAffinity>
6.07094

> <CNNscore>
0.4185878634

> <CNNaffinity>
7.1160964966

> <CNN_VS>
2.9787116051

> <CNNaffinity_variance>
0.7093064189

$$$$
[H]c1nc(N2C([H])([H])C([H])([H])C(N3C([H])([H])C([H])([H])OC([H])([H])C3([H])[H])(C([H])(C([H])([H])[H])C([H])([H])[H])C([H])([H])C2([H])[H])c([H])c2c1C(=O)c1c(n([H])c3c([H])c(C#N)c([H])c([H])c13)C2(C([H])([H])[H])C([H])([H])[H]


 38 43  0  0  0  0  0  0  0  0999 V2000
   10.7663   22.8702    1.8513 C   0  0  0  0  0  0  0  0  0  0  0  0
   11.5881   22.3549    0.8833 C   0  0  0  0  0  0  0  0  0  0  0  0
   12.1273   23.1630   -0.1272 C   0  0  0  0  0  0  0  0  0  0  0  0
   11.8018   24.4945   -0.1130 C   0  0  0  0  0  0  0  0  0  0  0  0
   10.9694   24.9906    0.8758 C   0  0  0  0  0  0  0  0  0  0  0  0
   10.4746   24.1818    1.8250 N   0  0  0  0  0  0  0  0  0  0  0  0
   12.3343   25.3773   -1.1376 C   0  0  0  0  0  0  0  0  0  0  0  0
   12.0388   26.6102   -1.1328 O   0  0  0  0  0  0  0  0  0  0  0  0
   13.2043   24.8278   -2.1596 C   0  0  0  0  0  0  0  0  0  0  0  0
   13.5011   23.4874   -2.1311 C   0  0  0  0  0  0  0  0  0  0  0  0
   14.3261   23.2055   -3.1787 N   0  0  0  0  0  0  0  0  0  0  0  0
   14.5650   24.3378   -3.8797 C   0  0  0  0  0  0  0  0  0  0  0  0
   15.3214   24.5943   -5.0095 C   0  0  0  0  0  0  0  0  0  0  0  0
   15.3809   25.8706   -5.5095 C   0  0  0  0  0  0  0  0  0  0  0  0
   14.6766   26.8635   -4.8608 C   0  0  0  0  0  0  0  0  0  0  0  0
   13.9230   26.6111   -3.7365 C   0  0  0  0  0  0  0  0  0  0  0  0
   13.8654   25.3419   -3.2414 C   0  0  0  0  0  0  0  0  0  0  0  0
   12.9983   22.5478   -1.1279 C   0  0  0  0  0  0  0  0  0  0  0  0
   14.2251   21.9086   -0.4626 C   0  0  0  0  0  0  0  0  0  0  0  0
   12.3148   21.4090   -1.8829 C   0  0  0  0  0  0  0  0  0  0  0  0
   14.7301   22.2867   -3.4359 H   0  0  0  0  0  0  0  0  0  0  0  0
    8.9342   20.6611    5.2062 C   0  0  0  0  0  0  0  0  0  0  0  0
   10.1138   21.6558    5.2575 C   0  0  0  0  0  0  0  0  0  0  0  0
   10.9801   21.6144    4.0404 C   0  0  0  0  0  0  0  0  0  0  0  0
   10.2150   22.0463    2.8870 N   0  0  0  0  0  0  0  0  0  0  0  0
    8.8349   21.5774    2.8561 C   0  0  0  0  0  0  0  0  0  0  0  0
    8.8136   20.3418    3.7313 C   0  0  0  0  0  0  0  0  0  0  0  0
    7.8401   21.3540    5.7279 N   0  0  0  0  0  0  0  0  0  0  0  0
    6.6067   20.8157    5.9867 C   0  0  0  0  0  0  0  0  0  0  0  0
    5.4689   21.6757    5.4926 C   0  0  0  0  0  0  0  0  0  0  0  0
    5.6523   23.0151    5.7097 O   0  0  0  0  0  0  0  0  0  0  0  0
    6.8768   23.4717    5.2127 C   0  0  0  0  0  0  0  0  0  0  0  0
    7.9491   22.7338    5.9876 C   0  0  0  0  0  0  0  0  0  0  0  0
    8.1420   18.3772    5.9575 C   0  0  0  0  0  0  0  0  0  0  0  0
    9.2546   19.4274    5.9821 C   0  0  0  0  0  0  0  0  0  0  0  0
   10.4918   18.6805    5.6279 C   0  0  0  0  0  0  0  0  0  0  0  0
   16.1688   26.1772   -6.6990 C   0  0  0  0  0  0  0  0  0  0  0  0
   16.7866   26.4056   -7.6488 N   0  0  0  0  0  0  0  0  0  0  0  0
 34 35  1  0  0  0
 35 36  1  0  0  0
 35 22  1  0  0  0
 22 28  1  0  0  0
 28 29  1  0  0  0
 29 30  1  0  0  0
 30 31  1  0  0  0
 31 32  1  0  0  0
 32 33  1  0  0  0
 22 23  1  0  0  0
 23 24  1  0  0  0
 24 25  1  0  0  0
 25  1  1  0  0  0
  1  2  2  0  0  0
  2  3  1  0  0  0
  3  4  2  0  0  0
  4  5  1  0  0  0
  5  6  2  0  0  0
  4  7  1  0  0  0
  7  8  2  0  0  0
  7  9  1  0  0  0
  9 10  2  0  0  0
 10 11  1  0  0  0
 11 12  1  0  0  0
 12 13  2  0  0  0
 13 14  1  0  0  0
 14 37  1  0  0  0
 37 38  3  0  0  0
 14 15  2  0  0  0
 15 16  1  0  0  0
 16 17  2  0  0  0
 10 18  1  0  0  0
 18 19  1  0  0  0
 18 20  1  0  0  0
 25 26  1  0  0  0
 26 27  1  0  0  0
 27 22  1  0  0  0
 33 28  1  0  0  0
  6  1  1  0  0  0
 17  9  1  0  0  0
 18  3  1  0  0  0
 17 12  1  0  0  0
 11 21  1  0  0  0
M  END
> <minimizedAffinity>
-5.59159

> <CNNscore>
0.3847007155

> <CNNaffinity>
7.2992653847

> <CNN_VS>
2.8080325127

> <CNNaffinity_variance>
0.3414700627

$$$$
[H]c1nc(N2C([H])([H])C([H])([H])C(N3C([H])([H])C([H])([H])OC([H])([H])C3([H])[H])(C([H])(C([H])([H])[H])C([H])([H])[H])C([H])([H])C2([H])[H])c([H])c2c1C(=O)c1c(n([H])c3c([H])c(C#N)c([H])c([H])c13)C2(C([H])([H])[H])C([H])([H])[H]


 38 43  0  0  0  0  0  0  0  0999 V2000
   12.3047   21.7984    0.2730 C   0  0  0  0  0  0  0  0  0  0  0  0
   12.2135   23.1014   -0.1412 C   0  0  0  0  0  0  0  0  0  0  0  0
   12.9356   23.5716   -1.2469 C   0  0  0  0  0  0  0  0  0  0  0  0
   13.7407   22.6769   -1.9030 C   0  0  0  0  0  0  0  0  0  0  0  0
   13.8155   21.3658   -1.4646 C   0  0  0  0  0  0  0  0  0  0  0  0
   13.1071   20.9570   -0.4010 N   0  0  0  0  0  0  0  0  0  0  0  0
   14.5108   23.1119   -3.0564 C   0  0  0  0  0  0  0  0  0  0  0  0
   15.2583   22.2917   -3.6695 O   0  0  0  0  0  0  0  0  0  0  0  0
   14.4106   24.4916   -3.4918 C   0  0  0  0  0  0  0  0  0  0  0  0
   13.5903   25.3497   -2.8017 C   0  0  0  0  0  0  0  0  0  0  0  0
   13.6586   26.5780   -3.3886 N   0  0  0  0  0  0  0  0  0  0  0  0
   14.5065   26.5260   -4.4417 C   0  0  0  0  0  0  0  0  0  0  0  0
   14.9208   27.4796   -5.3547 C   0  0  0  0  0  0  0  0  0  0  0  0
   15.8101   27.1327   -6.3402 C   0  0  0  0  0  0  0  0  0  0  0  0
   16.2644   25.8311   -6.3862 C   0  0  0  0  0  0  0  0  0  0  0  0
   15.8540   24.8802   -5.4791 C   0  0  0  0  0  0  0  0  0  0  0  0
   14.9701   25.2274   -4.5005 C   0  0  0  0  0  0  0  0  0  0  0  0
   12.7902   24.9739   -1.6353 C   0  0  0  0  0  0  0  0  0  0  0  0
   11.3284   25.2955   -1.9762 C   0  0  0  0  0  0  0  0  0  0  0  0
   13.1590   25.9379   -0.5090 C   0  0  0  0  0  0  0  0  0  0  0  0
   13.1594   27.4414   -3.1081 H   0  0  0  0  0  0  0  0  0  0  0  0
    9.7780   20.6018    3.6901 C   0  0  0  0  0  0  0  0  0  0  0  0
   10.6153   21.8895    3.5351 C   0  0  0  0  0  0  0  0  0  0  0  0
   11.8817   21.6866    2.7678 C   0  0  0  0  0  0  0  0  0  0  0  0
   11.5659   21.3145    1.4024 N   0  0  0  0  0  0  0  0  0  0  0  0
   10.4353   20.4051    1.2608 C   0  0  0  0  0  0  0  0  0  0  0  0
   10.3176   19.7034    2.5975 C   0  0  0  0  0  0  0  0  0  0  0  0
    8.4520   20.9947    3.4980 N   0  0  0  0  0  0  0  0  0  0  0  0
    7.4602   20.2148    2.9632 C   0  0  0  0  0  0  0  0  0  0  0  0
    6.6299   20.9373    1.9301 C   0  0  0  0  0  0  0  0  0  0  0  0
    6.3304   22.2305    2.2661 O   0  0  0  0  0  0  0  0  0  0  0  0
    7.4687   22.9706    2.5998 C   0  0  0  0  0  0  0  0  0  0  0  0
    8.0600   22.3067    3.8264 C   0  0  0  0  0  0  0  0  0  0  0  0
   10.5653   18.5639    4.9690 C   0  0  0  0  0  0  0  0  0  0  0  0
   10.0054   19.9866    5.0304 C   0  0  0  0  0  0  0  0  0  0  0  0
   10.8906   20.7038    5.9875 C   0  0  0  0  0  0  0  0  0  0  0  0
   16.2683   28.1126   -7.3198 C   0  0  0  0  0  0  0  0  0  0  0  0
   16.6278   28.9016   -8.0842 N   0  0  0  0  0  0  0  0  0  0  0  0
 34 35  1  0  0  0
 35 36  1  0  0  0
 35 22  1  0  0  0
 22 28  1  0  0  0
 28 29  1  0  0  0
 29 30  1  0  0  0
 30 31  1  0  0  0
 31 32  1  0  0  0
 32 33  1  0  0  0
 22 23  1  0  0  0
 23 24  1  0  0  0
 24 25  1  0  0  0
 25  1  1  0  0  0
  1  2  2  0  0  0
  2  3  1  0  0  0
  3  4  2  0  0  0
  4  5  1  0  0  0
  5  6  2  0  0  0
  4  7  1  0  0  0
  7  8  2  0  0  0
  7  9  1  0  0  0
  9 10  2  0  0  0
 10 11  1  0  0  0
 11 12  1  0  0  0
 12 13  2  0  0  0
 13 14  1  0  0  0
 14 37  1  0  0  0
 37 38  3  0  0  0
 14 15  2  0  0  0
 15 16  1  0  0  0
 16 17  2  0  0  0
 10 18  1  0  0  0
 18 19  1  0  0  0
 18 20  1  0  0  0
 25 26  1  0  0  0
 26 27  1  0  0  0
 27 22  1  0  0  0
 33 28  1  0  0  0
  6  1  1  0  0  0
 17  9  1  0  0  0
 18  3  1  0  0  0
 17 12  1  0  0  0
 11 21  1  0  0  0
M  END
> <minimizedAffinity>
-0.29680

> <CNNscore>
0.3597582579

> <CNNaffinity>
7.2946853638

> <CNN_VS>
2.6243233681

> <CNNaffinity_variance>
0.2858237624

$$$$
[H]c1nc(N2C([H])([H])C([H])([H])C(N3C([H])([H])C([H])([H])OC([H])([H])C3([H])[H])(C([H])(C([H])([H])[H])C([H])([H])[H])C([H])([H])C2([H])[H])c([H])c2c1C(=O)c1c(n([H])c3c([H])c(C#N)c([H])c([H])c13)C2(C([H])([H])[H])C([H])([H])[H]


 38 43  0  0  0  0  0  0  0  0999 V2000
   10.2459   23.2026    0.0391 C   0  0  0  0  0  0  0  0  0  0  0  0
   11.5820   23.3315    0.3150 C   0  0  0  0  0  0  0  0  0  0  0  0
   12.4287   24.0951   -0.5003 C   0  0  0  0  0  0  0  0  0  0  0  0
   11.8702   24.7119   -1.5896 C   0  0  0  0  0  0  0  0  0  0  0  0
   10.5176   24.5660   -1.8467 C   0  0  0  0  0  0  0  0  0  0  0  0
    9.7424   23.8254   -1.0401 N   0  0  0  0  0  0  0  0  0  0  0  0
   12.7032   25.5165   -2.4679 C   0  0  0  0  0  0  0  0  0  0  0  0
   12.1956   26.0907   -3.4779 O   0  0  0  0  0  0  0  0  0  0  0  0
   14.1165   25.6508   -2.1716 C   0  0  0  0  0  0  0  0  0  0  0  0
   14.6291   25.0136   -1.0685 C   0  0  0  0  0  0  0  0  0  0  0  0
   15.9632   25.2826   -0.9956 N   0  0  0  0  0  0  0  0  0  0  0  0
   16.3179   26.0797   -2.0297 C   0  0  0  0  0  0  0  0  0  0  0  0
   17.5282   26.6315   -2.4108 C   0  0  0  0  0  0  0  0  0  0  0  0
   17.5905   27.4190   -3.5326 C   0  0  0  0  0  0  0  0  0  0  0  0
   16.4313   27.6351   -4.2483 C   0  0  0  0  0  0  0  0  0  0  0  0
   15.2257   27.0873   -3.8716 C   0  0  0  0  0  0  0  0  0  0  0  0
   15.1663   26.3049   -2.7564 C   0  0  0  0  0  0  0  0  0  0  0  0
   13.8444   24.1913   -0.1465 C   0  0  0  0  0  0  0  0  0  0  0  0
   14.0159   24.8027    1.2510 C   0  0  0  0  0  0  0  0  0  0  0  0
   14.5265   22.8263   -0.0717 C   0  0  0  0  0  0  0  0  0  0  0  0
   16.6368   24.9520   -0.2811 H   0  0  0  0  0  0  0  0  0  0  0  0
    7.2893   20.8678    2.3413 C   0  0  0  0  0  0  0  0  0  0  0  0
    7.2804   22.3836    2.0486 C   0  0  0  0  0  0  0  0  0  0  0  0
    8.6468   22.9864    1.9913 C   0  0  0  0  0  0  0  0  0  0  0  0
    9.3773   22.4237    0.8723 N   0  0  0  0  0  0  0  0  0  0  0  0
    9.1638   20.9979    0.6555 C   0  0  0  0  0  0  0  0  0  0  0  0
    8.7036   20.4554    1.9922 C   0  0  0  0  0  0  0  0  0  0  0  0
    6.3159   20.3212    1.5027 N   0  0  0  0  0  0  0  0  0  0  0  0
    5.8889   19.0191    1.5217 C   0  0  0  0  0  0  0  0  0  0  0  0
    5.7919   18.4069    0.1454 C   0  0  0  0  0  0  0  0  0  0  0  0
    5.2696   19.2488   -0.7996 O   0  0  0  0  0  0  0  0  0  0  0  0
    5.9361   20.4771   -0.8445 C   0  0  0  0  0  0  0  0  0  0  0  0
    5.7227   21.1234    0.5089 C   0  0  0  0  0  0  0  0  0  0  0  0
    8.2744   20.4601    4.6372 C   0  0  0  0  0  0  0  0  0  0  0  0
    7.0126   20.6108    3.7848 C   0  0  0  0  0  0  0  0  0  0  0  0
    6.1704   21.5923    4.5206 C   0  0  0  0  0  0  0  0  0  0  0  0
   18.8499   28.0171   -3.9636 C   0  0  0  0  0  0  0  0  0  0  0  0
   19.8531   28.4907   -4.2883 N   0  0  0  0  0  0  0  0  0  0  0  0
 34 35  1  0  0  0
 35 36  1  0  0  0
 35 22  1  0  0  0
 22 28  1  0  0  0
 28 29  1  0  0  0
 29 30  1  0  0  0
 30 31  1  0  0  0
 31 32  1  0  0  0
 32 33  1  0  0  0
 22 23  1  0  0  0
 23 24  1  0  0  0
 24 25  1  0  0  0
 25  1  1  0  0  0
  1  2  2  0  0  0
  2  3  1  0  0  0
  3  4  2  0  0  0
  4  5  1  0  0  0
  5  6  2  0  0  0
  4  7  1  0  0  0
  7  8  2  0  0  0
  7  9  1  0  0  0
  9 10  2  0  0  0
 10 11  1  0  0  0
 11 12  1  0  0  0
 12 13  2  0  0  0
 13 14  1  0  0  0
 14 37  1  0  0  0
 37 38  3  0  0  0
 14 15  2  0  0  0
 15 16  1  0  0  0
 16 17  2  0  0  0
 10 18  1  0  0  0
 18 19  1  0  0  0
 18 20  1  0  0  0
 25 26  1  0  0  0
 26 27  1  0  0  0
 27 22  1  0  0  0
 33 28  1  0  0  0
  6  1  1  0  0  0
 17  9  1  0  0  0
 18  3  1  0  0  0
 17 12  1  0  0  0
 11 21  1  0  0  0
M  END
> <minimizedAffinity>
-2.23288

> <CNNscore>
0.3315451443

> <CNNaffinity>
7.1837472916

> <CNN_VS>
2.3817365170

> <CNNaffinity_variance>
0.7378579378

$$$$
[H]c1nc(N2C([H])([H])C([H])([H])C(N3C([H])([H])C([H])([H])OC([H])([H])C3([H])[H])(C([H])(C([H])([H])[H])C([H])([H])[H])C([H])([H])C2([H])[H])c([H])c2c1C(=O)c1c(n([H])c3c([H])c(C#N)c([H])c([H])c13)C2(C([H])([H])[H])C([H])([H])[H]


 38 43  0  0  0  0  0  0  0  0999 V2000
    9.6673   21.6953    2.3787 C   0  0  0  0  0  0  0  0  0  0  0  0
    9.6494   22.4460    1.2324 C   0  0  0  0  0  0  0  0  0  0  0  0
   10.8294   22.9481    0.6663 C   0  0  0  0  0  0  0  0  0  0  0  0
   12.0085   22.6601    1.3032 C   0  0  0  0  0  0  0  0  0  0  0  0
   11.9998   21.8995    2.4600 C   0  0  0  0  0  0  0  0  0  0  0  0
   10.8471   21.4383    2.9687 N   0  0  0  0  0  0  0  0  0  0  0  0
   13.2616   23.1555    0.7581 C   0  0  0  0  0  0  0  0  0  0  0  0
   14.3572   22.8944    1.3402 O   0  0  0  0  0  0  0  0  0  0  0  0
   13.2380   23.9490   -0.4557 C   0  0  0  0  0  0  0  0  0  0  0  0
   12.0315   24.2105   -1.0569 C   0  0  0  0  0  0  0  0  0  0  0  0
   12.2579   24.9651   -2.1691 N   0  0  0  0  0  0  0  0  0  0  0  0
   13.5856   25.1936   -2.2942 C   0  0  0  0  0  0  0  0  0  0  0  0
   14.3288   25.8902   -3.2306 C   0  0  0  0  0  0  0  0  0  0  0  0
   15.6931   25.9552   -3.1004 C   0  0  0  0  0  0  0  0  0  0  0  0
   16.2816   25.3166   -2.0287 C   0  0  0  0  0  0  0  0  0  0  0  0
   15.5446   24.6229   -1.0954 C   0  0  0  0  0  0  0  0  0  0  0  0
   14.1888   24.5597   -1.2269 C   0  0  0  0  0  0  0  0  0  0  0  0
   10.7378   23.7409   -0.5592 C   0  0  0  0  0  0  0  0  0  0  0  0
   10.0963   22.9239   -1.6893 C   0  0  0  0  0  0  0  0  0  0  0  0
    9.8456   24.9707   -0.3993 C   0  0  0  0  0  0  0  0  0  0  0  0
   11.5571   25.3279   -2.8404 H   0  0  0  0  0  0  0  0  0  0  0  0
    5.8386   20.0197    3.8020 C   0  0  0  0  0  0  0  0  0  0  0  0
    6.0598   21.2847    2.9452 C   0  0  0  0  0  0  0  0  0  0  0  0
    7.3209   22.0149    3.2773 C   0  0  0  0  0  0  0  0  0  0  0  0
    8.4622   21.1791    2.9588 N   0  0  0  0  0  0  0  0  0  0  0  0
    8.2943   19.7659    3.2750 C   0  0  0  0  0  0  0  0  0  0  0  0
    7.2209   19.7204    4.3421 C   0  0  0  0  0  0  0  0  0  0  0  0
    5.3529   19.0528    2.9195 N   0  0  0  0  0  0  0  0  0  0  0  0
    5.1829   17.7242    3.2093 C   0  0  0  0  0  0  0  0  0  0  0  0
    5.7069   16.8100    2.1285 C   0  0  0  0  0  0  0  0  0  0  0  0
    5.4303   17.2390    0.8580 O   0  0  0  0  0  0  0  0  0  0  0  0
    5.8414   18.5576    0.6405 C   0  0  0  0  0  0  0  0  0  0  0  0
    5.0363   19.4144    1.5958 C   0  0  0  0  0  0  0  0  0  0  0  0
    4.8532   19.2070    5.9875 C   0  0  0  0  0  0  0  0  0  0  0  0
    4.8920   20.3027    4.9202 C   0  0  0  0  0  0  0  0  0  0  0  0
    5.0673   21.5696    5.6805 C   0  0  0  0  0  0  0  0  0  0  0  0
   16.5082   26.6808   -4.0693 C   0  0  0  0  0  0  0  0  0  0  0  0
   17.1438   27.2492   -4.8498 N   0  0  0  0  0  0  0  0  0  0  0  0
 34 35  1  0  0  0
 35 36  1  0  0  0
 35 22  1  0  0  0
 22 28  1  0  0  0
 28 29  1  0  0  0
 29 30  1  0  0  0
 30 31  1  0  0  0
 31 32  1  0  0  0
 32 33  1  0  0  0
 22 23  1  0  0  0
 23 24  1  0  0  0
 24 25  1  0  0  0
 25  1  1  0  0  0
  1  2  2  0  0  0
  2  3  1  0  0  0
  3  4  2  0  0  0
  4  5  1  0  0  0
  5  6  2  0  0  0
  4  7  1  0  0  0
  7  8  2  0  0  0
  7  9  1  0  0  0
  9 10  2  0  0  0
 10 11  1  0  0  0
 11 12  1  0  0  0
 12 13  2  0  0  0
 13 14  1  0  0  0
 14 37  1  0  0  0
 37 38  3  0  0  0
 14 15  2  0  0  0
 15 16  1  0  0  0
 16 17  2  0  0  0
 10 18  1  0  0  0
 18 19  1  0  0  0
 18 20  1  0  0  0
 25 26  1  0  0  0
 26 27  1  0  0  0
 27 22  1  0  0  0
 33 28  1  0  0  0
  6  1  1  0  0  0
 17  9  1  0  0  0
 18  3  1  0  0  0
 17 12  1  0  0  0
 11 21  1  0  0  0
M  END
> <minimizedAffinity>
-2.10965

> <CNNscore>
0.3243149519

> <CNNaffinity>
6.8918242455

> <CNN_VS>
2.2351217270

> <CNNaffinity_variance>
0.5310539007

$$$$
[H]OC(=O)c1c([H])c([H])nc([H])c1N([H])C([H])([H])C1([H])c2c([H])c([H])c(Sc3sc([H])c([H])c3[H])c([H])c2OC([H])([H])C1([H])[H]


 29 32  0  0  0  0  0  0  0  0999 V2000
   13.6860   24.8783   -1.4190 C   0  0  0  0  0  0  0  0  0  0  0  0
   12.5996   25.9040   -1.1369 C   0  0  0  0  0  0  0  0  0  0  0  0
   11.5432   25.8388   -2.1963 C   0  0  0  0  0  0  0  0  0  0  0  0
   12.0994   25.8909   -3.4754 O   0  0  0  0  0  0  0  0  0  0  0  0
   13.4630   25.7247   -3.7182 C   0  0  0  0  0  0  0  0  0  0  0  0
   13.9995   26.0635   -4.9670 C   0  0  0  0  0  0  0  0  0  0  0  0
   15.3461   25.9091   -5.2349 C   0  0  0  0  0  0  0  0  0  0  0  0
   16.1414   25.4086   -4.2249 C   0  0  0  0  0  0  0  0  0  0  0  0
   15.6119   25.0682   -2.9751 C   0  0  0  0  0  0  0  0  0  0  0  0
   14.2788   25.2319   -2.7412 C   0  0  0  0  0  0  0  0  0  0  0  0
   13.0302   23.5251   -1.4600 C   0  0  0  0  0  0  0  0  0  0  0  0
   13.9747   22.4376   -1.7036 N   0  0  0  0  0  0  0  0  0  0  0  0
   14.1642   22.1637   -2.6840 H   0  0  0  0  0  0  0  0  0  0  0  0
   15.3184   22.3490    0.3570 C   0  0  0  0  0  0  0  0  0  0  0  0
   15.9568   21.5185    1.3061 C   0  0  0  0  0  0  0  0  0  0  0  0
   15.8889   20.1583    1.2444 C   0  0  0  0  0  0  0  0  0  0  0  0
   15.1994   19.5897    0.2584 N   0  0  0  0  0  0  0  0  0  0  0  0
   14.5765   20.3273   -0.6673 C   0  0  0  0  0  0  0  0  0  0  0  0
   14.6157   21.7290   -0.6486 C   0  0  0  0  0  0  0  0  0  0  0  0
   14.6683   24.4937    1.1752 O   0  0  0  0  0  0  0  0  0  0  0  0
   15.4030   23.7746    0.5054 C   0  0  0  0  0  0  0  0  0  0  0  0
   16.4329   24.4514   -0.1822 O   0  0  0  0  0  0  0  0  0  0  0  0
   16.2411   25.0761   -0.9474 H   0  0  0  0  0  0  0  0  0  0  0  0
   15.9461   26.3607   -6.8387 S   0  0  0  0  0  0  0  0  0  0  0  0
   16.1080   28.1525   -6.9911 C   0  0  0  0  0  0  0  0  0  0  0  0
   16.5940   28.8528   -8.0671 C   0  0  0  0  0  0  0  0  0  0  0  0
   16.6224   30.1947   -7.9577 C   0  0  0  0  0  0  0  0  0  0  0  0
   16.1647   30.7385   -6.7851 C   0  0  0  0  0  0  0  0  0  0  0  0
   15.7123   29.3731   -5.8778 S   0  0  0  0  0  0  0  0  0  0  0  0
 20 21  2  0  0  0
 21 22  1  0  0  0
 21 14  1  0  0  0
 14 15  2  0  0  0
 15 16  1  0  0  0
 16 17  2  0  0  0
 17 18  1  0  0  0
 18 19  2  0  0  0
 19 12  1  0  0  0
 12 11  1  0  0  0
 11  1  1  0  0  0
  1  2  1  0  0  0
  2  3  1  0  0  0
  3  4  1  0  0  0
  4  5  1  0  0  0
  5  6  2  0  0  0
  6  7  1  0  0  0
  7 24  1  0  0  0
 24 25  1  0  0  0
 25 26  2  0  0  0
 26 27  1  0  0  0
 27 28  2  0  0  0
 28 29  1  0  0  0
  7  8  2  0  0  0
  8  9  1  0  0  0
  9 10  2  0  0  0
 19 14  1  0  0  0
 10  1  1  0  0  0
 10  5  1  0  0  0
 29 25  1  0  0  0
 22 23  1  0  0  0
 12 13  1  0  0  0
M  END
> <minimizedAffinity>
11.10417

> <CNNscore>
0.6003395319

> <CNNaffinity>
6.9678297043

> <CNN_VS>
4.1830635071

> <CNNaffinity_variance>
0.5266426206

$$$$
[H]OC(=O)c1c([H])c([H])nc([H])c1N([H])C([H])([H])C1([H])c2c([H])c([H])c(Sc3sc([H])c([H])c3[H])c([H])c2OC([H])([H])C1([H])[H]


 29 32  0  0  0  0  0  0  0  0999 V2000
   10.6929   22.8941   -0.5713 C   0  0  0  0  0  0  0  0  0  0  0  0
   10.6385   21.4714   -1.1051 C   0  0  0  0  0  0  0  0  0  0  0  0
   11.7960   20.6803   -0.5792 C   0  0  0  0  0  0  0  0  0  0  0  0
   13.0045   21.3496   -0.7787 O   0  0  0  0  0  0  0  0  0  0  0  0
   13.0768   22.6936   -1.1452 C   0  0  0  0  0  0  0  0  0  0  0  0
   14.2866   23.2319   -1.6021 C   0  0  0  0  0  0  0  0  0  0  0  0
   14.3870   24.5594   -1.9715 C   0  0  0  0  0  0  0  0  0  0  0  0
   13.2495   25.3339   -1.8730 C   0  0  0  0  0  0  0  0  0  0  0  0
   12.0378   24.8026   -1.4174 C   0  0  0  0  0  0  0  0  0  0  0  0
   11.9706   23.4886   -1.0601 C   0  0  0  0  0  0  0  0  0  0  0  0
   10.6682   22.8144    0.9307 C   0  0  0  0  0  0  0  0  0  0  0  0
    9.3596   23.1269    1.4999 N   0  0  0  0  0  0  0  0  0  0  0  0
    8.5163   22.8968    0.9448 H   0  0  0  0  0  0  0  0  0  0  0  0
    9.0143   23.0602    3.9362 C   0  0  0  0  0  0  0  0  0  0  0  0
    8.8146   23.8166    5.1136 C   0  0  0  0  0  0  0  0  0  0  0  0
    8.8104   25.1798    5.1101 C   0  0  0  0  0  0  0  0  0  0  0  0
    9.0000   25.8237    3.9611 N   0  0  0  0  0  0  0  0  0  0  0  0
    9.1928   25.1584    2.8169 C   0  0  0  0  0  0  0  0  0  0  0  0
    9.2061   23.7570    2.7669 C   0  0  0  0  0  0  0  0  0  0  0  0
    9.5764   20.9479    4.8922 O   0  0  0  0  0  0  0  0  0  0  0  0
    9.0421   21.6273    4.0213 C   0  0  0  0  0  0  0  0  0  0  0  0
    8.3929   20.8916    3.0069 O   0  0  0  0  0  0  0  0  0  0  0  0
    8.9038   20.3313    2.3455 H   0  0  0  0  0  0  0  0  0  0  0  0
   15.9522   25.1630   -2.5388 S   0  0  0  0  0  0  0  0  0  0  0  0
   15.7872   26.0038   -4.1281 C   0  0  0  0  0  0  0  0  0  0  0  0
   15.1918   25.5178   -5.2655 C   0  0  0  0  0  0  0  0  0  0  0  0
   15.1850   26.3265   -6.3423 C   0  0  0  0  0  0  0  0  0  0  0  0
   15.7715   27.5583   -6.2056 C   0  0  0  0  0  0  0  0  0  0  0  0
   16.3105   27.5517   -4.5927 S   0  0  0  0  0  0  0  0  0  0  0  0
 20 21  2  0  0  0
 21 22  1  0  0  0
 21 14  1  0  0  0
 14 15  2  0  0  0
 15 16  1  0  0  0
 16 17  2  0  0  0
 17 18  1  0  0  0
 18 19  2  0  0  0
 19 12  1  0  0  0
 12 11  1  0  0  0
 11  1  1  0  0  0
  1  2  1  0  0  0
  2  3  1  0  0  0
  3  4  1  0  0  0
  4  5  1  0  0  0
  5  6  2  0  0  0
  6  7  1  0  0  0
  7 24  1  0  0  0
 24 25  1  0  0  0
 25 26  2  0  0  0
 26 27  1  0  0  0
 27 28  2  0  0  0
 28 29  1  0  0  0
  7  8  2  0  0  0
  8  9  1  0  0  0
  9 10  2  0  0  0
 19 14  1  0  0  0
 10  1  1  0  0  0
 10  5  1  0  0  0
 29 25  1  0  0  0
 22 23  1  0  0  0
 12 13  1  0  0  0
M  END
> <minimizedAffinity>
-8.09634

> <CNNscore>
0.4993689060

> <CNNaffinity>
6.7043905258

> <CNN_VS>
3.3479640484

> <CNNaffinity_variance>
0.0689070374

$$$$
[H]OC(=O)c1c([H])c([H])nc([H])c1N([H])C([H])([H])C1([H])c2c([H])c([H])c(Sc3sc([H])c([H])c3[H])c([H])c2OC([H])([H])C1([H])[H]


 29 32  0  0  0  0  0  0  0  0999 V2000
   11.0841   21.4869   -0.2220 C   0  0  0  0  0  0  0  0  0  0  0  0
   11.6949   20.5737    0.8291 C   0  0  0  0  0  0  0  0  0  0  0  0
   12.0966   21.3704    2.0317 C   0  0  0  0  0  0  0  0  0  0  0  0
   12.8700   22.4765    1.6760 O   0  0  0  0  0  0  0  0  0  0  0  0
   12.9906   22.9281    0.3618 C   0  0  0  0  0  0  0  0  0  0  0  0
   13.9879   23.8528    0.0265 C   0  0  0  0  0  0  0  0  0  0  0  0
   14.1300   24.3171   -1.2670 C   0  0  0  0  0  0  0  0  0  0  0  0
   13.2516   23.8347   -2.2152 C   0  0  0  0  0  0  0  0  0  0  0  0
   12.2531   22.9109   -1.8871 C   0  0  0  0  0  0  0  0  0  0  0  0
   12.1382   22.4715   -0.6015 C   0  0  0  0  0  0  0  0  0  0  0  0
    9.9004   22.1705    0.4061 C   0  0  0  0  0  0  0  0  0  0  0  0
    9.7918   21.9246    1.8420 N   0  0  0  0  0  0  0  0  0  0  0  0
   10.0177   20.9779    2.1954 H   0  0  0  0  0  0  0  0  0  0  0  0
    8.4640   22.6816    3.7716 C   0  0  0  0  0  0  0  0  0  0  0  0
    8.0791   23.7818    4.5713 C   0  0  0  0  0  0  0  0  0  0  0  0
    8.5682   25.0374    4.3645 C   0  0  0  0  0  0  0  0  0  0  0  0
    9.4373   25.2379    3.3770 N   0  0  0  0  0  0  0  0  0  0  0  0
    9.8355   24.2332    2.5889 C   0  0  0  0  0  0  0  0  0  0  0  0
    9.3625   22.9241    2.7599 C   0  0  0  0  0  0  0  0  0  0  0  0
    7.5320   20.5438    3.2686 O   0  0  0  0  0  0  0  0  0  0  0  0
    7.9355   21.3805    4.0703 C   0  0  0  0  0  0  0  0  0  0  0  0
    7.8586   20.9926    5.4250 O   0  0  0  0  0  0  0  0  0  0  0  0
    6.9772   20.8740    5.8956 H   0  0  0  0  0  0  0  0  0  0  0  0
   15.4161   25.4854   -1.6093 S   0  0  0  0  0  0  0  0  0  0  0  0
   15.6391   25.7037   -3.3877 C   0  0  0  0  0  0  0  0  0  0  0  0
   15.7055   26.8897   -4.0758 C   0  0  0  0  0  0  0  0  0  0  0  0
   15.8770   26.8112   -5.4092 C   0  0  0  0  0  0  0  0  0  0  0  0
   15.9696   25.5577   -5.9572 C   0  0  0  0  0  0  0  0  0  0  0  0
   15.8158   24.5347   -4.6074 S   0  0  0  0  0  0  0  0  0  0  0  0
 20 21  2  0  0  0
 21 22  1  0  0  0
 21 14  1  0  0  0
 14 15  2  0  0  0
 15 16  1  0  0  0
 16 17  2  0  0  0
 17 18  1  0  0  0
 18 19  2  0  0  0
 19 12  1  0  0  0
 12 11  1  0  0  0
 11  1  1  0  0  0
  1  2  1  0  0  0
  2  3  1  0  0  0
  3  4  1  0  0  0
  4  5  1  0  0  0
  5  6  2  0  0  0
  6  7  1  0  0  0
  7 24  1  0  0  0
 24 25  1  0  0  0
 25 26  2  0  0  0
 26 27  1  0  0  0
 27 28  2  0  0  0
 28 29  1  0  0  0
  7  8  2  0  0  0
  8  9  1  0  0  0
  9 10  2  0  0  0
 19 14  1  0  0  0
 10  1  1  0  0  0
 10  5  1  0  0  0
 29 25  1  0  0  0
 22 23  1  0  0  0
 12 13  1  0  0  0
M  END
> <minimizedAffinity>
-5.38607

> <CNNscore>
0.4761097133

> <CNNaffinity>
6.7792930603

> <CNN_VS>
3.2276873589

> <CNNaffinity_variance>
0.3175631166

$$$$
[H]OC(=O)c1c([H])c([H])nc([H])c1N([H])C([H])([H])C1([H])c2c([H])c([H])c(Sc3sc([H])c([H])c3[H])c([H])c2OC([H])([H])C1([H])[H]


 29 32  0  0  0  0  0  0  0  0999 V2000
   14.4974   23.3778   -3.9810 C   0  0  0  0  0  0  0  0  0  0  0  0
   15.9666   22.9868   -3.9585 C   0  0  0  0  0  0  0  0  0  0  0  0
   16.7073   23.8275   -2.9650 C   0  0  0  0  0  0  0  0  0  0  0  0
   16.4514   25.1864   -3.1549 O   0  0  0  0  0  0  0  0  0  0  0  0
   15.4187   25.6590   -3.9649 C   0  0  0  0  0  0  0  0  0  0  0  0
   15.3834   27.0078   -4.3410 C   0  0  0  0  0  0  0  0  0  0  0  0
   14.3725   27.5028   -5.1422 C   0  0  0  0  0  0  0  0  0  0  0  0
   13.3995   26.6172   -5.5572 C   0  0  0  0  0  0  0  0  0  0  0  0
   13.4287   25.2686   -5.1851 C   0  0  0  0  0  0  0  0  0  0  0  0
   14.4396   24.8101   -4.3934 C   0  0  0  0  0  0  0  0  0  0  0  0
   13.9581   23.1891   -2.5894 C   0  0  0  0  0  0  0  0  0  0  0  0
   12.5621   22.7594   -2.5691 N   0  0  0  0  0  0  0  0  0  0  0  0
   12.2076   22.2073   -3.3702 H   0  0  0  0  0  0  0  0  0  0  0  0
   10.5357   22.3766   -1.2248 C   0  0  0  0  0  0  0  0  0  0  0  0
    9.7108   22.8590   -0.1833 C   0  0  0  0  0  0  0  0  0  0  0  0
   10.0137   23.9859    0.5215 C   0  0  0  0  0  0  0  0  0  0  0  0
   11.1227   24.6574    0.2212 N   0  0  0  0  0  0  0  0  0  0  0  0
   11.9391   24.2467   -0.7555 C   0  0  0  0  0  0  0  0  0  0  0  0
   11.6728   23.0947   -1.5095 C   0  0  0  0  0  0  0  0  0  0  0  0
   10.7013   20.0621   -1.7794 O   0  0  0  0  0  0  0  0  0  0  0  0
   10.1725   21.1627   -1.9001 C   0  0  0  0  0  0  0  0  0  0  0  0
    9.0933   21.2083   -2.8084 O   0  0  0  0  0  0  0  0  0  0  0  0
    9.2260   21.0929   -3.7991 H   0  0  0  0  0  0  0  0  0  0  0  0
   14.3999   29.2203   -5.5733 S   0  0  0  0  0  0  0  0  0  0  0  0
   13.3782   30.1901   -4.4438 C   0  0  0  0  0  0  0  0  0  0  0  0
   13.5664   30.3615   -3.0949 C   0  0  0  0  0  0  0  0  0  0  0  0
   12.6720   31.1333   -2.4486 C   0  0  0  0  0  0  0  0  0  0  0  0
   11.6574   31.6765   -3.1940 C   0  0  0  0  0  0  0  0  0  0  0  0
   11.9786   31.0991   -4.7610 S   0  0  0  0  0  0  0  0  0  0  0  0
 20 21  2  0  0  0
 21 22  1  0  0  0
 21 14  1  0  0  0
 14 15  2  0  0  0
 15 16  1  0  0  0
 16 17  2  0  0  0
 17 18  1  0  0  0
 18 19  2  0  0  0
 19 12  1  0  0  0
 12 11  1  0  0  0
 11  1  1  0  0  0
  1  2  1  0  0  0
  2  3  1  0  0  0
  3  4  1  0  0  0
  4  5  1  0  0  0
  5  6  2  0  0  0
  6  7  1  0  0  0
  7 24  1  0  0  0
 24 25  1  0  0  0
 25 26  2  0  0  0
 26 27  1  0  0  0
 27 28  2  0  0  0
 28 29  1  0  0  0
  7  8  2  0  0  0
  8  9  1  0  0  0
  9 10  2  0  0  0
 19 14  1  0  0  0
 10  1  1  0  0  0
 10  5  1  0  0  0
 29 25  1  0  0  0
 22 23  1  0  0  0
 12 13  1  0  0  0
M  END
> <minimizedAffinity>
28.43414

> <CNNscore>
0.4211524725

> <CNNaffinity>
6.5816993713

> <CNN_VS>
2.7718989849

> <CNNaffinity_variance>
1.6187131405

$$$$
[H]OC(=O)c1c([H])c([H])nc([H])c1N([H])C([H])([H])C1([H])c2c([H])c([H])c(Sc3sc([H])c([H])c3[H])c([H])c2OC([H])([H])C1([H])[H]


 29 32  0  0  0  0  0  0  0  0999 V2000
   15.3998   24.5778   -0.9356 C   0  0  0  0  0  0  0  0  0  0  0  0
   16.4713   25.6357   -0.7241 C   0  0  0  0  0  0  0  0  0  0  0  0
   16.0687   26.9155   -1.3893 C   0  0  0  0  0  0  0  0  0  0  0  0
   15.6887   26.7037   -2.7156 O   0  0  0  0  0  0  0  0  0  0  0  0
   15.4386   25.4360   -3.2409 C   0  0  0  0  0  0  0  0  0  0  0  0
   15.3393   25.2581   -4.6268 C   0  0  0  0  0  0  0  0  0  0  0  0
   15.0921   24.0139   -5.1744 C   0  0  0  0  0  0  0  0  0  0  0  0
   14.9470   22.9540   -4.3033 C   0  0  0  0  0  0  0  0  0  0  0  0
   15.0450   23.1247   -2.9179 C   0  0  0  0  0  0  0  0  0  0  0  0
   15.2897   24.3652   -2.4078 C   0  0  0  0  0  0  0  0  0  0  0  0
   14.1157   25.1147   -0.3648 C   0  0  0  0  0  0  0  0  0  0  0  0
   12.9513   24.3029   -0.7100 N   0  0  0  0  0  0  0  0  0  0  0  0
   12.7328   24.1607   -1.7121 H   0  0  0  0  0  0  0  0  0  0  0  0
   12.5663   23.0358    1.3651 C   0  0  0  0  0  0  0  0  0  0  0  0
   11.6043   22.4668    2.2304 C   0  0  0  0  0  0  0  0  0  0  0  0
   10.2646   22.5910    2.0106 C   0  0  0  0  0  0  0  0  0  0  0  0
    9.8447   23.2700    0.9459 N   0  0  0  0  0  0  0  0  0  0  0  0
   10.7111   23.8283    0.0935 C   0  0  0  0  0  0  0  0  0  0  0  0
   12.0981   23.7296    0.2747 C   0  0  0  0  0  0  0  0  0  0  0  0
   14.6473   23.6560    2.3534 O   0  0  0  0  0  0  0  0  0  0  0  0
   13.9602   22.8952    1.6791 C   0  0  0  0  0  0  0  0  0  0  0  0
   14.6426   21.7693    1.1708 O   0  0  0  0  0  0  0  0  0  0  0  0
   15.3556   21.8524    0.4657 H   0  0  0  0  0  0  0  0  0  0  0  0
   14.9810   23.8727   -6.9362 S   0  0  0  0  0  0  0  0  0  0  0  0
   16.1823   24.9464   -7.7511 C   0  0  0  0  0  0  0  0  0  0  0  0
   17.3376   24.5657   -8.3873 C   0  0  0  0  0  0  0  0  0  0  0  0
   18.0864   25.5458   -8.9277 C   0  0  0  0  0  0  0  0  0  0  0  0
   17.6286   26.8313   -8.7941 C   0  0  0  0  0  0  0  0  0  0  0  0
   16.1795   26.6362   -7.9258 S   0  0  0  0  0  0  0  0  0  0  0  0
 20 21  2  0  0  0
 21 22  1  0  0  0
 21 14  1  0  0  0
 14 15  2  0  0  0
 15 16  1  0  0  0
 16 17  2  0  0  0
 17 18  1  0  0  0
 18 19  2  0  0  0
 19 12  1  0  0  0
 12 11  1  0  0  0
 11  1  1  0  0  0
  1  2  1  0  0  0
  2  3  1  0  0  0
  3  4  1  0  0  0
  4  5  1  0  0  0
  5  6  2  0  0  0
  6  7  1  0  0  0
  7 24  1  0  0  0
 24 25  1  0  0  0
 25 26  2  0  0  0
 26 27  1  0  0  0
 27 28  2  0  0  0
 28 29  1  0  0  0
  7  8  2  0  0  0
  8  9  1  0  0  0
  9 10  2  0  0  0
 19 14  1  0  0  0
 10  1  1  0  0  0
 10  5  1  0  0  0
 29 25  1  0  0  0
 22 23  1  0  0  0
 12 13  1  0  0  0
M  END
> <minimizedAffinity>
20.01040

> <CNNscore>
0.4017362595

> <CNNaffinity>
6.6069726944

> <CNN_VS>
2.6542603970

> <CNNaffinity_variance>
0.8130053282

$$$$
[H]OC(=O)c1c([H])c([H])nc([H])c1N([H])C([H])([H])C1([H])c2c([H])c([H])c(Sc3sc([H])c([H])c3[H])c([H])c2OC([H])([H])C1([H])[H]


 29 32  0  0  0  0  0  0  0  0999 V2000
   13.8784   20.9964   -0.6400 C   0  0  0  0  0  0  0  0  0  0  0  0
   15.0296   20.4382    0.1816 C   0  0  0  0  0  0  0  0  0  0  0  0
   15.3386   21.3560    1.3238 C   0  0  0  0  0  0  0  0  0  0  0  0
   15.4943   22.6740    0.8917 O   0  0  0  0  0  0  0  0  0  0  0  0
   15.1170   23.1061   -0.3798 C   0  0  0  0  0  0  0  0  0  0  0  0
   15.5490   24.3512   -0.8543 C   0  0  0  0  0  0  0  0  0  0  0  0
   15.1904   24.8043   -2.1094 C   0  0  0  0  0  0  0  0  0  0  0  0
   14.3906   23.9828   -2.8767 C   0  0  0  0  0  0  0  0  0  0  0  0
   13.9556   22.7378   -2.4088 C   0  0  0  0  0  0  0  0  0  0  0  0
   14.3263   22.3186   -1.1655 C   0  0  0  0  0  0  0  0  0  0  0  0
   12.6979   21.1471    0.2801 C   0  0  0  0  0  0  0  0  0  0  0  0
   11.5886   21.8793   -0.3260 N   0  0  0  0  0  0  0  0  0  0  0  0
   11.5311   21.9145   -1.3593 H   0  0  0  0  0  0  0  0  0  0  0  0
    9.2897   22.1821    0.5004 C   0  0  0  0  0  0  0  0  0  0  0  0
    8.4133   22.9902    1.2600 C   0  0  0  0  0  0  0  0  0  0  0  0
    8.8399   24.1040    1.9203 C   0  0  0  0  0  0  0  0  0  0  0  0
   10.1242   24.4453    1.8492 N   0  0  0  0  0  0  0  0  0  0  0  0
   10.9971   23.7174    1.1440 C   0  0  0  0  0  0  0  0  0  0  0  0
   10.6092   22.5638    0.4474 C   0  0  0  0  0  0  0  0  0  0  0  0
    9.2913   19.8893   -0.1592 O   0  0  0  0  0  0  0  0  0  0  0  0
    8.7771   21.0032   -0.1390 C   0  0  0  0  0  0  0  0  0  0  0  0
    7.5497   21.1048   -0.8281 O   0  0  0  0  0  0  0  0  0  0  0  0
    7.4933   21.0272   -1.8297 H   0  0  0  0  0  0  0  0  0  0  0  0
   15.7780   26.3899   -2.6355 S   0  0  0  0  0  0  0  0  0  0  0  0
   15.7430   26.5314   -4.4352 C   0  0  0  0  0  0  0  0  0  0  0  0
   15.3921   25.5578   -5.3370 C   0  0  0  0  0  0  0  0  0  0  0  0
   15.4401   25.8900   -6.6411 C   0  0  0  0  0  0  0  0  0  0  0  0
   15.8338   27.1667   -6.9493 C   0  0  0  0  0  0  0  0  0  0  0  0
   16.1230   27.8598   -5.4235 S   0  0  0  0  0  0  0  0  0  0  0  0
 20 21  2  0  0  0
 21 22  1  0  0  0
 21 14  1  0  0  0
 14 15  2  0  0  0
 15 16  1  0  0  0
 16 17  2  0  0  0
 17 18  1  0  0  0
 18 19  2  0  0  0
 19 12  1  0  0  0
 12 11  1  0  0  0
 11  1  1  0  0  0
  1  2  1  0  0  0
  2  3  1  0  0  0
  3  4  1  0  0  0
  4  5  1  0  0  0
  5  6  2  0  0  0
  6  7  1  0  0  0
  7 24  1  0  0  0
 24 25  1  0  0  0
 25 26  2  0  0  0
 26 27  1  0  0  0
 27 28  2  0  0  0
 28 29  1  0  0  0
  7  8  2  0  0  0
  8  9  1  0  0  0
  9 10  2  0  0  0
 19 14  1  0  0  0
 10  1  1  0  0  0
 10  5  1  0  0  0
 29 25  1  0  0  0
 22 23  1  0  0  0
 12 13  1  0  0  0
M  END
> <minimizedAffinity>
-6.95524

> <CNNscore>
0.3488487899

> <CNNaffinity>
7.2428588867

> <CNN_VS>
2.5266625881

> <CNNaffinity_variance>
0.1207643300

$$$$
[H]OC(=O)c1c([H])c([H])nc([H])c1N([H])C([H])([H])C1([H])c2c([H])c([H])c(Sc3sc([H])c([H])c3[H])c([H])c2OC([H])([H])C1([H])[H]


 29 32  0  0  0  0  0  0  0  0999 V2000
   13.2360   20.9027   -0.8797 C   0  0  0  0  0  0  0  0  0  0  0  0
   13.6503   20.6195    0.5556 C   0  0  0  0  0  0  0  0  0  0  0  0
   13.3151   21.7896    1.4279 C   0  0  0  0  0  0  0  0  0  0  0  0
   13.7982   22.9830    0.8887 O   0  0  0  0  0  0  0  0  0  0  0  0
   14.2621   23.0914   -0.4223 C   0  0  0  0  0  0  0  0  0  0  0  0
   14.9881   24.2220   -0.8183 C   0  0  0  0  0  0  0  0  0  0  0  0
   15.4594   24.3556   -2.1102 C   0  0  0  0  0  0  0  0  0  0  0  0
   15.1871   23.3324   -2.9947 C   0  0  0  0  0  0  0  0  0  0  0  0
   14.4625   22.2003   -2.6057 C   0  0  0  0  0  0  0  0  0  0  0  0
   14.0106   22.0976   -1.3235 C   0  0  0  0  0  0  0  0  0  0  0  0
   11.7578   21.1816   -0.8768 C   0  0  0  0  0  0  0  0  0  0  0  0
   11.0437   20.4771    0.1852 N   0  0  0  0  0  0  0  0  0  0  0  0
   11.4427   19.5894    0.5387 H   0  0  0  0  0  0  0  0  0  0  0  0
    9.5840   21.0744    2.0752 C   0  0  0  0  0  0  0  0  0  0  0  0
    8.2956   21.4976    2.4739 C   0  0  0  0  0  0  0  0  0  0  0  0
    7.3107   21.7762    1.5734 C   0  0  0  0  0  0  0  0  0  0  0  0
    7.5672   21.6461    0.2742 N   0  0  0  0  0  0  0  0  0  0  0  0
    8.7685   21.2482   -0.1590 C   0  0  0  0  0  0  0  0  0  0  0  0
    9.8146   20.9496    0.7258 C   0  0  0  0  0  0  0  0  0  0  0  0
   11.1344   19.7672    3.3318 O   0  0  0  0  0  0  0  0  0  0  0  0
   10.5829   20.8335    3.0779 C   0  0  0  0  0  0  0  0  0  0  0  0
   10.9963   21.9222    3.8750 O   0  0  0  0  0  0  0  0  0  0  0  0
   10.7843   21.9737    4.8573 H   0  0  0  0  0  0  0  0  0  0  0  0
   16.3690   25.8154   -2.5314 S   0  0  0  0  0  0  0  0  0  0  0  0
   15.9565   26.3804   -4.1960 C   0  0  0  0  0  0  0  0  0  0  0  0
   15.1970   25.7220   -5.1308 C   0  0  0  0  0  0  0  0  0  0  0  0
   15.0197   26.3384   -6.3149 C   0  0  0  0  0  0  0  0  0  0  0  0
   15.6120   27.5641   -6.4791 C   0  0  0  0  0  0  0  0  0  0  0  0
   16.3920   27.8179   -4.9895 S   0  0  0  0  0  0  0  0  0  0  0  0
 20 21  2  0  0  0
 21 22  1  0  0  0
 21 14  1  0  0  0
 14 15  2  0  0  0
 15 16  1  0  0  0
 16 17  2  0  0  0
 17 18  1  0  0  0
 18 19  2  0  0  0
 19 12  1  0  0  0
 12 11  1  0  0  0
 11  1  1  0  0  0
  1  2  1  0  0  0
  2  3  1  0  0  0
  3  4  1  0  0  0
  4  5  1  0  0  0
  5  6  2  0  0  0
  6  7  1  0  0  0
  7 24  1  0  0  0
 24 25  1  0  0  0
 25 26  2  0  0  0
 26 27  1  0  0  0
 27 28  2  0  0  0
 28 29  1  0  0  0
  7  8  2  0  0  0
  8  9  1  0  0  0
  9 10  2  0  0  0
 19 14  1  0  0  0
 10  1  1  0  0  0
 10  5  1  0  0  0
 29 25  1  0  0  0
 22 23  1  0  0  0
 12 13  1  0  0  0
M  END
> <minimizedAffinity>
-6.90555

> <CNNscore>
0.3126585186

> <CNNaffinity>
6.8685417175

> <CNN_VS>
2.1475081444

> <CNNaffinity_variance>
0.0170869473

$$$$
[H]OC(=O)c1c([H])c([H])nc([H])c1N([H])C([H])([H])C1([H])c2c([H])c([H])c(Sc3sc([H])c([H])c3[H])c([H])c2OC([H])([H])C1([H])[H]


 29 32  0  0  0  0  0  0  0  0999 V2000
   12.5440   23.5945   -1.7994 C   0  0  0  0  0  0  0  0  0  0  0  0
   11.9451   24.9814   -1.6269 C   0  0  0  0  0  0  0  0  0  0  0  0
   12.5163   25.6404   -0.4095 C   0  0  0  0  0  0  0  0  0  0  0  0
   12.4330   24.8081    0.7079 O   0  0  0  0  0  0  0  0  0  0  0  0
   12.1324   23.4486    0.6218 C   0  0  0  0  0  0  0  0  0  0  0  0
   11.7869   22.7323    1.7748 C   0  0  0  0  0  0  0  0  0  0  0  0
   11.4847   21.3852    1.7187 C   0  0  0  0  0  0  0  0  0  0  0  0
   11.5364   20.7735    0.4832 C   0  0  0  0  0  0  0  0  0  0  0  0
   11.8809   21.4833   -0.6726 C   0  0  0  0  0  0  0  0  0  0  0  0
   12.1739   22.8119   -0.5848 C   0  0  0  0  0  0  0  0  0  0  0  0
   14.0354   23.7568   -1.9098 C   0  0  0  0  0  0  0  0  0  0  0  0
   14.4497   24.4235   -3.1419 N   0  0  0  0  0  0  0  0  0  0  0  0
   14.0695   24.0745   -4.0395 H   0  0  0  0  0  0  0  0  0  0  0  0
   15.2462   26.5944   -3.9858 C   0  0  0  0  0  0  0  0  0  0  0  0
   16.2690   27.5689   -3.9348 C   0  0  0  0  0  0  0  0  0  0  0  0
   17.3415   27.4544   -3.1012 C   0  0  0  0  0  0  0  0  0  0  0  0
   17.4323   26.3902   -2.3073 N   0  0  0  0  0  0  0  0  0  0  0  0
   16.4938   25.4372   -2.3150 C   0  0  0  0  0  0  0  0  0  0  0  0
   15.3718   25.5078   -3.1533 C   0  0  0  0  0  0  0  0  0  0  0  0
   12.9474   26.9036   -4.5439 O   0  0  0  0  0  0  0  0  0  0  0  0
   14.1277   26.7990   -4.8624 C   0  0  0  0  0  0  0  0  0  0  0  0
   14.3813   26.8941   -6.2474 O   0  0  0  0  0  0  0  0  0  0  0  0
   14.0783   26.1852   -6.8941 H   0  0  0  0  0  0  0  0  0  0  0  0
   11.0573   20.5515    3.2214 S   0  0  0  0  0  0  0  0  0  0  0  0
    9.6079   21.3034    3.9922 C   0  0  0  0  0  0  0  0  0  0  0  0
    8.3120   21.2590    3.5416 C   0  0  0  0  0  0  0  0  0  0  0  0
    7.3870   21.8966    4.2840 C   0  0  0  0  0  0  0  0  0  0  0  0
    7.8219   22.5305    5.4193 C   0  0  0  0  0  0  0  0  0  0  0  0
    9.4940   22.2210    5.4173 S   0  0  0  0  0  0  0  0  0  0  0  0
 20 21  2  0  0  0
 21 22  1  0  0  0
 21 14  1  0  0  0
 14 15  2  0  0  0
 15 16  1  0  0  0
 16 17  2  0  0  0
 17 18  1  0  0  0
 18 19  2  0  0  0
 19 12  1  0  0  0
 12 11  1  0  0  0
 11  1  1  0  0  0
  1  2  1  0  0  0
  2  3  1  0  0  0
  3  4  1  0  0  0
  4  5  1  0  0  0
  5  6  2  0  0  0
  6  7  1  0  0  0
  7 24  1  0  0  0
 24 25  1  0  0  0
 25 26  2  0  0  0
 26 27  1  0  0  0
 27 28  2  0  0  0
 28 29  1  0  0  0
  7  8  2  0  0  0
  8  9  1  0  0  0
  9 10  2  0  0  0
 19 14  1  0  0  0
 10  1  1  0  0  0
 10  5  1  0  0  0
 29 25  1  0  0  0
 22 23  1  0  0  0
 12 13  1  0  0  0
M  END
> <minimizedAffinity>
-7.80509

> <CNNscore>
0.2506808043

> <CNNaffinity>
6.8717193604

> <CNN_VS>
1.7226080894

> <CNNaffinity_variance>
0.1805454195

$$$$
[H]OC(=O)c1c([H])c([H])nc([H])c1N([H])C([H])([H])C1([H])c2c([H])c([H])c(Sc3sc([H])c([H])c3[H])c([H])c2OC([H])([H])C1([H])[H]


 29 32  0  0  0  0  0  0  0  0999 V2000
   10.6309   23.1471   -0.5707 C   0  0  0  0  0  0  0  0  0  0  0  0
   10.4058   21.7333   -1.0830 C   0  0  0  0  0  0  0  0  0  0  0  0
   11.4997   20.8315   -0.6010 C   0  0  0  0  0  0  0  0  0  0  0  0
   12.7596   21.3713   -0.8647 O   0  0  0  0  0  0  0  0  0  0  0  0
   12.9518   22.6976   -1.2515 C   0  0  0  0  0  0  0  0  0  0  0  0
   14.1874   23.1048   -1.7708 C   0  0  0  0  0  0  0  0  0  0  0  0
   14.4056   24.4119   -2.1616 C   0  0  0  0  0  0  0  0  0  0  0  0
   13.3595   25.3002   -2.0206 C   0  0  0  0  0  0  0  0  0  0  0  0
   12.1226   24.9001   -1.5026 C   0  0  0  0  0  0  0  0  0  0  0  0
   11.9381   23.6029   -1.1256 C   0  0  0  0  0  0  0  0  0  0  0  0
   10.6692   23.0825    0.9317 C   0  0  0  0  0  0  0  0  0  0  0  0
   10.0581   21.8694    1.4692 N   0  0  0  0  0  0  0  0  0  0  0  0
    9.8761   21.0835    0.8200 H   0  0  0  0  0  0  0  0  0  0  0  0
   10.3626   20.9562    3.7348 C   0  0  0  0  0  0  0  0  0  0  0  0
    9.8411   20.8740    5.0460 C   0  0  0  0  0  0  0  0  0  0  0  0
    8.7126   21.5396    5.4228 C   0  0  0  0  0  0  0  0  0  0  0  0
    8.0775   22.2928    4.5283 N   0  0  0  0  0  0  0  0  0  0  0  0
    8.5262   22.4058    3.2733 C   0  0  0  0  0  0  0  0  0  0  0  0
    9.6815   21.7421    2.8359 C   0  0  0  0  0  0  0  0  0  0  0  0
   11.8592   19.0984    3.7093 O   0  0  0  0  0  0  0  0  0  0  0  0
   11.5759   20.2564    3.4190 C   0  0  0  0  0  0  0  0  0  0  0  0
   12.5707   20.9496    2.6969 O   0  0  0  0  0  0  0  0  0  0  0  0
   13.4516   21.2022    3.1123 H   0  0  0  0  0  0  0  0  0  0  0  0
   15.9959   24.8466   -2.8084 S   0  0  0  0  0  0  0  0  0  0  0  0
   15.8428   26.0020   -4.1873 C   0  0  0  0  0  0  0  0  0  0  0  0
   15.1833   25.7952   -5.3733 C   0  0  0  0  0  0  0  0  0  0  0  0
   15.2006   26.8053   -6.2638 C   0  0  0  0  0  0  0  0  0  0  0  0
   15.8733   27.9453   -5.9065 C   0  0  0  0  0  0  0  0  0  0  0  0
   16.4567   27.5774   -4.3521 S   0  0  0  0  0  0  0  0  0  0  0  0
 20 21  2  0  0  0
 21 22  1  0  0  0
 21 14  1  0  0  0
 14 15  2  0  0  0
 15 16  1  0  0  0
 16 17  2  0  0  0
 17 18  1  0  0  0
 18 19  2  0  0  0
 19 12  1  0  0  0
 12 11  1  0  0  0
 11  1  1  0  0  0
  1  2  1  0  0  0
  2  3  1  0  0  0
  3  4  1  0  0  0
  4  5  1  0  0  0
  5  6  2  0  0  0
  6  7  1  0  0  0
  7 24  1  0  0  0
 24 25  1  0  0  0
 25 26  2  0  0  0
 26 27  1  0  0  0
 27 28  2  0  0  0
 28 29  1  0  0  0
  7  8  2  0  0  0
  8  9  1  0  0  0
  9 10  2  0  0  0
 19 14  1  0  0  0
 10  1  1  0  0  0
 10  5  1  0  0  0
 29 25  1  0  0  0
 22 23  1  0  0  0
 12 13  1  0  0  0
M  END
> <minimizedAffinity>
-8.24388

> <CNNscore>
0.2449998558

> <CNNaffinity>
6.3729476929

> <CNN_VS>
1.5613712072

> <CNNaffinity_variance>
0.2042287886

$$$$
[H]N=c1c(C(=O)N([H])C([H])([H])c2oc([H])c([H])c2[H])c([H])c2c(=O)n3c([H])c([H])c([H])c([H])c3nc2n1C([H])([H])c1c([H])c([H])c(C([H])([H])[H])c([H])c1[H]


 35 39  0  0  0  0  0  0  0  0999 V2000
   11.9266   24.3211   -0.8757 N   0  0  0  0  0  0  0  0  0  0  0  0
   10.7768   23.6264   -0.6614 C   0  0  0  0  0  0  0  0  0  0  0  0
    9.7285   24.1351   -1.1200 N   0  0  0  0  0  0  0  0  0  0  0  0
   10.7060   22.4655    0.0638 C   0  0  0  0  0  0  0  0  0  0  0  0
   11.9041   21.9924    0.6093 C   0  0  0  0  0  0  0  0  0  0  0  0
   13.0695   22.6590    0.4190 C   0  0  0  0  0  0  0  0  0  0  0  0
   14.2304   22.1854    0.9766 C   0  0  0  0  0  0  0  0  0  0  0  0
   14.2499   21.1293    1.6544 O   0  0  0  0  0  0  0  0  0  0  0  0
   15.3821   22.8537    0.8038 N   0  0  0  0  0  0  0  0  0  0  0  0
   16.5308   22.4007    1.3456 C   0  0  0  0  0  0  0  0  0  0  0  0
   17.7234   23.0414    1.1995 C   0  0  0  0  0  0  0  0  0  0  0  0
   17.7696   24.2184    0.4589 C   0  0  0  0  0  0  0  0  0  0  0  0
   16.5812   24.6518   -0.0792 C   0  0  0  0  0  0  0  0  0  0  0  0
   15.3831   23.9899    0.0793 C   0  0  0  0  0  0  0  0  0  0  0  0
   14.2382   24.4360   -0.4583 N   0  0  0  0  0  0  0  0  0  0  0  0
   13.0465   23.8220   -0.3301 C   0  0  0  0  0  0  0  0  0  0  0  0
    8.7736   23.8730   -1.1203 H   0  0  0  0  0  0  0  0  0  0  0  0
    9.5573   21.6184    0.2539 C   0  0  0  0  0  0  0  0  0  0  0  0
    9.8292   20.3532    0.3493 O   0  0  0  0  0  0  0  0  0  0  0  0
    8.2072   22.0022    0.3378 N   0  0  0  0  0  0  0  0  0  0  0  0
    7.9429   22.9905    0.2286 H   0  0  0  0  0  0  0  0  0  0  0  0
    7.1404   21.0292    0.5428 C   0  0  0  0  0  0  0  0  0  0  0  0
    7.0365   20.0764   -0.5711 C   0  0  0  0  0  0  0  0  0  0  0  0
    6.6850   20.3491   -1.8652 C   0  0  0  0  0  0  0  0  0  0  0  0
    6.7187   19.1408   -2.5768 C   0  0  0  0  0  0  0  0  0  0  0  0
    7.0950   18.2040   -1.6476 C   0  0  0  0  0  0  0  0  0  0  0  0
    7.2683   18.7881   -0.5008 O   0  0  0  0  0  0  0  0  0  0  0  0
   11.9361   25.5518   -1.6123 C   0  0  0  0  0  0  0  0  0  0  0  0
   15.5723   26.2486   -6.0806 C   0  0  0  0  0  0  0  0  0  0  0  0
   14.6639   26.0043   -4.9257 C   0  0  0  0  0  0  0  0  0  0  0  0
   14.7290   24.9080   -4.1312 C   0  0  0  0  0  0  0  0  0  0  0  0
   13.8407   24.7392   -3.0524 C   0  0  0  0  0  0  0  0  0  0  0  0
   12.8731   25.6555   -2.7444 C   0  0  0  0  0  0  0  0  0  0  0  0
   12.8345   26.7761   -3.5850 C   0  0  0  0  0  0  0  0  0  0  0  0
   13.7081   26.9477   -4.6509 C   0  0  0  0  0  0  0  0  0  0  0  0
 29 30  1  0  0  0
 30 31  2  0  0  0
 31 32  1  0  0  0
 32 33  2  0  0  0
 33 28  1  0  0  0
 28  1  1  0  0  0
  1  2  1  0  0  0
  2  3  2  0  0  0
  2  4  1  0  0  0
  4 18  1  0  0  0
 18 19  2  0  0  0
 18 20  1  0  0  0
 20 22  1  0  0  0
 22 23  1  0  0  0
 23 24  2  0  0  0
 24 25  1  0  0  0
 25 26  2  0  0  0
 26 27  1  0  0  0
  4  5  2  0  0  0
  5  6  1  0  0  0
  6  7  1  0  0  0
  7  8  2  0  0  0
  7  9  1  0  0  0
  9 10  1  0  0  0
 10 11  2  0  0  0
 11 12  1  0  0  0
 12 13  2  0  0  0
 13 14  1  0  0  0
 14 15  2  0  0  0
 15 16  1  0  0  0
 33 34  1  0  0  0
 34 35  2  0  0  0
 35 30  1  0  0  0
 16  1  1  0  0  0
 27 23  1  0  0  0
 16  6  2  0  0  0
 14  9  1  0  0  0
  3 17  1  0  0  0
 20 21  1  0  0  0
M  END
> <minimizedAffinity>
-6.41833

> <CNNscore>
0.5194834471

> <CNNaffinity>
7.4578194618

> <CNN_VS>
3.8742136955

> <CNNaffinity_variance>
0.2585882246

$$$$
[H]N=c1c(C(=O)N([H])C([H])([H])c2oc([H])c([H])c2[H])c([H])c2c(=O)n3c([H])c([H])c([H])c([H])c3nc2n1C([H])([H])c1c([H])c([H])c(C([H])([H])[H])c([H])c1[H]


 35 39  0  0  0  0  0  0  0  0999 V2000
   13.0242   22.8596   -0.3492 N   0  0  0  0  0  0  0  0  0  0  0  0
   11.8338   22.8489    0.3091 C   0  0  0  0  0  0  0  0  0  0  0  0
   11.6950   21.9687    1.1887 N   0  0  0  0  0  0  0  0  0  0  0  0
   10.7901   23.6892    0.0201 C   0  0  0  0  0  0  0  0  0  0  0  0
   10.9878   24.5993   -1.0237 C   0  0  0  0  0  0  0  0  0  0  0  0
   12.1600   24.6377   -1.7043 C   0  0  0  0  0  0  0  0  0  0  0  0
   12.3265   25.5279   -2.7352 C   0  0  0  0  0  0  0  0  0  0  0  0
   11.4190   26.3310   -3.0621 O   0  0  0  0  0  0  0  0  0  0  0  0
   13.4802   25.5554   -3.4216 N   0  0  0  0  0  0  0  0  0  0  0  0
   13.6585   26.4244   -4.4370 C   0  0  0  0  0  0  0  0  0  0  0  0
   14.8086   26.4915   -5.1630 C   0  0  0  0  0  0  0  0  0  0  0  0
   15.8538   25.6279   -4.8507 C   0  0  0  0  0  0  0  0  0  0  0  0
   15.6387   24.7553   -3.8105 C   0  0  0  0  0  0  0  0  0  0  0  0
   14.4675   24.7016   -3.0866 C   0  0  0  0  0  0  0  0  0  0  0  0
   14.2856   23.8397   -2.0753 N   0  0  0  0  0  0  0  0  0  0  0  0
   13.1599   23.7532   -1.3412 C   0  0  0  0  0  0  0  0  0  0  0  0
   10.9661   21.7196    1.8110 H   0  0  0  0  0  0  0  0  0  0  0  0
    9.5419   23.8131    0.7271 C   0  0  0  0  0  0  0  0  0  0  0  0
    8.4882   23.7921   -0.0299 O   0  0  0  0  0  0  0  0  0  0  0  0
    9.3459   23.9581    2.1118 N   0  0  0  0  0  0  0  0  0  0  0  0
   10.1545   24.0185    2.7451 H   0  0  0  0  0  0  0  0  0  0  0  0
    8.0133   24.0639    2.6949 C   0  0  0  0  0  0  0  0  0  0  0  0
    7.7501   25.4034    3.2387 C   0  0  0  0  0  0  0  0  0  0  0  0
    8.6674   26.3798    3.5178 C   0  0  0  0  0  0  0  0  0  0  0  0
    7.9677   27.4876    4.0186 C   0  0  0  0  0  0  0  0  0  0  0  0
    6.6521   27.0979    4.0077 C   0  0  0  0  0  0  0  0  0  0  0  0
    6.5714   25.8856    3.5494 O   0  0  0  0  0  0  0  0  0  0  0  0
   14.0696   21.9313   -0.0289 C   0  0  0  0  0  0  0  0  0  0  0  0
   18.9747   24.3951    1.8537 C   0  0  0  0  0  0  0  0  0  0  0  0
   17.7410   23.7002    1.3911 C   0  0  0  0  0  0  0  0  0  0  0  0
   17.4698   22.3956    1.6394 C   0  0  0  0  0  0  0  0  0  0  0  0
   16.2821   21.7997    1.1751 C   0  0  0  0  0  0  0  0  0  0  0  0
   15.3441   22.4886    0.4567 C   0  0  0  0  0  0  0  0  0  0  0  0
   15.6558   23.8341    0.2190 C   0  0  0  0  0  0  0  0  0  0  0  0
   16.8262   24.4271    0.6742 C   0  0  0  0  0  0  0  0  0  0  0  0
 29 30  1  0  0  0
 30 31  2  0  0  0
 31 32  1  0  0  0
 32 33  2  0  0  0
 33 28  1  0  0  0
 28  1  1  0  0  0
  1  2  1  0  0  0
  2  3  2  0  0  0
  2  4  1  0  0  0
  4 18  1  0  0  0
 18 19  2  0  0  0
 18 20  1  0  0  0
 20 22  1  0  0  0
 22 23  1  0  0  0
 23 24  2  0  0  0
 24 25  1  0  0  0
 25 26  2  0  0  0
 26 27  1  0  0  0
  4  5  2  0  0  0
  5  6  1  0  0  0
  6  7  1  0  0  0
  7  8  2  0  0  0
  7  9  1  0  0  0
  9 10  1  0  0  0
 10 11  2  0  0  0
 11 12  1  0  0  0
 12 13  2  0  0  0
 13 14  1  0  0  0
 14 15  2  0  0  0
 15 16  1  0  0  0
 33 34  1  0  0  0
 34 35  2  0  0  0
 35 30  1  0  0  0
 16  1  1  0  0  0
 27 23  1  0  0  0
 16  6  2  0  0  0
 14  9  1  0  0  0
  3 17  1  0  0  0
 20 21  1  0  0  0
M  END
> <minimizedAffinity>
-2.92077

> <CNNscore>
0.4907829165

> <CNNaffinity>
7.2560334206

> <CNN_VS>
3.5611371994

> <CNNaffinity_variance>
0.3282393813

$$$$
[H]N=c1c(C(=O)N([H])C([H])([H])c2oc([H])c([H])c2[H])c([H])c2c(=O)n3c([H])c([H])c([H])c([H])c3nc2n1C([H])([H])c1c([H])c([H])c(C([H])([H])[H])c([H])c1[H]


 35 39  0  0  0  0  0  0  0  0999 V2000
   15.4726   24.5468   -1.0200 N   0  0  0  0  0  0  0  0  0  0  0  0
   15.0323   23.4088   -0.4187 C   0  0  0  0  0  0  0  0  0  0  0  0
   15.1289   23.3685    0.8290 N   0  0  0  0  0  0  0  0  0  0  0  0
   14.5618   22.3152   -1.0980 C   0  0  0  0  0  0  0  0  0  0  0  0
   14.5501   22.4011   -2.4942 C   0  0  0  0  0  0  0  0  0  0  0  0
   14.9834   23.5183   -3.1289 C   0  0  0  0  0  0  0  0  0  0  0  0
   14.9780   23.5748   -4.5000 C   0  0  0  0  0  0  0  0  0  0  0  0
   14.5628   22.6156   -5.1949 O   0  0  0  0  0  0  0  0  0  0  0  0
   15.4231   24.6736   -5.1305 N   0  0  0  0  0  0  0  0  0  0  0  0
   15.4239   24.7438   -6.4771 C   0  0  0  0  0  0  0  0  0  0  0  0
   15.8644   25.8345   -7.1629 C   0  0  0  0  0  0  0  0  0  0  0  0
   16.3376   26.9322   -6.4509 C   0  0  0  0  0  0  0  0  0  0  0  0
   16.3228   26.8273   -5.0804 C   0  0  0  0  0  0  0  0  0  0  0  0
   15.8730   25.7149   -4.4031 C   0  0  0  0  0  0  0  0  0  0  0  0
   15.8694   25.6404   -3.0639 N   0  0  0  0  0  0  0  0  0  0  0  0
   15.4388   24.5753   -2.3613 C   0  0  0  0  0  0  0  0  0  0  0  0
   14.9016   22.6970    1.5204 H   0  0  0  0  0  0  0  0  0  0  0  0
   13.9866   21.1179   -0.5424 C   0  0  0  0  0  0  0  0  0  0  0  0
   14.4919   20.0136   -0.9994 O   0  0  0  0  0  0  0  0  0  0  0  0
   12.9583   21.0176    0.4113 N   0  0  0  0  0  0  0  0  0  0  0  0
   12.5026   21.8667    0.7718 H   0  0  0  0  0  0  0  0  0  0  0  0
   12.4777   19.7281    0.8941 C   0  0  0  0  0  0  0  0  0  0  0  0
   12.0523   19.7850    2.2996 C   0  0  0  0  0  0  0  0  0  0  0  0
   11.9446   18.7397    3.1762 C   0  0  0  0  0  0  0  0  0  0  0  0
   11.5047   19.2591    4.4026 C   0  0  0  0  0  0  0  0  0  0  0  0
   11.3744   20.6067    4.1794 C   0  0  0  0  0  0  0  0  0  0  0  0
   11.7011   20.8676    2.9500 O   0  0  0  0  0  0  0  0  0  0  0  0
   15.9898   25.6478   -0.2601 C   0  0  0  0  0  0  0  0  0  0  0  0
   12.6290   28.3444    3.6268 C   0  0  0  0  0  0  0  0  0  0  0  0
   13.4332   27.6296    2.5966 C   0  0  0  0  0  0  0  0  0  0  0  0
   12.9047   27.0584    1.4869 C   0  0  0  0  0  0  0  0  0  0  0  0
   13.7224   26.3992    0.5498 C   0  0  0  0  0  0  0  0  0  0  0  0
   15.0780   26.2958    0.6987 C   0  0  0  0  0  0  0  0  0  0  0  0
   15.5908   26.8976    1.8558 C   0  0  0  0  0  0  0  0  0  0  0  0
   14.7888   27.5489    2.7838 C   0  0  0  0  0  0  0  0  0  0  0  0
 29 30  1  0  0  0
 30 31  2  0  0  0
 31 32  1  0  0  0
 32 33  2  0  0  0
 33 28  1  0  0  0
 28  1  1  0  0  0
  1  2  1  0  0  0
  2  3  2  0  0  0
  2  4  1  0  0  0
  4 18  1  0  0  0
 18 19  2  0  0  0
 18 20  1  0  0  0
 20 22  1  0  0  0
 22 23  1  0  0  0
 23 24  2  0  0  0
 24 25  1  0  0  0
 25 26  2  0  0  0
 26 27  1  0  0  0
  4  5  2  0  0  0
  5  6  1  0  0  0
  6  7  1  0  0  0
  7  8  2  0  0  0
  7  9  1  0  0  0
  9 10  1  0  0  0
 10 11  2  0  0  0
 11 12  1  0  0  0
 12 13  2  0  0  0
 13 14  1  0  0  0
 14 15  2  0  0  0
 15 16  1  0  0  0
 33 34  1  0  0  0
 34 35  2  0  0  0
 35 30  1  0  0  0
 16  1  1  0  0  0
 27 23  1  0  0  0
 16  6  2  0  0  0
 14  9  1  0  0  0
  3 17  1  0  0  0
 20 21  1  0  0  0
M  END
> <minimizedAffinity>
13.44848

> <CNNscore>
0.4817053676

> <CNNaffinity>
7.1281852722

> <CNN_VS>
3.4336850643

> <CNNaffinity_variance>
0.5138918161

$$$$
[H]N=c1c(C(=O)N([H])C([H])([H])c2oc([H])c([H])c2[H])c([H])c2c(=O)n3c([H])c([H])c([H])c([H])c3nc2n1C([H])([H])c1c([H])c([H])c(C([H])([H])[H])c([H])c1[H]


 35 39  0  0  0  0  0  0  0  0999 V2000
   13.7787   26.0712   -2.5101 N   0  0  0  0  0  0  0  0  0  0  0  0
   12.8871   27.0957   -2.5864 C   0  0  0  0  0  0  0  0  0  0  0  0
   12.2759   27.3780   -1.5307 N   0  0  0  0  0  0  0  0  0  0  0  0
   12.5906   27.7698   -3.7425 C   0  0  0  0  0  0  0  0  0  0  0  0
   13.2568   27.3536   -4.9000 C   0  0  0  0  0  0  0  0  0  0  0  0
   14.1505   26.3345   -4.8633 C   0  0  0  0  0  0  0  0  0  0  0  0
   14.7808   25.9322   -6.0139 C   0  0  0  0  0  0  0  0  0  0  0  0
   14.5643   26.4979   -7.1132 O   0  0  0  0  0  0  0  0  0  0  0  0
   15.6529   24.9118   -5.9826 N   0  0  0  0  0  0  0  0  0  0  0  0
   16.2800   24.5052   -7.1050 C   0  0  0  0  0  0  0  0  0  0  0  0
   17.1719   23.4766   -7.1255 C   0  0  0  0  0  0  0  0  0  0  0  0
   17.4563   22.8076   -5.9391 C   0  0  0  0  0  0  0  0  0  0  0  0
   16.7999   23.2475   -4.8142 C   0  0  0  0  0  0  0  0  0  0  0  0
   15.8999   24.2908   -4.8124 C   0  0  0  0  0  0  0  0  0  0  0  0
   15.2743   24.6994   -3.6986 N   0  0  0  0  0  0  0  0  0  0  0  0
   14.3895   25.7134   -3.6503 C   0  0  0  0  0  0  0  0  0  0  0  0
   11.5898   28.0485   -1.2852 H   0  0  0  0  0  0  0  0  0  0  0  0
   11.7416   28.9230   -3.8925 C   0  0  0  0  0  0  0  0  0  0  0  0
   12.0590   29.9292   -3.1370 O   0  0  0  0  0  0  0  0  0  0  0  0
   10.6304   29.0713   -4.7412 N   0  0  0  0  0  0  0  0  0  0  0  0
   10.3201   28.2858   -5.3289 H   0  0  0  0  0  0  0  0  0  0  0  0
    9.8625   30.3098   -4.7967 C   0  0  0  0  0  0  0  0  0  0  0  0
    8.6314   30.2358   -3.9976 C   0  0  0  0  0  0  0  0  0  0  0  0
    8.4541   30.6555   -2.7072 C   0  0  0  0  0  0  0  0  0  0  0  0
    7.1232   30.3884   -2.3540 C   0  0  0  0  0  0  0  0  0  0  0  0
    6.5775   29.8155   -3.4750 C   0  0  0  0  0  0  0  0  0  0  0  0
    7.4846   29.7461   -4.4017 O   0  0  0  0  0  0  0  0  0  0  0  0
   14.0230   25.3762   -1.2795 C   0  0  0  0  0  0  0  0  0  0  0  0
    9.8568   21.9788    0.9056 C   0  0  0  0  0  0  0  0  0  0  0  0
   10.9140   22.8223    0.2814 C   0  0  0  0  0  0  0  0  0  0  0  0
   11.1271   22.9017   -1.0548 C   0  0  0  0  0  0  0  0  0  0  0  0
   12.1433   23.7216   -1.5806 C   0  0  0  0  0  0  0  0  0  0  0  0
   12.9646   24.4761   -0.7891 C   0  0  0  0  0  0  0  0  0  0  0  0
   12.7164   24.3710    0.5861 C   0  0  0  0  0  0  0  0  0  0  0  0
   11.7156   23.5634    1.1105 C   0  0  0  0  0  0  0  0  0  0  0  0
 29 30  1  0  0  0
 30 31  2  0  0  0
 31 32  1  0  0  0
 32 33  2  0  0  0
 33 28  1  0  0  0
 28  1  1  0  0  0
  1  2  1  0  0  0
  2  3  2  0  0  0
  2  4  1  0  0  0
  4 18  1  0  0  0
 18 19  2  0  0  0
 18 20  1  0  0  0
 20 22  1  0  0  0
 22 23  1  0  0  0
 23 24  2  0  0  0
 24 25  1  0  0  0
 25 26  2  0  0  0
 26 27  1  0  0  0
  4  5  2  0  0  0
  5  6  1  0  0  0
  6  7  1  0  0  0
  7  8  2  0  0  0
  7  9  1  0  0  0
  9 10  1  0  0  0
 10 11  2  0  0  0
 11 12  1  0  0  0
 12 13  2  0  0  0
 13 14  1  0  0  0
 14 15  2  0  0  0
 15 16  1  0  0  0
 33 34  1  0  0  0
 34 35  2  0  0  0
 35 30  1  0  0  0
 16  1  1  0  0  0
 27 23  1  0  0  0
 16  6  2  0  0  0
 14  9  1  0  0  0
  3 17  1  0  0  0
 20 21  1  0  0  0
M  END
> <minimizedAffinity>
24.88033

> <CNNscore>
0.4793606400

> <CNNaffinity>
6.7813215256

> <CNN_VS>
3.2506985664

> <CNNaffinity_variance>
0.8377181888

$$$$
[H]N=c1c(C(=O)N([H])C([H])([H])c2oc([H])c([H])c2[H])c([H])c2c(=O)n3c([H])c([H])c([H])c([H])c3nc2n1C([H])([H])c1c([H])c([H])c(C([H])([H])[H])c([H])c1[H]


 35 39  0  0  0  0  0  0  0  0999 V2000
   13.3487   23.2209   -1.1925 N   0  0  0  0  0  0  0  0  0  0  0  0
   13.4650   24.2573   -2.0660 C   0  0  0  0  0  0  0  0  0  0  0  0
   14.5745   24.3824   -2.6326 N   0  0  0  0  0  0  0  0  0  0  0  0
   12.4768   25.1780   -2.2994 C   0  0  0  0  0  0  0  0  0  0  0  0
   11.2890   25.0204   -1.5774 C   0  0  0  0  0  0  0  0  0  0  0  0
   11.1373   24.0010   -0.6963 C   0  0  0  0  0  0  0  0  0  0  0  0
    9.9695   23.8746    0.0130 C   0  0  0  0  0  0  0  0  0  0  0  0
    9.0166   24.6765   -0.1429 O   0  0  0  0  0  0  0  0  0  0  0  0
    9.8242   22.8760    0.8988 N   0  0  0  0  0  0  0  0  0  0  0  0
    8.6825   22.7390    1.6032 C   0  0  0  0  0  0  0  0  0  0  0  0
    8.4864   21.7443    2.5122 C   0  0  0  0  0  0  0  0  0  0  0  0
    9.5046   20.8218    2.7318 C   0  0  0  0  0  0  0  0  0  0  0  0
   10.6543   20.9907    1.9975 C   0  0  0  0  0  0  0  0  0  0  0  0
   10.8351   22.0038    1.0813 C   0  0  0  0  0  0  0  0  0  0  0  0
   11.9684   22.1439    0.3778 N   0  0  0  0  0  0  0  0  0  0  0  0
   12.1879   23.1168   -0.5271 C   0  0  0  0  0  0  0  0  0  0  0  0
   14.9474   25.0187   -3.2935 H   0  0  0  0  0  0  0  0  0  0  0  0
   12.4782   26.2388   -3.2730 C   0  0  0  0  0  0  0  0  0  0  0  0
   13.6413   26.4994   -3.7860 O   0  0  0  0  0  0  0  0  0  0  0  0
   11.3861   27.0081   -3.7117 N   0  0  0  0  0  0  0  0  0  0  0  0
   10.4531   26.8615   -3.3036 H   0  0  0  0  0  0  0  0  0  0  0  0
   11.5337   28.0523   -4.7190 C   0  0  0  0  0  0  0  0  0  0  0  0
   10.2697   28.7552   -4.9793 C   0  0  0  0  0  0  0  0  0  0  0  0
    9.8964   29.9881   -4.5175 C   0  0  0  0  0  0  0  0  0  0  0  0
    8.6129   30.2562   -5.0156 C   0  0  0  0  0  0  0  0  0  0  0  0
    8.2926   29.1473   -5.7576 C   0  0  0  0  0  0  0  0  0  0  0  0
    9.2789   28.3039   -5.7094 O   0  0  0  0  0  0  0  0  0  0  0  0
   14.4300   22.3078   -0.9599 C   0  0  0  0  0  0  0  0  0  0  0  0
   18.8656   24.5183    2.0589 C   0  0  0  0  0  0  0  0  0  0  0  0
   17.7378   23.8892    1.3165 C   0  0  0  0  0  0  0  0  0  0  0  0
   17.2514   22.6530    1.5857 C   0  0  0  0  0  0  0  0  0  0  0  0
   16.1799   22.1175    0.8466 C   0  0  0  0  0  0  0  0  0  0  0  0
   15.5735   22.7998   -0.1718 C   0  0  0  0  0  0  0  0  0  0  0  0
   16.1004   24.0739   -0.4226 C   0  0  0  0  0  0  0  0  0  0  0  0
   17.1576   24.6072    0.3030 C   0  0  0  0  0  0  0  0  0  0  0  0
 29 30  1  0  0  0
 30 31  2  0  0  0
 31 32  1  0  0  0
 32 33  2  0  0  0
 33 28  1  0  0  0
 28  1  1  0  0  0
  1  2  1  0  0  0
  2  3  2  0  0  0
  2  4  1  0  0  0
  4 18  1  0  0  0
 18 19  2  0  0  0
 18 20  1  0  0  0
 20 22  1  0  0  0
 22 23  1  0  0  0
 23 24  2  0  0  0
 24 25  1  0  0  0
 25 26  2  0  0  0
 26 27  1  0  0  0
  4  5  2  0  0  0
  5  6  1  0  0  0
  6  7  1  0  0  0
  7  8  2  0  0  0
  7  9  1  0  0  0
  9 10  1  0  0  0
 10 11  2  0  0  0
 11 12  1  0  0  0
 12 13  2  0  0  0
 13 14  1  0  0  0
 14 15  2  0  0  0
 15 16  1  0  0  0
 33 34  1  0  0  0
 34 35  2  0  0  0
 35 30  1  0  0  0
 16  1  1  0  0  0
 27 23  1  0  0  0
 16  6  2  0  0  0
 14  9  1  0  0  0
  3 17  1  0  0  0
 20 21  1  0  0  0
M  END
> <minimizedAffinity>
9.93344

> <CNNscore>
0.4787872136

> <CNNaffinity>
7.1879439354

> <CNN_VS>
3.4414956570

> <CNNaffinity_variance>
1.5338418484

$$$$
[H]N=c1c(C(=O)N([H])C([H])([H])c2oc([H])c([H])c2[H])c([H])c2c(=O)n3c([H])c([H])c([H])c([H])c3nc2n1C([H])([H])c1c([H])c([H])c(C([H])([H])[H])c([H])c1[H]


 35 39  0  0  0  0  0  0  0  0999 V2000
   15.5000   24.7536   -1.4199 N   0  0  0  0  0  0  0  0  0  0  0  0
   15.2063   23.7354   -0.5669 C   0  0  0  0  0  0  0  0  0  0  0  0
   15.3600   23.9727    0.6529 N   0  0  0  0  0  0  0  0  0  0  0  0
   14.8228   22.4830   -0.9709 C   0  0  0  0  0  0  0  0  0  0  0  0
   14.7422   22.2660   -2.3505 C   0  0  0  0  0  0  0  0  0  0  0  0
   15.0298   23.2561   -3.2313 C   0  0  0  0  0  0  0  0  0  0  0  0
   14.9595   23.0165   -4.5806 C   0  0  0  0  0  0  0  0  0  0  0  0
   14.6165   21.8966   -5.0315 O   0  0  0  0  0  0  0  0  0  0  0  0
   15.2609   23.9906   -5.4542 N   0  0  0  0  0  0  0  0  0  0  0  0
   15.1965   23.7702   -6.7829 C   0  0  0  0  0  0  0  0  0  0  0  0
   15.4918   24.7243   -7.7084 C   0  0  0  0  0  0  0  0  0  0  0  0
   15.8789   25.9880   -7.2736 C   0  0  0  0  0  0  0  0  0  0  0  0
   15.9340   26.1785   -5.9133 C   0  0  0  0  0  0  0  0  0  0  0  0
   15.6314   25.2006   -4.9909 C   0  0  0  0  0  0  0  0  0  0  0  0
   15.6931   25.4152   -3.6684 N   0  0  0  0  0  0  0  0  0  0  0  0
   15.4058   24.4905   -2.7325 C   0  0  0  0  0  0  0  0  0  0  0  0
   15.2335   23.4471    1.4825 H   0  0  0  0  0  0  0  0  0  0  0  0
   14.3991   21.3850   -0.1415 C   0  0  0  0  0  0  0  0  0  0  0  0
   15.1391   20.3229   -0.2320 O   0  0  0  0  0  0  0  0  0  0  0  0
   13.2949   21.3369    0.7278 N   0  0  0  0  0  0  0  0  0  0  0  0
   12.6593   22.1426    0.8014 H   0  0  0  0  0  0  0  0  0  0  0  0
   12.9885   20.1515    1.5201 C   0  0  0  0  0  0  0  0  0  0  0  0
   12.1045   20.4551    2.6541 C   0  0  0  0  0  0  0  0  0  0  0  0
   11.7823   19.6309    3.6979 C   0  0  0  0  0  0  0  0  0  0  0  0
   10.9111   20.3361    4.5411 C   0  0  0  0  0  0  0  0  0  0  0  0
   10.7638   21.5601    3.9385 C   0  0  0  0  0  0  0  0  0  0  0  0
   11.4711   21.5859    2.8498 O   0  0  0  0  0  0  0  0  0  0  0  0
   15.9326   26.0348   -0.9417 C   0  0  0  0  0  0  0  0  0  0  0  0
   19.0469   29.4589   -4.4418 C   0  0  0  0  0  0  0  0  0  0  0  0
   18.2991   28.5320   -3.5471 C   0  0  0  0  0  0  0  0  0  0  0  0
   18.8196   27.3891   -3.0371 C   0  0  0  0  0  0  0  0  0  0  0  0
   18.0587   26.5575   -2.1940 C   0  0  0  0  0  0  0  0  0  0  0  0
   16.7687   26.8464   -1.8433 C   0  0  0  0  0  0  0  0  0  0  0  0
   16.2626   28.0347   -2.3871 C   0  0  0  0  0  0  0  0  0  0  0  0
   17.0086   28.8587   -3.2197 C   0  0  0  0  0  0  0  0  0  0  0  0
 29 30  1  0  0  0
 30 31  2  0  0  0
 31 32  1  0  0  0
 32 33  2  0  0  0
 33 28  1  0  0  0
 28  1  1  0  0  0
  1  2  1  0  0  0
  2  3  2  0  0  0
  2  4  1  0  0  0
  4 18  1  0  0  0
 18 19  2  0  0  0
 18 20  1  0  0  0
 20 22  1  0  0  0
 22 23  1  0  0  0
 23 24  2  0  0  0
 24 25  1  0  0  0
 25 26  2  0  0  0
 26 27  1  0  0  0
  4  5  2  0  0  0
  5  6  1  0  0  0
  6  7  1  0  0  0
  7  8  2  0  0  0
  7  9  1  0  0  0
  9 10  1  0  0  0
 10 11  2  0  0  0
 11 12  1  0  0  0
 12 13  2  0  0  0
 13 14  1  0  0  0
 14 15  2  0  0  0
 15 16  1  0  0  0
 33 34  1  0  0  0
 34 35  2  0  0  0
 35 30  1  0  0  0
 16  1  1  0  0  0
 27 23  1  0  0  0
 16  6  2  0  0  0
 14  9  1  0  0  0
  3 17  1  0  0  0
 20 21  1  0  0  0
M  END
> <minimizedAffinity>
8.81647

> <CNNscore>
0.4563772082

> <CNNaffinity>
7.2239861488

> <CNN_VS>
3.2968626022

> <CNNaffinity_variance>
0.8524471521

$$$$
[H]N=c1c(C(=O)N([H])C([H])([H])c2oc([H])c([H])c2[H])c([H])c2c(=O)n3c([H])c([H])c([H])c([H])c3nc2n1C([H])([H])c1c([H])c([H])c(C([H])([H])[H])c([H])c1[H]


 35 39  0  0  0  0  0  0  0  0999 V2000
   14.7726   23.5197   -2.7514 N   0  0  0  0  0  0  0  0  0  0  0  0
   14.6688   24.0350   -1.4967 C   0  0  0  0  0  0  0  0  0  0  0  0
   14.2871   23.2451   -0.6033 N   0  0  0  0  0  0  0  0  0  0  0  0
   14.8945   25.3510   -1.1870 C   0  0  0  0  0  0  0  0  0  0  0  0
   15.2466   26.1935   -2.2467 C   0  0  0  0  0  0  0  0  0  0  0  0
   15.3575   25.7164   -3.5112 C   0  0  0  0  0  0  0  0  0  0  0  0
   15.6886   26.5640   -4.5383 C   0  0  0  0  0  0  0  0  0  0  0  0
   15.9111   27.7829   -4.3378 O   0  0  0  0  0  0  0  0  0  0  0  0
   15.7817   26.0968   -5.7936 N   0  0  0  0  0  0  0  0  0  0  0  0
   16.1061   26.9176   -6.8131 C   0  0  0  0  0  0  0  0  0  0  0  0
   16.2131   26.4928   -8.1024 C   0  0  0  0  0  0  0  0  0  0  0  0
   15.9789   25.1521   -8.3917 C   0  0  0  0  0  0  0  0  0  0  0  0
   15.6507   24.3435   -7.3296 C   0  0  0  0  0  0  0  0  0  0  0  0
   15.5469   24.7912   -6.0307 C   0  0  0  0  0  0  0  0  0  0  0  0
   15.2254   23.9788   -5.0131 N   0  0  0  0  0  0  0  0  0  0  0  0
   15.1138   24.3723   -3.7301 C   0  0  0  0  0  0  0  0  0  0  0  0
   14.1204   23.3271    0.3694 H   0  0  0  0  0  0  0  0  0  0  0  0
   14.9054   25.9553    0.1198 C   0  0  0  0  0  0  0  0  0  0  0  0
   13.7484   26.3759    0.5299 O   0  0  0  0  0  0  0  0  0  0  0  0
   16.0061   26.1413    0.9747 N   0  0  0  0  0  0  0  0  0  0  0  0
   16.9483   25.8581    0.6738 H   0  0  0  0  0  0  0  0  0  0  0  0
   15.8674   26.7655    2.2855 C   0  0  0  0  0  0  0  0  0  0  0  0
   14.4970   27.2335    2.5352 C   0  0  0  0  0  0  0  0  0  0  0  0
   13.3523   26.8179    1.9109 C   0  0  0  0  0  0  0  0  0  0  0  0
   12.2824   27.5338    2.4677 C   0  0  0  0  0  0  0  0  0  0  0  0
   12.8639   28.3475    3.4072 C   0  0  0  0  0  0  0  0  0  0  0  0
   14.1460   28.1417    3.4129 O   0  0  0  0  0  0  0  0  0  0  0  0
   14.4883   22.1407   -3.0246 C   0  0  0  0  0  0  0  0  0  0  0  0
   10.5528   19.4809    0.3088 C   0  0  0  0  0  0  0  0  0  0  0  0
   11.5106   20.2001   -0.5768 C   0  0  0  0  0  0  0  0  0  0  0  0
   11.1689   21.2451   -1.3695 C   0  0  0  0  0  0  0  0  0  0  0  0
   12.1250   21.8832   -2.1820 C   0  0  0  0  0  0  0  0  0  0  0  0
   13.4357   21.4948   -2.2211 C   0  0  0  0  0  0  0  0  0  0  0  0
   13.7543   20.4128   -1.3894 C   0  0  0  0  0  0  0  0  0  0  0  0
   12.8152   19.7792   -0.5862 C   0  0  0  0  0  0  0  0  0  0  0  0
 29 30  1  0  0  0
 30 31  2  0  0  0
 31 32  1  0  0  0
 32 33  2  0  0  0
 33 28  1  0  0  0
 28  1  1  0  0  0
  1  2  1  0  0  0
  2  3  2  0  0  0
  2  4  1  0  0  0
  4 18  1  0  0  0
 18 19  2  0  0  0
 18 20  1  0  0  0
 20 22  1  0  0  0
 22 23  1  0  0  0
 23 24  2  0  0  0
 24 25  1  0  0  0
 25 26  2  0  0  0
 26 27  1  0  0  0
  4  5  2  0  0  0
  5  6  1  0  0  0
  6  7  1  0  0  0
  7  8  2  0  0  0
  7  9  1  0  0  0
  9 10  1  0  0  0
 10 11  2  0  0  0
 11 12  1  0  0  0
 12 13  2  0  0  0
 13 14  1  0  0  0
 14 15  2  0  0  0
 15 16  1  0  0  0
 33 34  1  0  0  0
 34 35  2  0  0  0
 35 30  1  0  0  0
 16  1  1  0  0  0
 27 23  1  0  0  0
 16  6  2  0  0  0
 14  9  1  0  0  0
  3 17  1  0  0  0
 20 21  1  0  0  0
M  END
> <minimizedAffinity>
21.07150

> <CNNscore>
0.4447416663

> <CNNaffinity>
7.0281882286

> <CNN_VS>
3.1257281303

> <CNNaffinity_variance>
0.5386633873

$$$$
[H]N=c1c(C(=O)N([H])C([H])([H])c2oc([H])c([H])c2[H])c([H])c2c(=O)n3c([H])c([H])c([H])c([H])c3nc2n1C([H])([H])c1c([H])c([H])c(C([H])([H])[H])c([H])c1[H]


 35 39  0  0  0  0  0  0  0  0999 V2000
   11.9310   24.2173   -0.9166 N   0  0  0  0  0  0  0  0  0  0  0  0
   13.2416   24.1265   -0.5636 C   0  0  0  0  0  0  0  0  0  0  0  0
   14.0446   24.8162   -1.2324 N   0  0  0  0  0  0  0  0  0  0  0  0
   13.7159   23.2943    0.4169 C   0  0  0  0  0  0  0  0  0  0  0  0
   12.7724   22.4976    1.0742 C   0  0  0  0  0  0  0  0  0  0  0  0
   11.4577   22.5590    0.7480 C   0  0  0  0  0  0  0  0  0  0  0  0
   10.5515   21.7569    1.3949 C   0  0  0  0  0  0  0  0  0  0  0  0
   10.9053   20.9676    2.3044 O   0  0  0  0  0  0  0  0  0  0  0  0
    9.2518   21.8037    1.0610 N   0  0  0  0  0  0  0  0  0  0  0  0
    8.3497   21.0215    1.6877 C   0  0  0  0  0  0  0  0  0  0  0  0
    7.0220   21.0320    1.3860 C   0  0  0  0  0  0  0  0  0  0  0  0
    6.5648   21.8853    0.3866 C   0  0  0  0  0  0  0  0  0  0  0  0
    7.5105   22.6683   -0.2315 C   0  0  0  0  0  0  0  0  0  0  0  0
    8.8508   22.6444    0.0872 C   0  0  0  0  0  0  0  0  0  0  0  0
    9.7518   23.4209   -0.5326 N   0  0  0  0  0  0  0  0  0  0  0  0
   11.0691   23.4310   -0.2534 C   0  0  0  0  0  0  0  0  0  0  0  0
   15.0253   24.9519   -1.2126 H   0  0  0  0  0  0  0  0  0  0  0  0
   15.0623   23.2092    0.9200 C   0  0  0  0  0  0  0  0  0  0  0  0
   15.5126   21.9999    1.0557 O   0  0  0  0  0  0  0  0  0  0  0  0
   15.9175   24.2664    1.2780 N   0  0  0  0  0  0  0  0  0  0  0  0
   15.5879   25.2394    1.2230 H   0  0  0  0  0  0  0  0  0  0  0  0
   17.2707   24.0310    1.7682 C   0  0  0  0  0  0  0  0  0  0  0  0
   18.2677   24.0778    0.6897 C   0  0  0  0  0  0  0  0  0  0  0  0
   18.0332   24.2269   -0.6503 C   0  0  0  0  0  0  0  0  0  0  0  0
   19.2754   24.2155   -1.3015 C   0  0  0  0  0  0  0  0  0  0  0  0
   20.1920   24.0576   -0.2927 C   0  0  0  0  0  0  0  0  0  0  0  0
   19.5661   23.9821    0.8426 O   0  0  0  0  0  0  0  0  0  0  0  0
   11.4953   25.0792   -1.9770 C   0  0  0  0  0  0  0  0  0  0  0  0
   15.6167   26.8346   -5.6657 C   0  0  0  0  0  0  0  0  0  0  0  0
   14.5366   26.4508   -4.7144 C   0  0  0  0  0  0  0  0  0  0  0  0
   13.5560   27.2920   -4.3044 C   0  0  0  0  0  0  0  0  0  0  0  0
   12.5620   26.8645   -3.4041 C   0  0  0  0  0  0  0  0  0  0  0  0
   12.5249   25.5953   -2.8958 C   0  0  0  0  0  0  0  0  0  0  0  0
   13.5522   24.7525   -3.3409 C   0  0  0  0  0  0  0  0  0  0  0  0
   14.5356   25.1689   -4.2286 C   0  0  0  0  0  0  0  0  0  0  0  0
 29 30  1  0  0  0
 30 31  2  0  0  0
 31 32  1  0  0  0
 32 33  2  0  0  0
 33 28  1  0  0  0
 28  1  1  0  0  0
  1  2  1  0  0  0
  2  3  2  0  0  0
  2  4  1  0  0  0
  4 18  1  0  0  0
 18 19  2  0  0  0
 18 20  1  0  0  0
 20 22  1  0  0  0
 22 23  1  0  0  0
 23 24  2  0  0  0
 24 25  1  0  0  0
 25 26  2  0  0  0
 26 27  1  0  0  0
  4  5  2  0  0  0
  5  6  1  0  0  0
  6  7  1  0  0  0
  7  8  2  0  0  0
  7  9  1  0  0  0
  9 10  1  0  0  0
 10 11  2  0  0  0
 11 12  1  0  0  0
 12 13  2  0  0  0
 13 14  1  0  0  0
 14 15  2  0  0  0
 15 16  1  0  0  0
 33 34  1  0  0  0
 34 35  2  0  0  0
 35 30  1  0  0  0
 16  1  1  0  0  0
 27 23  1  0  0  0
 16  6  2  0  0  0
 14  9  1  0  0  0
  3 17  1  0  0  0
 20 21  1  0  0  0
M  END
> <minimizedAffinity>
8.94873

> <CNNscore>
0.4304494858

> <CNNaffinity>
7.1853117943

> <CNN_VS>
3.0929138660

> <CNNaffinity_variance>
0.6019671559

$$$$
[H]N=c1c(C(=O)N([H])C([H])([H])c2oc([H])c([H])c2[H])c([H])c2c(=O)n3c([H])c([H])c([H])c([H])c3nc2n1C([H])([H])c1c([H])c([H])c(C([H])([H])[H])c([H])c1[H]


 35 39  0  0  0  0  0  0  0  0999 V2000
   13.8324   21.7983   -0.7805 N   0  0  0  0  0  0  0  0  0  0  0  0
   13.3378   21.1526    0.3098 C   0  0  0  0  0  0  0  0  0  0  0  0
   13.7526   19.9863    0.4985 N   0  0  0  0  0  0  0  0  0  0  0  0
   12.3899   21.6790    1.1484 C   0  0  0  0  0  0  0  0  0  0  0  0
   11.9169   22.9579    0.8364 C   0  0  0  0  0  0  0  0  0  0  0  0
   12.3845   23.6314   -0.2437 C   0  0  0  0  0  0  0  0  0  0  0  0
   11.8949   24.8786   -0.5401 C   0  0  0  0  0  0  0  0  0  0  0  0
   11.0257   25.4303    0.1778 O   0  0  0  0  0  0  0  0  0  0  0  0
   12.3441   25.5395   -1.6191 N   0  0  0  0  0  0  0  0  0  0  0  0
   11.8724   26.7656   -1.9232 C   0  0  0  0  0  0  0  0  0  0  0  0
   12.2955   27.4760   -3.0051 C   0  0  0  0  0  0  0  0  0  0  0  0
   13.2584   26.9201   -3.8416 C   0  0  0  0  0  0  0  0  0  0  0  0
   13.7174   25.6695   -3.5027 C   0  0  0  0  0  0  0  0  0  0  0  0
   13.2775   24.9651   -2.4032 C   0  0  0  0  0  0  0  0  0  0  0  0
   13.7441   23.7457   -2.0961 N   0  0  0  0  0  0  0  0  0  0  0  0
   13.3441   23.0226   -1.0328 C   0  0  0  0  0  0  0  0  0  0  0  0
   13.5786   19.2908    1.1816 H   0  0  0  0  0  0  0  0  0  0  0  0
   11.8881   21.1103    2.3723 C   0  0  0  0  0  0  0  0  0  0  0  0
   12.6404   20.1866    2.8868 O   0  0  0  0  0  0  0  0  0  0  0  0
   10.6988   21.4333    3.0492 N   0  0  0  0  0  0  0  0  0  0  0  0
   10.0538   22.1321    2.6566 H   0  0  0  0  0  0  0  0  0  0  0  0
   10.3181   20.7773    4.2948 C   0  0  0  0  0  0  0  0  0  0  0  0
    8.8645   20.7946    4.5096 C   0  0  0  0  0  0  0  0  0  0  0  0
    8.0461   21.8905    4.5547 C   0  0  0  0  0  0  0  0  0  0  0  0
    6.7392   21.4341    4.7809 C   0  0  0  0  0  0  0  0  0  0  0  0
    6.8593   20.0694    4.8582 C   0  0  0  0  0  0  0  0  0  0  0  0
    8.1055   19.7422    4.6960 O   0  0  0  0  0  0  0  0  0  0  0  0
   14.7976   21.1839   -1.6454 C   0  0  0  0  0  0  0  0  0  0  0  0
   16.3029   24.0813   -6.4426 C   0  0  0  0  0  0  0  0  0  0  0  0
   15.9605   23.3787   -5.1745 C   0  0  0  0  0  0  0  0  0  0  0  0
   16.3654   23.7911   -3.9485 C   0  0  0  0  0  0  0  0  0  0  0  0
   16.0040   23.0816   -2.7877 C   0  0  0  0  0  0  0  0  0  0  0  0
   15.2350   21.9513   -2.8246 C   0  0  0  0  0  0  0  0  0  0  0  0
   14.8335   21.5538   -4.1071 C   0  0  0  0  0  0  0  0  0  0  0  0
   15.1874   22.2496   -5.2557 C   0  0  0  0  0  0  0  0  0  0  0  0
 29 30  1  0  0  0
 30 31  2  0  0  0
 31 32  1  0  0  0
 32 33  2  0  0  0
 33 28  1  0  0  0
 28  1  1  0  0  0
  1  2  1  0  0  0
  2  3  2  0  0  0
  2  4  1  0  0  0
  4 18  1  0  0  0
 18 19  2  0  0  0
 18 20  1  0  0  0
 20 22  1  0  0  0
 22 23  1  0  0  0
 23 24  2  0  0  0
 24 25  1  0  0  0
 25 26  2  0  0  0
 26 27  1  0  0  0
  4  5  2  0  0  0
  5  6  1  0  0  0
  6  7  1  0  0  0
  7  8  2  0  0  0
  7  9  1  0  0  0
  9 10  1  0  0  0
 10 11  2  0  0  0
 11 12  1  0  0  0
 12 13  2  0  0  0
 13 14  1  0  0  0
 14 15  2  0  0  0
 15 16  1  0  0  0
 33 34  1  0  0  0
 34 35  2  0  0  0
 35 30  1  0  0  0
 16  1  1  0  0  0
 27 23  1  0  0  0
 16  6  2  0  0  0
 14  9  1  0  0  0
  3 17  1  0  0  0
 20 21  1  0  0  0
M  END
> <minimizedAffinity>
6.21348

> <CNNscore>
0.4277454913

> <CNNaffinity>
6.9131712914

> <CNN_VS>
2.9570777416

> <CNNaffinity_variance>
0.9670181274

$$$$
[H]/C(=C(\[H])C([H])([H])C([H])([H])N([H])C(=O)/C([H])=C([H])/C([H])=C([H])/C([H])=C(\[H])c1sc([H])c([H])c1[H])C([H])([H])OC(=O)C([H])([H])C([H])(C([H])([H])[H])C([H])([H])[H]


 27 27  0  0  0  0  0  0  0  0999 V2000
    8.2666   21.0854   -0.5581 N   0  0  0  0  0  0  0  0  0  0  0  0
    9.6613   20.9510   -0.4294 C   0  0  0  0  0  0  0  0  0  0  0  0
   10.1195   19.9364    0.1527 O   0  0  0  0  0  0  0  0  0  0  0  0
    7.8777   21.9284   -1.0443 H   0  0  0  0  0  0  0  0  0  0  0  0
   10.5681   21.9455   -0.9479 C   0  0  0  0  0  0  0  0  0  0  0  0
   10.4763   23.2249   -0.7251 C   0  0  0  0  0  0  0  0  0  0  0  0
   11.4317   24.1893   -1.2815 C   0  0  0  0  0  0  0  0  0  0  0  0
   12.7210   24.0092   -1.2707 C   0  0  0  0  0  0  0  0  0  0  0  0
   13.6604   24.9965   -1.8380 C   0  0  0  0  0  0  0  0  0  0  0  0
   13.9910   24.9594   -3.1083 C   0  0  0  0  0  0  0  0  0  0  0  0
   14.9357   25.9568   -3.6669 C   0  0  0  0  0  0  0  0  0  0  0  0
   16.0381   26.4962   -3.0610 C   0  0  0  0  0  0  0  0  0  0  0  0
   16.7528   27.3897   -3.7639 C   0  0  0  0  0  0  0  0  0  0  0  0
   16.3164   27.6843   -5.0279 C   0  0  0  0  0  0  0  0  0  0  0  0
   14.9304   26.7111   -5.1951 S   0  0  0  0  0  0  0  0  0  0  0  0
    7.3210   20.1195   -0.0545 C   0  0  0  0  0  0  0  0  0  0  0  0
    6.6980   19.2632   -1.1410 C   0  0  0  0  0  0  0  0  0  0  0  0
    6.9962   16.8481   -0.7039 C   0  0  0  0  0  0  0  0  0  0  0  0
    7.3857   17.9645   -1.2607 C   0  0  0  0  0  0  0  0  0  0  0  0
    5.7941   16.7633    0.1283 C   0  0  0  0  0  0  0  0  0  0  0  0
    5.9575   15.7585    1.1042 O   0  0  0  0  0  0  0  0  0  0  0  0
    5.2269   15.7882    2.2671 C   0  0  0  0  0  0  0  0  0  0  0  0
    3.9950   15.5904    2.2327 O   0  0  0  0  0  0  0  0  0  0  0  0
    5.8552   16.0525    3.5965 C   0  0  0  0  0  0  0  0  0  0  0  0
    5.8042   17.5982    5.5634 C   0  0  0  0  0  0  0  0  0  0  0  0
    5.2619   17.3067    4.2006 C   0  0  0  0  0  0  0  0  0  0  0  0
    5.4509   18.5046    3.3178 C   0  0  0  0  0  0  0  0  0  0  0  0
 25 26  1  0  0  0
 26 27  1  0  0  0
 26 24  1  0  0  0
 24 22  1  0  0  0
 22 23  2  0  0  0
 22 21  1  0  0  0
 21 20  1  0  0  0
 20 18  1  0  0  0
 18 19  2  0  0  0
 19 17  1  0  0  0
 17 16  1  0  0  0
 16  1  1  0  0  0
  1  2  1  0  0  0
  2  3  2  0  0  0
  2  5  1  0  0  0
  5  6  2  0  0  0
  6  7  1  0  0  0
  7  8  2  0  0  0
  8  9  1  0  0  0
  9 10  2  0  0  0
 10 11  1  0  0  0
 11 12  2  0  0  0
 12 13  1  0  0  0
 13 14  2  0  0  0
 14 15  1  0  0  0
 15 11  1  0  0  0
  1  4  1  0  0  0
M  END
> <minimizedAffinity>
-6.23415

> <CNNscore>
0.4835301936

> <CNNaffinity>
5.9426374435

> <CNN_VS>
2.8734445572

> <CNNaffinity_variance>
0.3765060902

$$$$
[H]/C(=C(\[H])C([H])([H])C([H])([H])N([H])C(=O)/C([H])=C([H])/C([H])=C([H])/C([H])=C(\[H])c1sc([H])c([H])c1[H])C([H])([H])OC(=O)C([H])([H])C([H])(C([H])([H])[H])C([H])([H])[H]


 27 27  0  0  0  0  0  0  0  0999 V2000
   11.9820   20.5302    3.4815 N   0  0  0  0  0  0  0  0  0  0  0  0
   11.8876   20.4972    2.0780 C   0  0  0  0  0  0  0  0  0  0  0  0
   11.1773   19.6111    1.5409 O   0  0  0  0  0  0  0  0  0  0  0  0
   12.5713   21.2679    3.9362 H   0  0  0  0  0  0  0  0  0  0  0  0
   12.5832   21.4517    1.2504 C   0  0  0  0  0  0  0  0  0  0  0  0
   13.5192   21.1535    0.3960 C   0  0  0  0  0  0  0  0  0  0  0  0
   14.1913   22.1713   -0.4194 C   0  0  0  0  0  0  0  0  0  0  0  0
   13.9772   22.3250   -1.6943 C   0  0  0  0  0  0  0  0  0  0  0  0
   14.6675   23.3581   -2.4913 C   0  0  0  0  0  0  0  0  0  0  0  0
   14.4978   24.6342   -2.2322 C   0  0  0  0  0  0  0  0  0  0  0  0
   15.1968   25.6629   -3.0398 C   0  0  0  0  0  0  0  0  0  0  0  0
   16.3905   26.2739   -2.7652 C   0  0  0  0  0  0  0  0  0  0  0  0
   16.8351   27.1833   -3.6473 C   0  0  0  0  0  0  0  0  0  0  0  0
   16.0549   27.4212   -4.7472 C   0  0  0  0  0  0  0  0  0  0  0  0
   14.7329   26.3746   -4.5172 S   0  0  0  0  0  0  0  0  0  0  0  0
   11.3074   19.5967    4.3499 C   0  0  0  0  0  0  0  0  0  0  0  0
    9.9934   20.1232    4.8958 C   0  0  0  0  0  0  0  0  0  0  0  0
    9.7907   22.4650    5.6623 C   0  0  0  0  0  0  0  0  0  0  0  0
   10.2113   21.2395    5.8340 C   0  0  0  0  0  0  0  0  0  0  0  0
    9.0325   22.8764    4.4788 C   0  0  0  0  0  0  0  0  0  0  0  0
    9.9032   23.4468    3.5272 O   0  0  0  0  0  0  0  0  0  0  0  0
    9.6147   23.3774    2.1859 C   0  0  0  0  0  0  0  0  0  0  0  0
    9.1153   22.3370    1.7104 O   0  0  0  0  0  0  0  0  0  0  0  0
    9.8780   24.5152    1.2542 C   0  0  0  0  0  0  0  0  0  0  0  0
   10.6838   24.0226   -1.0628 C   0  0  0  0  0  0  0  0  0  0  0  0
   11.0647   24.1889    0.3737 C   0  0  0  0  0  0  0  0  0  0  0  0
   12.1544   25.2133    0.4893 C   0  0  0  0  0  0  0  0  0  0  0  0
 25 26  1  0  0  0
 26 27  1  0  0  0
 26 24  1  0  0  0
 24 22  1  0  0  0
 22 23  2  0  0  0
 22 21  1  0  0  0
 21 20  1  0  0  0
 20 18  1  0  0  0
 18 19  2  0  0  0
 19 17  1  0  0  0
 17 16  1  0  0  0
 16  1  1  0  0  0
  1  2  1  0  0  0
  2  3  2  0  0  0
  2  5  1  0  0  0
  5  6  2  0  0  0
  6  7  1  0  0  0
  7  8  2  0  0  0
  8  9  1  0  0  0
  9 10  2  0  0  0
 10 11  1  0  0  0
 11 12  2  0  0  0
 12 13  1  0  0  0
 13 14  2  0  0  0
 14 15  1  0  0  0
 15 11  1  0  0  0
  1  4  1  0  0  0
M  END
> <minimizedAffinity>
-6.71697

> <CNNscore>
0.4702235162

> <CNNaffinity>
6.5261535645

> <CNN_VS>
3.0687508583

> <CNNaffinity_variance>
0.2960148454

$$$$
[H]/C(=C(\[H])C([H])([H])C([H])([H])N([H])C(=O)/C([H])=C([H])/C([H])=C([H])/C([H])=C(\[H])c1sc([H])c([H])c1[H])C([H])([H])OC(=O)C([H])([H])C([H])(C([H])([H])[H])C([H])([H])[H]


 27 27  0  0  0  0  0  0  0  0999 V2000
    9.8221   23.5919    2.9026 N   0  0  0  0  0  0  0  0  0  0  0  0
    9.6579   23.3065    1.5346 C   0  0  0  0  0  0  0  0  0  0  0  0
    8.8150   22.4389    1.1952 O   0  0  0  0  0  0  0  0  0  0  0  0
   10.5221   24.3158    3.1925 H   0  0  0  0  0  0  0  0  0  0  0  0
   10.4305   23.9837    0.5225 C   0  0  0  0  0  0  0  0  0  0  0  0
   11.5804   24.5597    0.7250 C   0  0  0  0  0  0  0  0  0  0  0  0
   12.3203   25.2341   -0.3474 C   0  0  0  0  0  0  0  0  0  0  0  0
   11.9837   25.1668   -1.6032 C   0  0  0  0  0  0  0  0  0  0  0  0
   12.7464   25.8559   -2.6626 C   0  0  0  0  0  0  0  0  0  0  0  0
   13.9945   25.5331   -2.9128 C   0  0  0  0  0  0  0  0  0  0  0  0
   14.7506   26.2324   -3.9798 C   0  0  0  0  0  0  0  0  0  0  0  0
   14.4718   26.2646   -5.3194 C   0  0  0  0  0  0  0  0  0  0  0  0
   15.3024   26.9684   -6.1054 C   0  0  0  0  0  0  0  0  0  0  0  0
   16.3580   27.5942   -5.4979 C   0  0  0  0  0  0  0  0  0  0  0  0
   16.1598   27.1832   -3.8585 S   0  0  0  0  0  0  0  0  0  0  0  0
    9.0748   22.9399    3.9501 C   0  0  0  0  0  0  0  0  0  0  0  0
    9.9507   22.2016    4.9449 C   0  0  0  0  0  0  0  0  0  0  0  0
   10.1612   19.7422    4.8045 C   0  0  0  0  0  0  0  0  0  0  0  0
    9.4912   20.8139    5.1374 C   0  0  0  0  0  0  0  0  0  0  0  0
   11.4854   19.8057    4.1822 C   0  0  0  0  0  0  0  0  0  0  0  0
   11.3523   19.8773    2.7801 O   0  0  0  0  0  0  0  0  0  0  0  0
   12.0619   20.8052    2.0572 C   0  0  0  0  0  0  0  0  0  0  0  0
   12.4922   21.8338    2.6183 O   0  0  0  0  0  0  0  0  0  0  0  0
   12.3460   20.6330    0.6006 C   0  0  0  0  0  0  0  0  0  0  0  0
   14.8452   20.6577    0.4822 C   0  0  0  0  0  0  0  0  0  0  0  0
   13.5837   21.4190    0.2262 C   0  0  0  0  0  0  0  0  0  0  0  0
   13.5538   21.8761   -1.2022 C   0  0  0  0  0  0  0  0  0  0  0  0
 25 26  1  0  0  0
 26 27  1  0  0  0
 26 24  1  0  0  0
 24 22  1  0  0  0
 22 23  2  0  0  0
 22 21  1  0  0  0
 21 20  1  0  0  0
 20 18  1  0  0  0
 18 19  2  0  0  0
 19 17  1  0  0  0
 17 16  1  0  0  0
 16  1  1  0  0  0
  1  2  1  0  0  0
  2  3  2  0  0  0
  2  5  1  0  0  0
  5  6  2  0  0  0
  6  7  1  0  0  0
  7  8  2  0  0  0
  8  9  1  0  0  0
  9 10  2  0  0  0
 10 11  1  0  0  0
 11 12  2  0  0  0
 12 13  1  0  0  0
 13 14  2  0  0  0
 14 15  1  0  0  0
 15 11  1  0  0  0
  1  4  1  0  0  0
M  END
> <minimizedAffinity>
-7.25344

> <CNNscore>
0.3836755455

> <CNNaffinity>
6.1976685524

> <CNN_VS>
2.3778939247

> <CNNaffinity_variance>
0.5421530008

$$$$
[H]/C(=C(\[H])C([H])([H])C([H])([H])N([H])C(=O)/C([H])=C([H])/C([H])=C([H])/C([H])=C(\[H])c1sc([H])c([H])c1[H])C([H])([H])OC(=O)C([H])([H])C([H])(C([H])([H])[H])C([H])([H])[H]


 27 27  0  0  0  0  0  0  0  0999 V2000
   12.1945   20.8539    2.7536 N   0  0  0  0  0  0  0  0  0  0  0  0
   11.7137   20.9666    1.4360 C   0  0  0  0  0  0  0  0  0  0  0  0
   10.8684   20.1318    1.0278 O   0  0  0  0  0  0  0  0  0  0  0  0
   12.8984   21.5481    3.1012 H   0  0  0  0  0  0  0  0  0  0  0  0
   12.1673   22.0120    0.5520 C   0  0  0  0  0  0  0  0  0  0  0  0
   11.4248   22.6134   -0.3322 C   0  0  0  0  0  0  0  0  0  0  0  0
   11.9448   23.6722   -1.2046 C   0  0  0  0  0  0  0  0  0  0  0  0
   13.2049   23.7990   -1.5058 C   0  0  0  0  0  0  0  0  0  0  0  0
   13.7013   24.8743   -2.3868 C   0  0  0  0  0  0  0  0  0  0  0  0
   14.9074   24.8193   -2.9033 C   0  0  0  0  0  0  0  0  0  0  0  0
   15.3950   25.9057   -3.7872 C   0  0  0  0  0  0  0  0  0  0  0  0
   16.2894   26.8955   -3.4812 C   0  0  0  0  0  0  0  0  0  0  0  0
   16.5859   27.7792   -4.4479 C   0  0  0  0  0  0  0  0  0  0  0  0
   15.9670   27.6133   -5.6580 C   0  0  0  0  0  0  0  0  0  0  0  0
   14.9963   26.2376   -5.4105 S   0  0  0  0  0  0  0  0  0  0  0  0
   11.7727   19.8255    3.6728 C   0  0  0  0  0  0  0  0  0  0  0  0
   11.0924   20.3697    4.9149 C   0  0  0  0  0  0  0  0  0  0  0  0
    8.9435   21.5543    4.6122 C   0  0  0  0  0  0  0  0  0  0  0  0
    9.6312   20.4497    4.7346 C   0  0  0  0  0  0  0  0  0  0  0  0
    9.5708   22.8773    4.6429 C   0  0  0  0  0  0  0  0  0  0  0  0
    9.9605   23.2524    3.3405 O   0  0  0  0  0  0  0  0  0  0  0  0
    9.3828   24.3348    2.7226 C   0  0  0  0  0  0  0  0  0  0  0  0
    9.0391   24.2569    1.5252 O   0  0  0  0  0  0  0  0  0  0  0  0
    9.1437   25.6257    3.4356 C   0  0  0  0  0  0  0  0  0  0  0  0
    6.7382   25.3946    4.0844 C   0  0  0  0  0  0  0  0  0  0  0  0
    7.7221   26.0854    3.1950 C   0  0  0  0  0  0  0  0  0  0  0  0
    7.5749   27.5710    3.3411 C   0  0  0  0  0  0  0  0  0  0  0  0
 25 26  1  0  0  0
 26 27  1  0  0  0
 26 24  1  0  0  0
 24 22  1  0  0  0
 22 23  2  0  0  0
 22 21  1  0  0  0
 21 20  1  0  0  0
 20 18  1  0  0  0
 18 19  2  0  0  0
 19 17  1  0  0  0
 17 16  1  0  0  0
 16  1  1  0  0  0
  1  2  1  0  0  0
  2  3  2  0  0  0
  2  5  1  0  0  0
  5  6  2  0  0  0
  6  7  1  0  0  0
  7  8  2  0  0  0
  8  9  1  0  0  0
  9 10  2  0  0  0
 10 11  1  0  0  0
 11 12  2  0  0  0
 12 13  1  0  0  0
 13 14  2  0  0  0
 14 15  1  0  0  0
 15 11  1  0  0  0
  1  4  1  0  0  0
M  END
> <minimizedAffinity>
-6.73221

> <CNNscore>
0.3781840205

> <CNNaffinity>
6.3887801170

> <CNN_VS>
2.4161345959

> <CNNaffinity_variance>
0.0522977598

$$$$
[H]/C(=C(\[H])C([H])([H])C([H])([H])N([H])C(=O)/C([H])=C([H])/C([H])=C([H])/C([H])=C(\[H])c1sc([H])c([H])c1[H])C([H])([H])OC(=O)C([H])([H])C([H])(C([H])([H])[H])C([H])([H])[H]


 27 27  0  0  0  0  0  0  0  0999 V2000
   13.4417   22.5874   -1.9911 N   0  0  0  0  0  0  0  0  0  0  0  0
   12.8215   21.9154   -0.9218 C   0  0  0  0  0  0  0  0  0  0  0  0
   13.4229   21.8467    0.1790 O   0  0  0  0  0  0  0  0  0  0  0  0
   12.9447   22.6501   -2.9116 H   0  0  0  0  0  0  0  0  0  0  0  0
   11.5204   21.3091   -1.0621 C   0  0  0  0  0  0  0  0  0  0  0  0
   10.4643   21.6467   -0.3796 C   0  0  0  0  0  0  0  0  0  0  0  0
    9.1653   20.9913   -0.5678 C   0  0  0  0  0  0  0  0  0  0  0  0
    8.1431   21.1873    0.2141 C   0  0  0  0  0  0  0  0  0  0  0  0
    6.8465   20.5145    0.0015 C   0  0  0  0  0  0  0  0  0  0  0  0
    6.7751   19.3839   -0.6626 C   0  0  0  0  0  0  0  0  0  0  0  0
    5.4667   18.7172   -0.8698 C   0  0  0  0  0  0  0  0  0  0  0  0
    4.7869   17.9171    0.0083 C   0  0  0  0  0  0  0  0  0  0  0  0
    3.6084   17.4178   -0.3978 C   0  0  0  0  0  0  0  0  0  0  0  0
    3.1879   17.7528   -1.6572 C   0  0  0  0  0  0  0  0  0  0  0  0
    4.4429   18.7482   -2.2319 S   0  0  0  0  0  0  0  0  0  0  0  0
   14.7412   23.2067   -1.8995 C   0  0  0  0  0  0  0  0  0  0  0  0
   14.6798   24.7018   -1.6486 C   0  0  0  0  0  0  0  0  0  0  0  0
   12.8112   25.7382   -2.8923 C   0  0  0  0  0  0  0  0  0  0  0  0
   13.3062   25.2153   -1.8016 C   0  0  0  0  0  0  0  0  0  0  0  0
   13.5941   25.8765   -4.1222 C   0  0  0  0  0  0  0  0  0  0  0  0
   14.3033   27.0953   -4.1036 O   0  0  0  0  0  0  0  0  0  0  0  0
   15.4215   27.2652   -4.8833 C   0  0  0  0  0  0  0  0  0  0  0  0
   15.6955   26.4285   -5.7681 O   0  0  0  0  0  0  0  0  0  0  0  0
   16.3411   28.4304   -4.7147 C   0  0  0  0  0  0  0  0  0  0  0  0
   16.9580   26.9096   -2.8259 C   0  0  0  0  0  0  0  0  0  0  0  0
   17.2757   28.1781   -3.5515 C   0  0  0  0  0  0  0  0  0  0  0  0
   18.7152   28.1687   -3.9733 C   0  0  0  0  0  0  0  0  0  0  0  0
 25 26  1  0  0  0
 26 27  1  0  0  0
 26 24  1  0  0  0
 24 22  1  0  0  0
 22 23  2  0  0  0
 22 21  1  0  0  0
 21 20  1  0  0  0
 20 18  1  0  0  0
 18 19  2  0  0  0
 19 17  1  0  0  0
 17 16  1  0  0  0
 16  1  1  0  0  0
  1  2  1  0  0  0
  2  3  2  0  0  0
  2  5  1  0  0  0
  5  6  2  0  0  0
  6  7  1  0  0  0
  7  8  2  0  0  0
  8  9  1  0  0  0
  9 10  2  0  0  0
 10 11  1  0  0  0
 11 12  2  0  0  0
 12 13  1  0  0  0
 13 14  2  0  0  0
 14 15  1  0  0  0
 15 11  1  0  0  0
  1  4  1  0  0  0
M  END
> <minimizedAffinity>
-6.01328

> <CNNscore>
0.3780384660

> <CNNaffinity>
6.4849309921

> <CNN_VS>
2.4515533447

> <CNNaffinity_variance>
0.4709885716

$$$$
[H]/C(=C(\[H])C([H])([H])C([H])([H])N([H])C(=O)/C([H])=C([H])/C([H])=C([H])/C([H])=C(\[H])c1sc([H])c([H])c1[H])C([H])([H])OC(=O)C([H])([H])C([H])(C([H])([H])[H])C([H])([H])[H]


 27 27  0  0  0  0  0  0  0  0999 V2000
   11.5859   23.0534   -0.3618 N   0  0  0  0  0  0  0  0  0  0  0  0
   11.8357   22.7825    0.9962 C   0  0  0  0  0  0  0  0  0  0  0  0
   12.9228   22.2389    1.3139 O   0  0  0  0  0  0  0  0  0  0  0  0
   10.6819   23.5084   -0.6336 H   0  0  0  0  0  0  0  0  0  0  0  0
   10.8776   23.1133    2.0222 C   0  0  0  0  0  0  0  0  0  0  0  0
   10.2611   24.2554    2.1247 C   0  0  0  0  0  0  0  0  0  0  0  0
    9.2948   24.5329    3.1931 C   0  0  0  0  0  0  0  0  0  0  0  0
    8.5327   25.5881    3.2146 C   0  0  0  0  0  0  0  0  0  0  0  0
    7.5682   25.8428    4.3027 C   0  0  0  0  0  0  0  0  0  0  0  0
    6.3392   26.2226    4.0384 C   0  0  0  0  0  0  0  0  0  0  0  0
    5.3791   26.4754    5.1400 C   0  0  0  0  0  0  0  0  0  0  0  0
    5.1820   27.6427    5.8270 C   0  0  0  0  0  0  0  0  0  0  0  0
    4.2499   27.6395    6.7936 C   0  0  0  0  0  0  0  0  0  0  0  0
    3.5759   26.4671    7.0086 C   0  0  0  0  0  0  0  0  0  0  0  0
    4.2601   25.4119    5.8621 S   0  0  0  0  0  0  0  0  0  0  0  0
   12.5114   22.7393   -1.4226 C   0  0  0  0  0  0  0  0  0  0  0  0
   13.1679   23.9639   -2.0318 C   0  0  0  0  0  0  0  0  0  0  0  0
   15.5373   24.0654   -2.7307 C   0  0  0  0  0  0  0  0  0  0  0  0
   14.6242   23.9625   -1.8013 C   0  0  0  0  0  0  0  0  0  0  0  0
   15.2016   24.1969   -4.1501 C   0  0  0  0  0  0  0  0  0  0  0  0
   14.3056   25.2706   -4.3325 O   0  0  0  0  0  0  0  0  0  0  0  0
   14.7686   26.5616   -4.4103 C   0  0  0  0  0  0  0  0  0  0  0  0
   13.9942   27.5145   -4.1861 O   0  0  0  0  0  0  0  0  0  0  0  0
   16.1861   26.8803   -4.7584 C   0  0  0  0  0  0  0  0  0  0  0  0
   17.0297   26.8083   -2.4040 C   0  0  0  0  0  0  0  0  0  0  0  0
   16.8292   27.6487   -3.6245 C   0  0  0  0  0  0  0  0  0  0  0  0
   18.1346   28.2677   -4.0284 C   0  0  0  0  0  0  0  0  0  0  0  0
 25 26  1  0  0  0
 26 27  1  0  0  0
 26 24  1  0  0  0
 24 22  1  0  0  0
 22 23  2  0  0  0
 22 21  1  0  0  0
 21 20  1  0  0  0
 20 18  1  0  0  0
 18 19  2  0  0  0
 19 17  1  0  0  0
 17 16  1  0  0  0
 16  1  1  0  0  0
  1  2  1  0  0  0
  2  3  2  0  0  0
  2  5  1  0  0  0
  5  6  2  0  0  0
  6  7  1  0  0  0
  7  8  2  0  0  0
  8  9  1  0  0  0
  9 10  2  0  0  0
 10 11  1  0  0  0
 11 12  2  0  0  0
 12 13  1  0  0  0
 13 14  2  0  0  0
 14 15  1  0  0  0
 15 11  1  0  0  0
  1  4  1  0  0  0
M  END
> <minimizedAffinity>
-6.18446

> <CNNscore>
0.3537186384

> <CNNaffinity>
6.1926450729

> <CNN_VS>
2.1904540062

> <CNNaffinity_variance>
0.2668201923

$$$$
[H]/C(=C(\[H])C([H])([H])C([H])([H])N([H])C(=O)/C([H])=C([H])/C([H])=C([H])/C([H])=C(\[H])c1sc([H])c([H])c1[H])C([H])([H])OC(=O)C([H])([H])C([H])(C([H])([H])[H])C([H])([H])[H]


 27 27  0  0  0  0  0  0  0  0999 V2000
   13.4887   22.3817   -1.8855 N   0  0  0  0  0  0  0  0  0  0  0  0
   12.9920   21.4165   -0.9904 C   0  0  0  0  0  0  0  0  0  0  0  0
   13.7097   21.0653   -0.0210 O   0  0  0  0  0  0  0  0  0  0  0  0
   12.8945   22.6807   -2.6953 H   0  0  0  0  0  0  0  0  0  0  0  0
   11.6868   20.8272   -1.1612 C   0  0  0  0  0  0  0  0  0  0  0  0
   10.6121   21.2025   -0.5294 C   0  0  0  0  0  0  0  0  0  0  0  0
    9.3098   20.5626   -0.7466 C   0  0  0  0  0  0  0  0  0  0  0  0
    8.2416   20.8608   -0.0649 C   0  0  0  0  0  0  0  0  0  0  0  0
    6.9430   20.2010   -0.3044 C   0  0  0  0  0  0  0  0  0  0  0  0
    6.8446   19.1887   -1.1350 C   0  0  0  0  0  0  0  0  0  0  0  0
    5.5346   18.5338   -1.3673 C   0  0  0  0  0  0  0  0  0  0  0  0
    5.0075   17.4581   -0.7051 C   0  0  0  0  0  0  0  0  0  0  0  0
    3.7932   17.0322   -1.0888 C   0  0  0  0  0  0  0  0  0  0  0  0
    3.1862   17.7119   -2.1107 C   0  0  0  0  0  0  0  0  0  0  0  0
    4.3222   18.9170   -2.5022 S   0  0  0  0  0  0  0  0  0  0  0  0
   14.7871   22.9971   -1.7574 C   0  0  0  0  0  0  0  0  0  0  0  0
   14.7391   24.3818   -1.1391 C   0  0  0  0  0  0  0  0  0  0  0  0
   12.4056   25.1201   -0.7895 C   0  0  0  0  0  0  0  0  0  0  0  0
   13.5087   24.5743   -0.3497 C   0  0  0  0  0  0  0  0  0  0  0  0
   12.2676   25.6173   -2.1601 C   0  0  0  0  0  0  0  0  0  0  0  0
   13.4992   26.1401   -2.6057 O   0  0  0  0  0  0  0  0  0  0  0  0
   13.5823   26.8090   -3.8027 C   0  0  0  0  0  0  0  0  0  0  0  0
   12.5619   27.3337   -4.2939 O   0  0  0  0  0  0  0  0  0  0  0  0
   14.8659   26.9376   -4.5563 C   0  0  0  0  0  0  0  0  0  0  0  0
   15.6837   26.2589   -6.8215 C   0  0  0  0  0  0  0  0  0  0  0  0
   14.9693   25.8283   -5.5803 C   0  0  0  0  0  0  0  0  0  0  0  0
   15.6274   24.6014   -5.0218 C   0  0  0  0  0  0  0  0  0  0  0  0
 25 26  1  0  0  0
 26 27  1  0  0  0
 26 24  1  0  0  0
 24 22  1  0  0  0
 22 23  2  0  0  0
 22 21  1  0  0  0
 21 20  1  0  0  0
 20 18  1  0  0  0
 18 19  2  0  0  0
 19 17  1  0  0  0
 17 16  1  0  0  0
 16  1  1  0  0  0
  1  2  1  0  0  0
  2  3  2  0  0  0
  2  5  1  0  0  0
  5  6  2  0  0  0
  6  7  1  0  0  0
  7  8  2  0  0  0
  8  9  1  0  0  0
  9 10  2  0  0  0
 10 11  1  0  0  0
 11 12  2  0  0  0
 12 13  1  0  0  0
 13 14  2  0  0  0
 14 15  1  0  0  0
 15 11  1  0  0  0
  1  4  1  0  0  0
M  END
> <minimizedAffinity>
-6.59972

> <CNNscore>
0.3407149911

> <CNNaffinity>
6.4743375778

> <CNN_VS>
2.2059037685

> <CNNaffinity_variance>
0.2370982617

$$$$
[H]/C(=C(\[H])C([H])([H])C([H])([H])N([H])C(=O)/C([H])=C([H])/C([H])=C([H])/C([H])=C(\[H])c1sc([H])c([H])c1[H])C([H])([H])OC(=O)C([H])([H])C([H])(C([H])([H])[H])C([H])([H])[H]


 27 27  0  0  0  0  0  0  0  0999 V2000
   10.1521   22.3387    1.7965 N   0  0  0  0  0  0  0  0  0  0  0  0
   10.0698   23.7379    1.6727 C   0  0  0  0  0  0  0  0  0  0  0  0
    9.3817   24.3788    2.5057 O   0  0  0  0  0  0  0  0  0  0  0  0
   10.7260   21.7981    1.1062 H   0  0  0  0  0  0  0  0  0  0  0  0
   10.7536   24.4455    0.6183 C   0  0  0  0  0  0  0  0  0  0  0  0
   12.0451   24.5848    0.5311 C   0  0  0  0  0  0  0  0  0  0  0  0
   12.6833   25.3175   -0.5682 C   0  0  0  0  0  0  0  0  0  0  0  0
   12.4956   25.0322   -1.8245 C   0  0  0  0  0  0  0  0  0  0  0  0
   13.1507   25.7864   -2.9112 C   0  0  0  0  0  0  0  0  0  0  0  0
   14.3308   25.4290   -3.3630 C   0  0  0  0  0  0  0  0  0  0  0  0
   14.9790   26.1944   -4.4553 C   0  0  0  0  0  0  0  0  0  0  0  0
   15.5477   27.4373   -4.3831 C   0  0  0  0  0  0  0  0  0  0  0  0
   16.0799   27.9383   -5.5095 C   0  0  0  0  0  0  0  0  0  0  0  0
   16.0078   27.1613   -6.6347 C   0  0  0  0  0  0  0  0  0  0  0  0
   15.2041   25.7641   -6.0889 S   0  0  0  0  0  0  0  0  0  0  0  0
    9.4851   21.5876    2.8317 C   0  0  0  0  0  0  0  0  0  0  0  0
   10.1998   21.6388    4.1690 C   0  0  0  0  0  0  0  0  0  0  0  0
    8.6628   22.2714    5.9993 C   0  0  0  0  0  0  0  0  0  0  0  0
    9.5469   22.5872    5.0900 C   0  0  0  0  0  0  0  0  0  0  0  0
    8.2087   20.8949    6.2084 C   0  0  0  0  0  0  0  0  0  0  0  0
    6.8218   20.8821    6.4639 O   0  0  0  0  0  0  0  0  0  0  0  0
    5.9238   20.7130    5.4382 C   0  0  0  0  0  0  0  0  0  0  0  0
    5.3105   21.6988    4.9799 O   0  0  0  0  0  0  0  0  0  0  0  0
    5.6442   19.3745    4.8363 C   0  0  0  0  0  0  0  0  0  0  0  0
    4.7472   18.8820    7.1196 C   0  0  0  0  0  0  0  0  0  0  0  0
    4.5862   18.6609    5.6495 C   0  0  0  0  0  0  0  0  0  0  0  0
    3.1971   19.0445    5.2328 C   0  0  0  0  0  0  0  0  0  0  0  0
 25 26  1  0  0  0
 26 27  1  0  0  0
 26 24  1  0  0  0
 24 22  1  0  0  0
 22 23  2  0  0  0
 22 21  1  0  0  0
 21 20  1  0  0  0
 20 18  1  0  0  0
 18 19  2  0  0  0
 19 17  1  0  0  0
 17 16  1  0  0  0
 16  1  1  0  0  0
  1  2  1  0  0  0
  2  3  2  0  0  0
  2  5  1  0  0  0
  5  6  2  0  0  0
  6  7  1  0  0  0
  7  8  2  0  0  0
  8  9  1  0  0  0
  9 10  2  0  0  0
 10 11  1  0  0  0
 11 12  2  0  0  0
 12 13  1  0  0  0
 13 14  2  0  0  0
 14 15  1  0  0  0
 15 11  1  0  0  0
  1  4  1  0  0  0
M  END
> <minimizedAffinity>
-5.54944

> <CNNscore>
0.3272384405

> <CNNaffinity>
5.7486910820

> <CNN_VS>
1.8811926842

> <CNNaffinity_variance>
0.4447244108

$$$$
[H]/C(=C(\[H])C([H])([H])C([H])([H])N([H])C(=O)/C([H])=C([H])/C([H])=C([H])/C([H])=C(\[H])c1sc([H])c([H])c1[H])C([H])([H])OC(=O)C([H])([H])C([H])(C([H])([H])[H])C([H])([H])[H]


 27 27  0  0  0  0  0  0  0  0999 V2000
    8.4286   21.6630    2.9038 N   0  0  0  0  0  0  0  0  0  0  0  0
    8.1407   22.8972    2.2926 C   0  0  0  0  0  0  0  0  0  0  0  0
    7.2942   23.6545    2.8294 O   0  0  0  0  0  0  0  0  0  0  0  0
    9.1351   21.0273    2.4624 H   0  0  0  0  0  0  0  0  0  0  0  0
    8.7920   23.3076    1.0730 C   0  0  0  0  0  0  0  0  0  0  0  0
   10.0214   23.7283    0.9908 C   0  0  0  0  0  0  0  0  0  0  0  0
   10.6294   24.1326   -0.2817 C   0  0  0  0  0  0  0  0  0  0  0  0
   11.7045   24.8621   -0.3631 C   0  0  0  0  0  0  0  0  0  0  0  0
   12.2956   25.2546   -1.6575 C   0  0  0  0  0  0  0  0  0  0  0  0
   13.4991   24.8543   -1.9977 C   0  0  0  0  0  0  0  0  0  0  0  0
   14.0823   25.2550   -3.3009 C   0  0  0  0  0  0  0  0  0  0  0  0
   13.7367   26.3272   -4.0783 C   0  0  0  0  0  0  0  0  0  0  0  0
   14.4066   26.4957   -5.2297 C   0  0  0  0  0  0  0  0  0  0  0  0
   15.3794   25.5789   -5.5271 C   0  0  0  0  0  0  0  0  0  0  0  0
   15.3288   24.5167   -4.1986 S   0  0  0  0  0  0  0  0  0  0  0  0
    7.8020   21.2088    4.1211 C   0  0  0  0  0  0  0  0  0  0  0  0
    8.7811   20.6188    5.1188 C   0  0  0  0  0  0  0  0  0  0  0  0
   11.2079   20.9515    4.7834 C   0  0  0  0  0  0  0  0  0  0  0  0
   10.0361   21.3915    5.1597 C   0  0  0  0  0  0  0  0  0  0  0  0
   11.4083   19.5971    4.2637 C   0  0  0  0  0  0  0  0  0  0  0  0
   12.1746   19.6470    3.0808 O   0  0  0  0  0  0  0  0  0  0  0  0
   11.7593   20.4011    2.0104 C   0  0  0  0  0  0  0  0  0  0  0  0
   10.6167   20.2326    1.5370 O   0  0  0  0  0  0  0  0  0  0  0  0
   12.6330   21.4337    1.3761 C   0  0  0  0  0  0  0  0  0  0  0  0
   13.0576   21.2891   -1.0854 C   0  0  0  0  0  0  0  0  0  0  0  0
   13.4515   20.8006    0.2719 C   0  0  0  0  0  0  0  0  0  0  0  0
   14.9244   21.0035    0.4712 C   0  0  0  0  0  0  0  0  0  0  0  0
 25 26  1  0  0  0
 26 27  1  0  0  0
 26 24  1  0  0  0
 24 22  1  0  0  0
 22 23  2  0  0  0
 22 21  1  0  0  0
 21 20  1  0  0  0
 20 18  1  0  0  0
 18 19  2  0  0  0
 19 17  1  0  0  0
 17 16  1  0  0  0
 16  1  1  0  0  0
  1  2  1  0  0  0
  2  3  2  0  0  0
  2  5  1  0  0  0
  5  6  2  0  0  0
  6  7  1  0  0  0
  7  8  2  0  0  0
  8  9  1  0  0  0
  9 10  2  0  0  0
 10 11  1  0  0  0
 11 12  2  0  0  0
 12 13  1  0  0  0
 13 14  2  0  0  0
 14 15  1  0  0  0
 15 11  1  0  0  0
  1  4  1  0  0  0
M  END
> <minimizedAffinity>
-7.14084

> <CNNscore>
0.3123090565

> <CNNaffinity>
6.0155782700

> <CNN_VS>
1.8787195683

> <CNNaffinity_variance>
0.5679684877

$$$$
[H]Oc1nc(N([H])c2c([H])c(OC([H])([H])[H])c([H])c([H])c2OC([H])([H])[H])c([H])c2c([H])c([H])c([H])c([H])c12


 24 26  0  0  0  0  0  0  0  0999 V2000
   15.0029   23.2686   -2.1165 N   0  0  0  0  0  0  0  0  0  0  0  0
   16.0528   23.0132   -1.9893 H   0  0  0  0  0  0  0  0  0  0  0  0
   14.1232   22.5160   -1.3431 C   0  0  0  0  0  0  0  0  0  0  0  0
   12.8224   22.3052   -1.8002 C   0  0  0  0  0  0  0  0  0  0  0  0
   11.9120   21.5645   -1.0674 C   0  0  0  0  0  0  0  0  0  0  0  0
   10.6225   21.3505   -1.5116 C   0  0  0  0  0  0  0  0  0  0  0  0
    9.7548   20.6069   -0.7461 C   0  0  0  0  0  0  0  0  0  0  0  0
   10.1497   20.0785    0.4438 C   0  0  0  0  0  0  0  0  0  0  0  0
   11.4306   20.2887    0.8894 C   0  0  0  0  0  0  0  0  0  0  0  0
   12.3012   21.0277    0.1340 C   0  0  0  0  0  0  0  0  0  0  0  0
   13.5904   21.2450    0.5723 C   0  0  0  0  0  0  0  0  0  0  0  0
   13.9901   20.7062    1.7839 O   0  0  0  0  0  0  0  0  0  0  0  0
   14.4188   21.9701   -0.1852 N   0  0  0  0  0  0  0  0  0  0  0  0
   14.4773   19.8234    1.7490 H   0  0  0  0  0  0  0  0  0  0  0  0
   15.0444   25.3743   -5.2193 C   0  0  0  0  0  0  0  0  0  0  0  0
   14.2524   26.4038   -4.7824 C   0  0  0  0  0  0  0  0  0  0  0  0
   13.7155   26.4194   -3.5131 C   0  0  0  0  0  0  0  0  0  0  0  0
   13.9723   25.3738   -2.6398 C   0  0  0  0  0  0  0  0  0  0  0  0
   14.7721   24.3003   -3.0326 C   0  0  0  0  0  0  0  0  0  0  0  0
   15.2862   24.3324   -4.3151 C   0  0  0  0  0  0  0  0  0  0  0  0
   15.8629   26.5159   -7.2375 C   0  0  0  0  0  0  0  0  0  0  0  0
   15.5813   25.3683   -6.5022 O   0  0  0  0  0  0  0  0  0  0  0  0
   13.4488   25.3599   -1.3607 O   0  0  0  0  0  0  0  0  0  0  0  0
   12.0366   25.3945   -1.1835 C   0  0  0  0  0  0  0  0  0  0  0  0
 21 22  1  0  0  0
 22 15  1  0  0  0
 15 16  2  0  0  0
 16 17  1  0  0  0
 17 18  2  0  0  0
 18 23  1  0  0  0
 23 24  1  0  0  0
 18 19  1  0  0  0
 19  1  1  0  0  0
  1  3  1  0  0  0
  3  4  2  0  0  0
  4  5  1  0  0  0
  5  6  2  0  0  0
  6  7  1  0  0  0
  7  8  2  0  0  0
  8  9  1  0  0  0
  9 10  2  0  0  0
 10 11  1  0  0  0
 11 12  1  0  0  0
 11 13  2  0  0  0
 19 20  2  0  0  0
 20 15  1  0  0  0
 13  3  1  0  0  0
 10  5  1  0  0  0
  1  2  1  0  0  0
 12 14  1  0  0  0
M  END
> <minimizedAffinity>
-7.63474

> <CNNscore>
0.5671752691

> <CNNaffinity>
6.7150206566

> <CNN_VS>
3.8085937500

> <CNNaffinity_variance>
0.4309485555

$$$$
[H]Oc1nc(N([H])c2c([H])c(OC([H])([H])[H])c([H])c([H])c2OC([H])([H])[H])c([H])c2c([H])c([H])c([H])c([H])c12


 24 26  0  0  0  0  0  0  0  0999 V2000
   10.5271   24.3646    0.9302 N   0  0  0  0  0  0  0  0  0  0  0  0
    9.7058   24.9005    0.4590 H   0  0  0  0  0  0  0  0  0  0  0  0
   11.7363   24.4329    0.2437 C   0  0  0  0  0  0  0  0  0  0  0  0
   11.7846   25.0822   -0.9897 C   0  0  0  0  0  0  0  0  0  0  0  0
   12.9627   25.1760   -1.7094 C   0  0  0  0  0  0  0  0  0  0  0  0
   13.0203   25.8167   -2.9309 C   0  0  0  0  0  0  0  0  0  0  0  0
   14.2158   25.8830   -3.6077 C   0  0  0  0  0  0  0  0  0  0  0  0
   15.3438   25.3258   -3.0898 C   0  0  0  0  0  0  0  0  0  0  0  0
   15.2913   24.6879   -1.8759 C   0  0  0  0  0  0  0  0  0  0  0  0
   14.1054   24.6170   -1.1950 C   0  0  0  0  0  0  0  0  0  0  0  0
   14.0416   23.9785    0.0254 C   0  0  0  0  0  0  0  0  0  0  0  0
   15.1910   23.4120    0.5506 O   0  0  0  0  0  0  0  0  0  0  0  0
   12.8711   23.9242    0.6678 N   0  0  0  0  0  0  0  0  0  0  0  0
   15.7088   23.9686    1.2139 H   0  0  0  0  0  0  0  0  0  0  0  0
   10.0290   21.7561    3.5780 C   0  0  0  0  0  0  0  0  0  0  0  0
    9.4574   22.5448    4.5419 C   0  0  0  0  0  0  0  0  0  0  0  0
    9.2367   23.8906    4.3429 C   0  0  0  0  0  0  0  0  0  0  0  0
    9.5961   24.4809    3.1411 C   0  0  0  0  0  0  0  0  0  0  0  0
   10.1816   23.7247    2.1253 C   0  0  0  0  0  0  0  0  0  0  0  0
   10.3814   22.3801    2.3747 C   0  0  0  0  0  0  0  0  0  0  0  0
   11.4361   19.8646    4.2770 C   0  0  0  0  0  0  0  0  0  0  0  0
   10.2473   20.3989    3.7890 O   0  0  0  0  0  0  0  0  0  0  0  0
    9.3880   25.8278    2.9106 O   0  0  0  0  0  0  0  0  0  0  0  0
    8.7911   26.6262    3.9270 C   0  0  0  0  0  0  0  0  0  0  0  0
 21 22  1  0  0  0
 22 15  1  0  0  0
 15 16  2  0  0  0
 16 17  1  0  0  0
 17 18  2  0  0  0
 18 23  1  0  0  0
 23 24  1  0  0  0
 18 19  1  0  0  0
 19  1  1  0  0  0
  1  3  1  0  0  0
  3  4  2  0  0  0
  4  5  1  0  0  0
  5  6  2  0  0  0
  6  7  1  0  0  0
  7  8  2  0  0  0
  8  9  1  0  0  0
  9 10  2  0  0  0
 10 11  1  0  0  0
 11 12  1  0  0  0
 11 13  2  0  0  0
 19 20  2  0  0  0
 20 15  1  0  0  0
 13  3  1  0  0  0
 10  5  1  0  0  0
  1  2  1  0  0  0
 12 14  1  0  0  0
M  END
> <minimizedAffinity>
-8.37310

> <CNNscore>
0.5037714243

> <CNNaffinity>
6.0848450661

> <CNN_VS>
3.0653710365

> <CNNaffinity_variance>
0.1429990977

$$$$
[H]Oc1nc(N([H])c2c([H])c(OC([H])([H])[H])c([H])c([H])c2OC([H])([H])[H])c([H])c2c([H])c([H])c([H])c([H])c12


 24 26  0  0  0  0  0  0  0  0999 V2000
   14.5211   23.2419   -2.5401 N   0  0  0  0  0  0  0  0  0  0  0  0
   14.7551   22.3985   -3.1864 H   0  0  0  0  0  0  0  0  0  0  0  0
   13.7240   22.9301   -1.4421 C   0  0  0  0  0  0  0  0  0  0  0  0
   12.4645   23.5175   -1.3249 C   0  0  0  0  0  0  0  0  0  0  0  0
   11.6362   23.2391   -0.2520 C   0  0  0  0  0  0  0  0  0  0  0  0
   10.3880   23.8156   -0.1274 C   0  0  0  0  0  0  0  0  0  0  0  0
    9.6021   23.5064    0.9581 C   0  0  0  0  0  0  0  0  0  0  0  0
   10.0377   22.6394    1.9119 C   0  0  0  0  0  0  0  0  0  0  0  0
   11.2777   22.0640    1.7922 C   0  0  0  0  0  0  0  0  0  0  0  0
   12.0670   22.3659    0.7149 C   0  0  0  0  0  0  0  0  0  0  0  0
   13.3146   21.7934    0.5849 C   0  0  0  0  0  0  0  0  0  0  0  0
   13.7559   20.9112    1.5570 O   0  0  0  0  0  0  0  0  0  0  0  0
   14.0637   22.1062   -0.4767 N   0  0  0  0  0  0  0  0  0  0  0  0
   13.6230   19.9284    1.3716 H   0  0  0  0  0  0  0  0  0  0  0  0
   15.3176   26.3083   -4.5466 C   0  0  0  0  0  0  0  0  0  0  0  0
   16.2406   26.8730   -3.7057 C   0  0  0  0  0  0  0  0  0  0  0  0
   16.5994   26.2776   -2.5156 C   0  0  0  0  0  0  0  0  0  0  0  0
   16.0216   25.0742   -2.1415 C   0  0  0  0  0  0  0  0  0  0  0  0
   15.0763   24.4553   -2.9600 C   0  0  0  0  0  0  0  0  0  0  0  0
   14.7512   25.0928   -4.1423 C   0  0  0  0  0  0  0  0  0  0  0  0
   15.4448   26.5301   -6.9922 C   0  0  0  0  0  0  0  0  0  0  0  0
   14.9626   26.9173   -5.7454 O   0  0  0  0  0  0  0  0  0  0  0  0
   16.3601   24.4520   -0.9547 O   0  0  0  0  0  0  0  0  0  0  0  0
   15.9200   25.0121    0.2779 C   0  0  0  0  0  0  0  0  0  0  0  0
 21 22  1  0  0  0
 22 15  1  0  0  0
 15 16  2  0  0  0
 16 17  1  0  0  0
 17 18  2  0  0  0
 18 23  1  0  0  0
 23 24  1  0  0  0
 18 19  1  0  0  0
 19  1  1  0  0  0
  1  3  1  0  0  0
  3  4  2  0  0  0
  4  5  1  0  0  0
  5  6  2  0  0  0
  6  7  1  0  0  0
  7  8  2  0  0  0
  8  9  1  0  0  0
  9 10  2  0  0  0
 10 11  1  0  0  0
 11 12  1  0  0  0
 11 13  2  0  0  0
 19 20  2  0  0  0
 20 15  1  0  0  0
 13  3  1  0  0  0
 10  5  1  0  0  0
  1  2  1  0  0  0
 12 14  1  0  0  0
M  END
> <minimizedAffinity>
-7.90752

> <CNNscore>
0.4762801826

> <CNNaffinity>
6.6527848244

> <CNN_VS>
3.1685895920

> <CNNaffinity_variance>
0.0689995512

$$$$
[H]Oc1nc(N([H])c2c([H])c(OC([H])([H])[H])c([H])c([H])c2OC([H])([H])[H])c([H])c2c([H])c([H])c([H])c([H])c12


 24 26  0  0  0  0  0  0  0  0999 V2000
   12.7690   24.1039   -1.2298 N   0  0  0  0  0  0  0  0  0  0  0  0
   11.7673   24.3100   -0.8587 H   0  0  0  0  0  0  0  0  0  0  0  0
   13.1508   24.8676   -2.3295 C   0  0  0  0  0  0  0  0  0  0  0  0
   14.1595   24.3966   -3.1696 C   0  0  0  0  0  0  0  0  0  0  0  0
   14.5734   25.1194   -4.2746 C   0  0  0  0  0  0  0  0  0  0  0  0
   15.5709   24.6615   -5.1119 C   0  0  0  0  0  0  0  0  0  0  0  0
   15.9468   25.4174   -6.1978 C   0  0  0  0  0  0  0  0  0  0  0  0
   15.3488   26.6112   -6.4588 C   0  0  0  0  0  0  0  0  0  0  0  0
   14.3568   27.0704   -5.6292 C   0  0  0  0  0  0  0  0  0  0  0  0
   13.9761   26.3247   -4.5458 C   0  0  0  0  0  0  0  0  0  0  0  0
   12.9805   26.7767   -3.7059 C   0  0  0  0  0  0  0  0  0  0  0  0
   12.3732   27.9922   -3.9735 O   0  0  0  0  0  0  0  0  0  0  0  0
   12.6291   26.0284   -2.6559 N   0  0  0  0  0  0  0  0  0  0  0  0
   11.5045   27.9622   -4.4858 H   0  0  0  0  0  0  0  0  0  0  0  0
   15.3490   22.2923    0.8012 C   0  0  0  0  0  0  0  0  0  0  0  0
   14.7280   21.0738    0.8871 C   0  0  0  0  0  0  0  0  0  0  0  0
   13.5020   20.8402    0.3022 C   0  0  0  0  0  0  0  0  0  0  0  0
   12.8639   21.8535   -0.3964 C   0  0  0  0  0  0  0  0  0  0  0  0
   13.4511   23.1135   -0.5151 C   0  0  0  0  0  0  0  0  0  0  0  0
   14.6805   23.2962    0.0893 C   0  0  0  0  0  0  0  0  0  0  0  0
   17.3911   23.6217    1.1310 C   0  0  0  0  0  0  0  0  0  0  0  0
   16.5862   22.5175    1.3952 O   0  0  0  0  0  0  0  0  0  0  0  0
   11.6342   21.6510   -0.9942 O   0  0  0  0  0  0  0  0  0  0  0  0
   10.7976   20.5963   -0.5311 C   0  0  0  0  0  0  0  0  0  0  0  0
 21 22  1  0  0  0
 22 15  1  0  0  0
 15 16  2  0  0  0
 16 17  1  0  0  0
 17 18  2  0  0  0
 18 23  1  0  0  0
 23 24  1  0  0  0
 18 19  1  0  0  0
 19  1  1  0  0  0
  1  3  1  0  0  0
  3  4  2  0  0  0
  4  5  1  0  0  0
  5  6  2  0  0  0
  6  7  1  0  0  0
  7  8  2  0  0  0
  8  9  1  0  0  0
  9 10  2  0  0  0
 10 11  1  0  0  0
 11 12  1  0  0  0
 11 13  2  0  0  0
 19 20  2  0  0  0
 20 15  1  0  0  0
 13  3  1  0  0  0
 10  5  1  0  0  0
  1  2  1  0  0  0
 12 14  1  0  0  0
M  END
> <minimizedAffinity>
-6.04984

> <CNNscore>
0.4514296651

> <CNNaffinity>
6.4967231750

> <CNN_VS>
2.9328136444

> <CNNaffinity_variance>
0.1922900975

$$$$
[H]Oc1nc(N([H])c2c([H])c(OC([H])([H])[H])c([H])c([H])c2OC([H])([H])[H])c([H])c2c([H])c([H])c([H])c([H])c12


 24 26  0  0  0  0  0  0  0  0999 V2000
   13.8288   23.8030    0.2400 N   0  0  0  0  0  0  0  0  0  0  0  0
   14.4620   24.3372    0.9453 H   0  0  0  0  0  0  0  0  0  0  0  0
   12.6739   23.2566    0.7930 C   0  0  0  0  0  0  0  0  0  0  0  0
   11.4291   23.6748    0.3232 C   0  0  0  0  0  0  0  0  0  0  0  0
   10.2533   23.1610    0.8412 C   0  0  0  0  0  0  0  0  0  0  0  0
    9.0166   23.5687    0.3826 C   0  0  0  0  0  0  0  0  0  0  0  0
    7.8768   23.0278    0.9302 C   0  0  0  0  0  0  0  0  0  0  0  0
    7.9507   22.0956    1.9184 C   0  0  0  0  0  0  0  0  0  0  0  0
    9.1779   21.6874    2.3774 C   0  0  0  0  0  0  0  0  0  0  0  0
   10.3180   22.2204    1.8381 C   0  0  0  0  0  0  0  0  0  0  0  0
   11.5560   21.8172    2.2919 C   0  0  0  0  0  0  0  0  0  0  0  0
   11.6288   20.8682    3.2979 O   0  0  0  0  0  0  0  0  0  0  0  0
   12.6521   22.3542    1.7477 N   0  0  0  0  0  0  0  0  0  0  0  0
   11.7629   19.9108    3.0094 H   0  0  0  0  0  0  0  0  0  0  0  0
   15.2527   24.8667   -3.0622 C   0  0  0  0  0  0  0  0  0  0  0  0
   15.2811   23.6438   -3.6800 C   0  0  0  0  0  0  0  0  0  0  0  0
   14.8499   22.4989   -3.0452 C   0  0  0  0  0  0  0  0  0  0  0  0
   14.3710   22.5660   -1.7459 C   0  0  0  0  0  0  0  0  0  0  0  0
   14.3200   23.7853   -1.0698 C   0  0  0  0  0  0  0  0  0  0  0  0
   14.7639   24.9033   -1.7502 C   0  0  0  0  0  0  0  0  0  0  0  0
   14.8695   26.8469   -4.4686 C   0  0  0  0  0  0  0  0  0  0  0  0
   15.6902   26.0159   -3.7117 O   0  0  0  0  0  0  0  0  0  0  0  0
   13.9314   21.4362   -1.0821 O   0  0  0  0  0  0  0  0  0  0  0  0
   14.8813   20.5781   -0.4592 C   0  0  0  0  0  0  0  0  0  0  0  0
 21 22  1  0  0  0
 22 15  1  0  0  0
 15 16  2  0  0  0
 16 17  1  0  0  0
 17 18  2  0  0  0
 18 23  1  0  0  0
 23 24  1  0  0  0
 18 19  1  0  0  0
 19  1  1  0  0  0
  1  3  1  0  0  0
  3  4  2  0  0  0
  4  5  1  0  0  0
  5  6  2  0  0  0
  6  7  1  0  0  0
  7  8  2  0  0  0
  8  9  1  0  0  0
  9 10  2  0  0  0
 10 11  1  0  0  0
 11 12  1  0  0  0
 11 13  2  0  0  0
 19 20  2  0  0  0
 20 15  1  0  0  0
 13  3  1  0  0  0
 10  5  1  0  0  0
  1  2  1  0  0  0
 12 14  1  0  0  0
M  END
> <minimizedAffinity>
-6.83539

> <CNNscore>
0.4349728227

> <CNNaffinity>
6.3498482704

> <CNN_VS>
2.7620115280

> <CNNaffinity_variance>
0.3727053702

$$$$
[H]Oc1nc(N([H])c2c([H])c(OC([H])([H])[H])c([H])c([H])c2OC([H])([H])[H])c([H])c2c([H])c([H])c([H])c([H])c12


 24 26  0  0  0  0  0  0  0  0999 V2000
   10.4225   23.9772    0.6027 N   0  0  0  0  0  0  0  0  0  0  0  0
    9.6231   23.8080   -0.1156 H   0  0  0  0  0  0  0  0  0  0  0  0
   11.6799   24.1742    0.0384 C   0  0  0  0  0  0  0  0  0  0  0  0
   11.7853   24.8680   -1.1669 C   0  0  0  0  0  0  0  0  0  0  0  0
   13.0126   25.0887   -1.7666 C   0  0  0  0  0  0  0  0  0  0  0  0
   13.1270   25.7744   -2.9594 C   0  0  0  0  0  0  0  0  0  0  0  0
   14.3701   25.9678   -3.5154 C   0  0  0  0  0  0  0  0  0  0  0  0
   15.4898   25.4928   -2.9058 C   0  0  0  0  0  0  0  0  0  0  0  0
   15.3809   24.8106   -1.7201 C   0  0  0  0  0  0  0  0  0  0  0  0
   14.1475   24.6133   -1.1592 C   0  0  0  0  0  0  0  0  0  0  0  0
   14.0268   23.9294    0.0319 C   0  0  0  0  0  0  0  0  0  0  0  0
   15.1680   23.4466    0.6506 O   0  0  0  0  0  0  0  0  0  0  0  0
   12.8108   23.7512    0.5566 N   0  0  0  0  0  0  0  0  0  0  0  0
   15.5691   24.0225    1.3754 H   0  0  0  0  0  0  0  0  0  0  0  0
    9.1873   25.0393    3.9805 C   0  0  0  0  0  0  0  0  0  0  0  0
    9.1908   23.8156    4.5974 C   0  0  0  0  0  0  0  0  0  0  0  0
    9.5834   22.6707    3.9381 C   0  0  0  0  0  0  0  0  0  0  0  0
    9.9892   22.7386    2.6142 C   0  0  0  0  0  0  0  0  0  0  0  0
   10.0051   23.9588    1.9378 C   0  0  0  0  0  0  0  0  0  0  0  0
    9.6023   25.0768    2.6434 C   0  0  0  0  0  0  0  0  0  0  0  0
    8.1370   27.2614    4.0544 C   0  0  0  0  0  0  0  0  0  0  0  0
    8.7893   26.1886    4.6549 O   0  0  0  0  0  0  0  0  0  0  0  0
   10.3887   21.6088    1.9255 O   0  0  0  0  0  0  0  0  0  0  0  0
   11.4975   20.8548    2.4038 C   0  0  0  0  0  0  0  0  0  0  0  0
 21 22  1  0  0  0
 22 15  1  0  0  0
 15 16  2  0  0  0
 16 17  1  0  0  0
 17 18  2  0  0  0
 18 23  1  0  0  0
 23 24  1  0  0  0
 18 19  1  0  0  0
 19  1  1  0  0  0
  1  3  1  0  0  0
  3  4  2  0  0  0
  4  5  1  0  0  0
  5  6  2  0  0  0
  6  7  1  0  0  0
  7  8  2  0  0  0
  8  9  1  0  0  0
  9 10  2  0  0  0
 10 11  1  0  0  0
 11 12  1  0  0  0
 11 13  2  0  0  0
 19 20  2  0  0  0
 20 15  1  0  0  0
 13  3  1  0  0  0
 10  5  1  0  0  0
  1  2  1  0  0  0
 12 14  1  0  0  0
M  END
> <minimizedAffinity>
-8.20651

> <CNNscore>
0.4236730933

> <CNNaffinity>
5.9569454193

> <CNN_VS>
2.5237975121

> <CNNaffinity_variance>
0.1105628237

$$$$
[H]Oc1nc(N([H])c2c([H])c(OC([H])([H])[H])c([H])c([H])c2OC([H])([H])[H])c([H])c2c([H])c([H])c([H])c([H])c12


 24 26  0  0  0  0  0  0  0  0999 V2000
   12.3635   22.9307    1.1015 N   0  0  0  0  0  0  0  0  0  0  0  0
   12.7061   22.1653    1.7946 H   0  0  0  0  0  0  0  0  0  0  0  0
   13.3741   23.5457    0.3677 C   0  0  0  0  0  0  0  0  0  0  0  0
   13.0847   24.0545   -0.8983 C   0  0  0  0  0  0  0  0  0  0  0  0
   14.0555   24.6741   -1.6654 C   0  0  0  0  0  0  0  0  0  0  0  0
   13.7785   25.1808   -2.9194 C   0  0  0  0  0  0  0  0  0  0  0  0
   14.7783   25.7879   -3.6429 C   0  0  0  0  0  0  0  0  0  0  0  0
   16.0377   25.8965   -3.1398 C   0  0  0  0  0  0  0  0  0  0  0  0
   16.3176   25.3943   -1.8937 C   0  0  0  0  0  0  0  0  0  0  0  0
   15.3286   24.7883   -1.1663 C   0  0  0  0  0  0  0  0  0  0  0  0
   15.5990   24.2803    0.0867 C   0  0  0  0  0  0  0  0  0  0  0  0
   16.8816   24.3920    0.5968 O   0  0  0  0  0  0  0  0  0  0  0  0
   14.6147   23.6938    0.7745 N   0  0  0  0  0  0  0  0  0  0  0  0
   17.0591   25.1725    1.2110 H   0  0  0  0  0  0  0  0  0  0  0  0
    8.9380   24.2582    1.8546 C   0  0  0  0  0  0  0  0  0  0  0  0
    8.2110   23.4336    1.0364 C   0  0  0  0  0  0  0  0  0  0  0  0
    8.8124   22.4688    0.2573 C   0  0  0  0  0  0  0  0  0  0  0  0
   10.1896   22.3130    0.2885 C   0  0  0  0  0  0  0  0  0  0  0  0
   10.9782   23.1256    1.1037 C   0  0  0  0  0  0  0  0  0  0  0  0
   10.3268   24.0773    1.8652 C   0  0  0  0  0  0  0  0  0  0  0  0
    7.4874   24.9499    3.7157 C   0  0  0  0  0  0  0  0  0  0  0  0
    8.3212   25.2287    2.6368 O   0  0  0  0  0  0  0  0  0  0  0  0
   10.8228   21.3549   -0.4807 O   0  0  0  0  0  0  0  0  0  0  0  0
   10.6263   19.9771   -0.1813 C   0  0  0  0  0  0  0  0  0  0  0  0
 21 22  1  0  0  0
 22 15  1  0  0  0
 15 16  2  0  0  0
 16 17  1  0  0  0
 17 18  2  0  0  0
 18 23  1  0  0  0
 23 24  1  0  0  0
 18 19  1  0  0  0
 19  1  1  0  0  0
  1  3  1  0  0  0
  3  4  2  0  0  0
  4  5  1  0  0  0
  5  6  2  0  0  0
  6  7  1  0  0  0
  7  8  2  0  0  0
  8  9  1  0  0  0
  9 10  2  0  0  0
 10 11  1  0  0  0
 11 12  1  0  0  0
 11 13  2  0  0  0
 19 20  2  0  0  0
 20 15  1  0  0  0
 13  3  1  0  0  0
 10  5  1  0  0  0
  1  2  1  0  0  0
 12 14  1  0  0  0
M  END
> <minimizedAffinity>
-7.49295

> <CNNscore>
0.3727780581

> <CNNaffinity>
6.1594109535

> <CNN_VS>
2.2960932255

> <CNNaffinity_variance>
0.1127042398

$$$$
[H]Oc1nc(N([H])c2c([H])c(OC([H])([H])[H])c([H])c([H])c2OC([H])([H])[H])c([H])c2c([H])c([H])c([H])c([H])c12


 24 26  0  0  0  0  0  0  0  0999 V2000
   16.1282   25.2291   -2.7321 N   0  0  0  0  0  0  0  0  0  0  0  0
   16.6752   26.0885   -3.1141 H   0  0  0  0  0  0  0  0  0  0  0  0
   15.7120   24.3247   -3.7053 C   0  0  0  0  0  0  0  0  0  0  0  0
   15.2868   23.0540   -3.3181 C   0  0  0  0  0  0  0  0  0  0  0  0
   14.8642   22.1208   -4.2483 C   0  0  0  0  0  0  0  0  0  0  0  0
   14.4416   20.8607   -3.8747 C   0  0  0  0  0  0  0  0  0  0  0  0
   14.0309   19.9686   -4.8376 C   0  0  0  0  0  0  0  0  0  0  0  0
   14.0351   20.3107   -6.1544 C   0  0  0  0  0  0  0  0  0  0  0  0
   14.4544   21.5621   -6.5304 C   0  0  0  0  0  0  0  0  0  0  0  0
   14.8649   22.4568   -5.5787 C   0  0  0  0  0  0  0  0  0  0  0  0
   15.2881   23.7167   -5.9456 C   0  0  0  0  0  0  0  0  0  0  0  0
   15.2915   24.0627   -7.2866 O   0  0  0  0  0  0  0  0  0  0  0  0
   15.6835   24.5696   -4.9958 N   0  0  0  0  0  0  0  0  0  0  0  0
   14.4872   24.5680   -7.6267 H   0  0  0  0  0  0  0  0  0  0  0  0
   15.3293   24.1675    0.7748 C   0  0  0  0  0  0  0  0  0  0  0  0
   15.6781   25.3218    1.4260 C   0  0  0  0  0  0  0  0  0  0  0  0
   16.1612   26.4206    0.7486 C   0  0  0  0  0  0  0  0  0  0  0  0
   16.3054   26.3762   -0.6295 C   0  0  0  0  0  0  0  0  0  0  0  0
   15.9654   25.2263   -1.3426 C   0  0  0  0  0  0  0  0  0  0  0  0
   15.4857   24.1524   -0.6169 C   0  0  0  0  0  0  0  0  0  0  0  0
   15.1155   21.7432    1.1257 C   0  0  0  0  0  0  0  0  0  0  0  0
   14.8427   23.0643    1.4678 O   0  0  0  0  0  0  0  0  0  0  0  0
   16.7870   27.4611   -1.3377 O   0  0  0  0  0  0  0  0  0  0  0  0
   17.4915   27.2433   -2.5554 C   0  0  0  0  0  0  0  0  0  0  0  0
 21 22  1  0  0  0
 22 15  1  0  0  0
 15 16  2  0  0  0
 16 17  1  0  0  0
 17 18  2  0  0  0
 18 23  1  0  0  0
 23 24  1  0  0  0
 18 19  1  0  0  0
 19  1  1  0  0  0
  1  3  1  0  0  0
  3  4  2  0  0  0
  4  5  1  0  0  0
  5  6  2  0  0  0
  6  7  1  0  0  0
  7  8  2  0  0  0
  8  9  1  0  0  0
  9 10  2  0  0  0
 10 11  1  0  0  0
 11 12  1  0  0  0
 11 13  2  0  0  0
 19 20  2  0  0  0
 20 15  1  0  0  0
 13  3  1  0  0  0
 10  5  1  0  0  0
  1  2  1  0  0  0
 12 14  1  0  0  0
M  END
> <minimizedAffinity>
21.66727

> <CNNscore>
0.3616063297

> <CNNaffinity>
5.9948854446

> <CNN_VS>
2.1677885056

> <CNNaffinity_variance>
0.9546369314

$$$$
[H]Oc1nc(N([H])c2c([H])c(OC([H])([H])[H])c([H])c([H])c2OC([H])([H])[H])c([H])c2c([H])c([H])c([H])c([H])c12


 24 26  0  0  0  0  0  0  0  0999 V2000
   12.6842   25.5781   -1.1322 N   0  0  0  0  0  0  0  0  0  0  0  0
   12.6691   26.5624   -0.6689 H   0  0  0  0  0  0  0  0  0  0  0  0
   11.8007   24.6584   -0.5738 C   0  0  0  0  0  0  0  0  0  0  0  0
   11.4130   23.5456   -1.3199 C   0  0  0  0  0  0  0  0  0  0  0  0
   10.5373   22.6043   -0.8083 C   0  0  0  0  0  0  0  0  0  0  0  0
   10.1478   21.4996   -1.5390 C   0  0  0  0  0  0  0  0  0  0  0  0
    9.2748   20.5922   -0.9857 C   0  0  0  0  0  0  0  0  0  0  0  0
    8.7890   20.7679    0.2729 C   0  0  0  0  0  0  0  0  0  0  0  0
    9.1734   21.8645    1.0030 C   0  0  0  0  0  0  0  0  0  0  0  0
   10.0421   22.7730    0.4603 C   0  0  0  0  0  0  0  0  0  0  0  0
   10.4348   23.8783    1.1852 C   0  0  0  0  0  0  0  0  0  0  0  0
    9.9390   24.0550    2.4662 O   0  0  0  0  0  0  0  0  0  0  0  0
   11.2836   24.7488    0.6307 N   0  0  0  0  0  0  0  0  0  0  0  0
   10.5192   23.7318    3.2257 H   0  0  0  0  0  0  0  0  0  0  0  0
   14.3864   25.9760   -4.4500 C   0  0  0  0  0  0  0  0  0  0  0  0
   15.4583   25.1500   -4.2341 C   0  0  0  0  0  0  0  0  0  0  0  0
   15.6294   24.4778   -3.0431 C   0  0  0  0  0  0  0  0  0  0  0  0
   14.7024   24.6289   -2.0234 C   0  0  0  0  0  0  0  0  0  0  0  0
   13.5923   25.4575   -2.1895 C   0  0  0  0  0  0  0  0  0  0  0  0
   13.4667   26.1088   -3.4020 C   0  0  0  0  0  0  0  0  0  0  0  0
   15.1713   26.6711   -6.6742 C   0  0  0  0  0  0  0  0  0  0  0  0
   14.2231   26.6497   -5.6556 O   0  0  0  0  0  0  0  0  0  0  0  0
   14.8455   23.9687   -0.8175 O   0  0  0  0  0  0  0  0  0  0  0  0
   15.6589   24.5422    0.2005 C   0  0  0  0  0  0  0  0  0  0  0  0
 21 22  1  0  0  0
 22 15  1  0  0  0
 15 16  2  0  0  0
 16 17  1  0  0  0
 17 18  2  0  0  0
 18 23  1  0  0  0
 23 24  1  0  0  0
 18 19  1  0  0  0
 19  1  1  0  0  0
  1  3  1  0  0  0
  3  4  2  0  0  0
  4  5  1  0  0  0
  5  6  2  0  0  0
  6  7  1  0  0  0
  7  8  2  0  0  0
  8  9  1  0  0  0
  9 10  2  0  0  0
 10 11  1  0  0  0
 11 12  1  0  0  0
 11 13  2  0  0  0
 19 20  2  0  0  0
 20 15  1  0  0  0
 13  3  1  0  0  0
 10  5  1  0  0  0
  1  2  1  0  0  0
 12 14  1  0  0  0
M  END
> <minimizedAffinity>
-7.63068

> <CNNscore>
0.3495725095

> <CNNaffinity>
6.0281438828

> <CNN_VS>
2.1072733402

> <CNNaffinity_variance>
0.0636140257

$$$$
[H]Oc1c([H])c2c(c([H])c1O[H])[C@]1([H])c3c(sc(Cl)c3[H])C([H])([H])N([H])[C@@]1([H])C([H])([H])C2([H])[H]


 23 26  0  0  0  0  0  0  0  0999 V2000
   13.9584   27.1888   -5.1547 O   0  0  0  0  0  0  0  0  0  0  0  0
   13.9490   26.3882   -4.0279 C   0  0  0  0  0  0  0  0  0  0  0  0
   12.7359   26.1789   -3.3937 C   0  0  0  0  0  0  0  0  0  0  0  0
   12.7114   25.3950   -2.2855 C   0  0  0  0  0  0  0  0  0  0  0  0
   13.8927   24.8119   -1.7960 C   0  0  0  0  0  0  0  0  0  0  0  0
   15.0807   25.0251   -2.4306 C   0  0  0  0  0  0  0  0  0  0  0  0
   15.1203   25.8317   -3.5753 C   0  0  0  0  0  0  0  0  0  0  0  0
   16.2976   26.0832   -4.2594 O   0  0  0  0  0  0  0  0  0  0  0  0
   13.6583   24.0008   -0.5845 C   0  0  0  0  0  0  0  0  0  0  0  0
   14.8662   23.4776    0.0939 C   0  0  0  0  0  0  0  0  0  0  0  0
   15.9867   24.1951    0.4079 C   0  0  0  0  0  0  0  0  0  0  0  0
   16.9893   23.5309    1.0381 C   0  0  0  0  0  0  0  0  0  0  0  0
   18.5418   24.1677    1.5673 Cl  0  0  0  0  0  0  0  0  0  0  0  0
   16.3833   21.9468    1.1889 S   0  0  0  0  0  0  0  0  0  0  0  0
   14.8725   22.1621    0.4502 C   0  0  0  0  0  0  0  0  0  0  0  0
   13.7308   21.2239    0.2154 C   0  0  0  0  0  0  0  0  0  0  0  0
   12.5146   22.0262    0.1364 N   0  0  0  0  0  0  0  0  0  0  0  0
   12.6886   22.9456   -0.9620 C   0  0  0  0  0  0  0  0  0  0  0  0
   11.3693   23.5647   -1.3868 C   0  0  0  0  0  0  0  0  0  0  0  0
   11.4600   25.0762   -1.5348 C   0  0  0  0  0  0  0  0  0  0  0  0
   13.1156   27.6136   -5.5147 H   0  0  0  0  0  0  0  0  0  0  0  0
   17.1886   25.7196   -3.9989 H   0  0  0  0  0  0  0  0  0  0  0  0
   11.7152   21.3818    0.0264 H   0  0  0  0  0  0  0  0  0  0  0  0
  1  2  1  0  0  0
  2  3  2  0  0  0
  3  4  1  0  0  0
  4  5  2  0  0  0
  5  6  1  0  0  0
  6  7  2  0  0  0
  7  8  1  0  0  0
  5  9  1  0  0  0
  9 10  1  0  0  0
 10 11  1  0  0  0
 11 12  2  0  0  0
 12 13  1  0  0  0
 12 14  1  0  0  0
 14 15  1  0  0  0
 15 16  1  0  0  0
 16 17  1  0  0  0
 17 18  1  0  0  0
 18 19  1  0  0  0
 19 20  1  0  0  0
  7  2  1  0  0  0
 18  9  1  0  0  0
 20  4  1  0  0  0
 15 10  2  0  0  0
  1 21  1  0  0  0
  8 22  1  0  0  0
 17 23  1  0  0  0
M  END
> <minimizedAffinity>
-6.13600

> <CNNscore>
0.7188214064

> <CNNaffinity>
7.0401787758

> <CNN_VS>
5.0606312752

> <CNNaffinity_variance>
0.6569344401

$$$$
[H]Oc1c([H])c2c(c([H])c1O[H])[C@]1([H])c3c(sc(Cl)c3[H])C([H])([H])N([H])[C@@]1([H])C([H])([H])C2([H])[H]


 23 26  0  0  0  0  0  0  0  0999 V2000
   13.3237   27.1189   -7.2303 O   0  0  0  0  0  0  0  0  0  0  0  0
   13.7357   26.6940   -5.9811 C   0  0  0  0  0  0  0  0  0  0  0  0
   12.7943   26.6630   -4.9660 C   0  0  0  0  0  0  0  0  0  0  0  0
   13.1845   26.2482   -3.7335 C   0  0  0  0  0  0  0  0  0  0  0  0
   14.5147   25.8610   -3.4974 C   0  0  0  0  0  0  0  0  0  0  0  0
   15.4317   25.8951   -4.5062 C   0  0  0  0  0  0  0  0  0  0  0  0
   15.0426   26.3208   -5.7828 C   0  0  0  0  0  0  0  0  0  0  0  0
   15.9305   26.3765   -6.8438 O   0  0  0  0  0  0  0  0  0  0  0  0
   14.7390   25.4474   -2.0978 C   0  0  0  0  0  0  0  0  0  0  0  0
   16.1435   25.1745   -1.7155 C   0  0  0  0  0  0  0  0  0  0  0  0
   17.2199   25.9736   -1.9837 C   0  0  0  0  0  0  0  0  0  0  0  0
   18.4309   25.5479   -1.5411 C   0  0  0  0  0  0  0  0  0  0  0  0
   19.9896   26.3425   -1.7273 Cl  0  0  0  0  0  0  0  0  0  0  0  0
   18.0760   24.0717   -0.7704 S   0  0  0  0  0  0  0  0  0  0  0  0
   16.4004   24.0273   -1.0259 C   0  0  0  0  0  0  0  0  0  0  0  0
   15.3518   23.0414   -0.6174 C   0  0  0  0  0  0  0  0  0  0  0  0
   14.0850   23.7605   -0.5315 N   0  0  0  0  0  0  0  0  0  0  0  0
   13.8246   24.3101   -1.8400 C   0  0  0  0  0  0  0  0  0  0  0  0
   12.3785   24.7487   -1.9841 C   0  0  0  0  0  0  0  0  0  0  0  0
   12.2532   26.1472   -2.5700 C   0  0  0  0  0  0  0  0  0  0  0  0
   12.3707   27.4004   -7.4110 H   0  0  0  0  0  0  0  0  0  0  0  0
   16.8933   26.1243   -6.7857 H   0  0  0  0  0  0  0  0  0  0  0  0
   13.3654   23.0983   -0.1997 H   0  0  0  0  0  0  0  0  0  0  0  0
  1  2  1  0  0  0
  2  3  2  0  0  0
  3  4  1  0  0  0
  4  5  2  0  0  0
  5  6  1  0  0  0
  6  7  2  0  0  0
  7  8  1  0  0  0
  5  9  1  0  0  0
  9 10  1  0  0  0
 10 11  1  0  0  0
 11 12  2  0  0  0
 12 13  1  0  0  0
 12 14  1  0  0  0
 14 15  1  0  0  0
 15 16  1  0  0  0
 16 17  1  0  0  0
 17 18  1  0  0  0
 18 19  1  0  0  0
 19 20  1  0  0  0
  7  2  1  0  0  0
 18  9  1  0  0  0
 20  4  1  0  0  0
 15 10  2  0  0  0
  1 21  1  0  0  0
  8 22  1  0  0  0
 17 23  1  0  0  0
M  END
> <minimizedAffinity>
14.69121

> <CNNscore>
0.5729557276

> <CNNaffinity>
6.6544923782

> <CNN_VS>
3.8127295971

> <CNNaffinity_variance>
2.0087590218

$$$$
[H]Oc1c([H])c2c(c([H])c1O[H])[C@]1([H])c3c(sc(Cl)c3[H])C([H])([H])N([H])[C@@]1([H])C([H])([H])C2([H])[H]


 23 26  0  0  0  0  0  0  0  0999 V2000
   16.2596   26.4165   -7.6665 O   0  0  0  0  0  0  0  0  0  0  0  0
   15.6889   26.1010   -6.4477 C   0  0  0  0  0  0  0  0  0  0  0  0
   15.3117   27.1457   -5.6207 C   0  0  0  0  0  0  0  0  0  0  0  0
   14.7502   26.8509   -4.4203 C   0  0  0  0  0  0  0  0  0  0  0  0
   14.5587   25.5147   -4.0294 C   0  0  0  0  0  0  0  0  0  0  0  0
   14.9335   24.4951   -4.8537 C   0  0  0  0  0  0  0  0  0  0  0  0
   15.5140   24.7850   -6.0953 C   0  0  0  0  0  0  0  0  0  0  0  0
   15.9143   23.7908   -6.9720 O   0  0  0  0  0  0  0  0  0  0  0  0
   13.9393   25.4037   -2.6935 C   0  0  0  0  0  0  0  0  0  0  0  0
   13.8443   24.0375   -2.1301 C   0  0  0  0  0  0  0  0  0  0  0  0
   14.8507   23.1131   -2.0878 C   0  0  0  0  0  0  0  0  0  0  0  0
   14.5638   21.9128   -1.5217 C   0  0  0  0  0  0  0  0  0  0  0  0
   15.6330   20.5301   -1.3200 Cl  0  0  0  0  0  0  0  0  0  0  0  0
   12.9325   22.0709   -1.0599 S   0  0  0  0  0  0  0  0  0  0  0  0
   12.6508   23.6551   -1.5944 C   0  0  0  0  0  0  0  0  0  0  0  0
   11.4425   24.5346   -1.5245 C   0  0  0  0  0  0  0  0  0  0  0  0
   11.9069   25.9179   -1.5397 N   0  0  0  0  0  0  0  0  0  0  0  0
   12.6350   26.1029   -2.7716 C   0  0  0  0  0  0  0  0  0  0  0  0
   12.8395   27.5742   -3.0842 C   0  0  0  0  0  0  0  0  0  0  0  0
   14.2796   27.8920   -3.4580 C   0  0  0  0  0  0  0  0  0  0  0  0
   16.4027   27.3732   -7.9572 H   0  0  0  0  0  0  0  0  0  0  0  0
   15.8237   22.8140   -6.7945 H   0  0  0  0  0  0  0  0  0  0  0  0
   11.0821   26.5312   -1.4393 H   0  0  0  0  0  0  0  0  0  0  0  0
  1  2  1  0  0  0
  2  3  2  0  0  0
  3  4  1  0  0  0
  4  5  2  0  0  0
  5  6  1  0  0  0
  6  7  2  0  0  0
  7  8  1  0  0  0
  5  9  1  0  0  0
  9 10  1  0  0  0
 10 11  1  0  0  0
 11 12  2  0  0  0
 12 13  1  0  0  0
 12 14  1  0  0  0
 14 15  1  0  0  0
 15 16  1  0  0  0
 16 17  1  0  0  0
 17 18  1  0  0  0
 18 19  1  0  0  0
 19 20  1  0  0  0
  7  2  1  0  0  0
 18  9  1  0  0  0
 20  4  1  0  0  0
 15 10  2  0  0  0
  1 21  1  0  0  0
  8 22  1  0  0  0
 17 23  1  0  0  0
M  END
> <minimizedAffinity>
1.85528

> <CNNscore>
0.4519165456

> <CNNaffinity>
6.3389973640

> <CNN_VS>
2.8646976948

> <CNNaffinity_variance>
0.7600129247

$$$$
[H]Oc1c([H])c2c(c([H])c1O[H])[C@]1([H])c3c(sc(Cl)c3[H])C([H])([H])N([H])[C@@]1([H])C([H])([H])C2([H])[H]


 23 26  0  0  0  0  0  0  0  0999 V2000
   14.9525   26.4920   -4.9462 O   0  0  0  0  0  0  0  0  0  0  0  0
   14.4828   25.6995   -3.9157 C   0  0  0  0  0  0  0  0  0  0  0  0
   13.2571   26.0233   -3.3583 C   0  0  0  0  0  0  0  0  0  0  0  0
   12.7832   25.2540   -2.3450 C   0  0  0  0  0  0  0  0  0  0  0  0
   13.5231   24.1557   -1.8748 C   0  0  0  0  0  0  0  0  0  0  0  0
   14.7283   23.8468   -2.4332 C   0  0  0  0  0  0  0  0  0  0  0  0
   15.2292   24.6321   -3.4796 C   0  0  0  0  0  0  0  0  0  0  0  0
   16.4465   24.3661   -4.0834 O   0  0  0  0  0  0  0  0  0  0  0  0
   12.8417   23.4509   -0.7706 C   0  0  0  0  0  0  0  0  0  0  0  0
   13.6160   22.3782   -0.1052 C   0  0  0  0  0  0  0  0  0  0  0  0
   14.9083   22.4714    0.3313 C   0  0  0  0  0  0  0  0  0  0  0  0
   15.4407   21.3725    0.9249 C   0  0  0  0  0  0  0  0  0  0  0  0
   17.0605   21.1783    1.5838 Cl  0  0  0  0  0  0  0  0  0  0  0  0
   14.1706   20.2394    0.8757 S   0  0  0  0  0  0  0  0  0  0  0  0
   12.9930   21.1842    0.1042 C   0  0  0  0  0  0  0  0  0  0  0  0
   11.5750   20.8995   -0.2787 C   0  0  0  0  0  0  0  0  0  0  0  0
   10.8680   22.1754   -0.3185 N   0  0  0  0  0  0  0  0  0  0  0  0
   11.5352   22.9947   -1.3011 C   0  0  0  0  0  0  0  0  0  0  0  0
   10.6837   24.1835   -1.7086 C   0  0  0  0  0  0  0  0  0  0  0  0
   11.4637   25.4895   -1.6855 C   0  0  0  0  0  0  0  0  0  0  0  0
   14.4296   27.2842   -5.2913 H   0  0  0  0  0  0  0  0  0  0  0  0
   17.0486   23.6136   -3.8284 H   0  0  0  0  0  0  0  0  0  0  0  0
    9.8760   21.9827   -0.5312 H   0  0  0  0  0  0  0  0  0  0  0  0
  1  2  1  0  0  0
  2  3  2  0  0  0
  3  4  1  0  0  0
  4  5  2  0  0  0
  5  6  1  0  0  0
  6  7  2  0  0  0
  7  8  1  0  0  0
  5  9  1  0  0  0
  9 10  1  0  0  0
 10 11  1  0  0  0
 11 12  2  0  0  0
 12 13  1  0  0  0
 12 14  1  0  0  0
 14 15  1  0  0  0
 15 16  1  0  0  0
 16 17  1  0  0  0
 17 18  1  0  0  0
 18 19  1  0  0  0
 19 20  1  0  0  0
  7  2  1  0  0  0
 18  9  1  0  0  0
 20  4  1  0  0  0
 15 10  2  0  0  0
  1 21  1  0  0  0
  8 22  1  0  0  0
 17 23  1  0  0  0
M  END
> <minimizedAffinity>
-4.62120

> <CNNscore>
0.4417847693

> <CNNaffinity>
6.5746564865

> <CNN_VS>
2.9045832157

> <CNNaffinity_variance>
0.6398422122

$$$$
[H]Oc1c([H])c2c(c([H])c1O[H])[C@]1([H])c3c(sc(Cl)c3[H])C([H])([H])N([H])[C@@]1([H])C([H])([H])C2([H])[H]


 23 26  0  0  0  0  0  0  0  0999 V2000
   15.9224   28.8015   -5.8768 O   0  0  0  0  0  0  0  0  0  0  0  0
   15.8598   27.6840   -5.0658 C   0  0  0  0  0  0  0  0  0  0  0  0
   16.6479   27.6666   -3.9272 C   0  0  0  0  0  0  0  0  0  0  0  0
   16.5970   26.5753   -3.1212 C   0  0  0  0  0  0  0  0  0  0  0  0
   15.7630   25.4898   -3.4393 C   0  0  0  0  0  0  0  0  0  0  0  0
   14.9910   25.5200   -4.5630 C   0  0  0  0  0  0  0  0  0  0  0  0
   15.0336   26.6399   -5.4034 C   0  0  0  0  0  0  0  0  0  0  0  0
   14.2726   26.7251   -6.5571 O   0  0  0  0  0  0  0  0  0  0  0  0
   15.8521   24.4028   -2.4438 C   0  0  0  0  0  0  0  0  0  0  0  0
   15.1309   23.1529   -2.7766 C   0  0  0  0  0  0  0  0  0  0  0  0
   15.1795   22.4899   -3.9713 C   0  0  0  0  0  0  0  0  0  0  0  0
   14.4468   21.3517   -4.0766 C   0  0  0  0  0  0  0  0  0  0  0  0
   14.3011   20.2854   -5.4685 Cl  0  0  0  0  0  0  0  0  0  0  0  0
   13.7101   21.2104   -2.5480 S   0  0  0  0  0  0  0  0  0  0  0  0
   14.3478   22.5971   -1.8095 C   0  0  0  0  0  0  0  0  0  0  0  0
   14.1886   23.1603   -0.4326 C   0  0  0  0  0  0  0  0  0  0  0  0
   15.3815   23.9488   -0.1419 N   0  0  0  0  0  0  0  0  0  0  0  0
   15.4528   24.9868   -1.1416 C   0  0  0  0  0  0  0  0  0  0  0  0
   16.4159   26.0878   -0.7362 C   0  0  0  0  0  0  0  0  0  0  0  0
   17.3798   26.4549   -1.8546 C   0  0  0  0  0  0  0  0  0  0  0  0
   16.5189   29.5869   -5.6584 H   0  0  0  0  0  0  0  0  0  0  0  0
   13.6493   26.0145   -6.8739 H   0  0  0  0  0  0  0  0  0  0  0  0
   15.3032   24.2986    0.8267 H   0  0  0  0  0  0  0  0  0  0  0  0
  1  2  1  0  0  0
  2  3  2  0  0  0
  3  4  1  0  0  0
  4  5  2  0  0  0
  5  6  1  0  0  0
  6  7  2  0  0  0
  7  8  1  0  0  0
  5  9  1  0  0  0
  9 10  1  0  0  0
 10 11  1  0  0  0
 11 12  2  0  0  0
 12 13  1  0  0  0
 12 14  1  0  0  0
 14 15  1  0  0  0
 15 16  1  0  0  0
 16 17  1  0  0  0
 17 18  1  0  0  0
 18 19  1  0  0  0
 19 20  1  0  0  0
  7  2  1  0  0  0
 18  9  1  0  0  0
 20  4  1  0  0  0
 15 10  2  0  0  0
  1 21  1  0  0  0
  8 22  1  0  0  0
 17 23  1  0  0  0
M  END
> <minimizedAffinity>
-2.09782

> <CNNscore>
0.3907113075

> <CNNaffinity>
6.5181145668

> <CNN_VS>
2.5467009544

> <CNNaffinity_variance>
0.3720479608

$$$$
[H]Oc1c([H])c2c(c([H])c1O[H])[C@]1([H])c3c(sc(Cl)c3[H])C([H])([H])N([H])[C@@]1([H])C([H])([H])C2([H])[H]


 23 26  0  0  0  0  0  0  0  0999 V2000
   14.2753   27.3778   -6.3330 O   0  0  0  0  0  0  0  0  0  0  0  0
   14.2048   26.6339   -5.1701 C   0  0  0  0  0  0  0  0  0  0  0  0
   15.2637   25.7912   -4.8765 C   0  0  0  0  0  0  0  0  0  0  0  0
   15.2081   25.0541   -3.7378 C   0  0  0  0  0  0  0  0  0  0  0  0
   14.0989   25.1464   -2.8798 C   0  0  0  0  0  0  0  0  0  0  0  0
   13.0631   25.9811   -3.1799 C   0  0  0  0  0  0  0  0  0  0  0  0
   13.1076   26.7476   -4.3516 C   0  0  0  0  0  0  0  0  0  0  0  0
   12.0848   27.6107   -4.7071 O   0  0  0  0  0  0  0  0  0  0  0  0
   14.2262   24.2662   -1.7010 C   0  0  0  0  0  0  0  0  0  0  0  0
   13.0372   24.1764   -0.8227 C   0  0  0  0  0  0  0  0  0  0  0  0
   11.7490   23.9702   -1.2315 C   0  0  0  0  0  0  0  0  0  0  0  0
   10.7960   23.9130   -0.2661 C   0  0  0  0  0  0  0  0  0  0  0  0
    9.0662   23.6634   -0.4689 Cl  0  0  0  0  0  0  0  0  0  0  0  0
   11.6752   24.1403    1.1743 S   0  0  0  0  0  0  0  0  0  0  0  0
   13.2312   24.3023    0.5204 C   0  0  0  0  0  0  0  0  0  0  0  0
   14.5687   24.5058    1.1593 C   0  0  0  0  0  0  0  0  0  0  0  0
   15.5740   23.9611    0.2527 N   0  0  0  0  0  0  0  0  0  0  0  0
   15.4563   24.6861   -0.9892 C   0  0  0  0  0  0  0  0  0  0  0  0
   16.6749   24.4843   -1.8716 C   0  0  0  0  0  0  0  0  0  0  0  0
   16.3010   24.1329   -3.3038 C   0  0  0  0  0  0  0  0  0  0  0  0
   15.0671   27.3186   -6.9573 H   0  0  0  0  0  0  0  0  0  0  0  0
   11.2562   27.7522   -4.1713 H   0  0  0  0  0  0  0  0  0  0  0  0
   16.4959   24.0506    0.7094 H   0  0  0  0  0  0  0  0  0  0  0  0
  1  2  1  0  0  0
  2  3  2  0  0  0
  3  4  1  0  0  0
  4  5  2  0  0  0
  5  6  1  0  0  0
  6  7  2  0  0  0
  7  8  1  0  0  0
  5  9  1  0  0  0
  9 10  1  0  0  0
 10 11  1  0  0  0
 11 12  2  0  0  0
 12 13  1  0  0  0
 12 14  1  0  0  0
 14 15  1  0  0  0
 15 16  1  0  0  0
 16 17  1  0  0  0
 17 18  1  0  0  0
 18 19  1  0  0  0
 19 20  1  0  0  0
  7  2  1  0  0  0
 18  9  1  0  0  0
 20  4  1  0  0  0
 15 10  2  0  0  0
  1 21  1  0  0  0
  8 22  1  0  0  0
 17 23  1  0  0  0
M  END
> <minimizedAffinity>
-6.21001

> <CNNscore>
0.3720315695

> <CNNaffinity>
6.5389847755

> <CNN_VS>
2.4327087402

> <CNNaffinity_variance>
0.2246969193

$$$$
[H]Oc1c([H])c2c(c([H])c1O[H])[C@]1([H])c3c(sc(Cl)c3[H])C([H])([H])N([H])[C@@]1([H])C([H])([H])C2([H])[H]


 23 26  0  0  0  0  0  0  0  0999 V2000
   17.7114   28.6710   -4.5485 O   0  0  0  0  0  0  0  0  0  0  0  0
   16.9282   27.5981   -4.1662 C   0  0  0  0  0  0  0  0  0  0  0  0
   16.5337   26.7038   -5.1470 C   0  0  0  0  0  0  0  0  0  0  0  0
   15.7638   25.6453   -4.7862 C   0  0  0  0  0  0  0  0  0  0  0  0
   15.3775   25.4657   -3.4470 C   0  0  0  0  0  0  0  0  0  0  0  0
   15.7738   26.3532   -2.4905 C   0  0  0  0  0  0  0  0  0  0  0  0
   16.5685   27.4497   -2.8489 C   0  0  0  0  0  0  0  0  0  0  0  0
   16.9994   28.3826   -1.9207 O   0  0  0  0  0  0  0  0  0  0  0  0
   14.5424   24.2623   -3.2601 C   0  0  0  0  0  0  0  0  0  0  0  0
   13.9564   24.0779   -1.9126 C   0  0  0  0  0  0  0  0  0  0  0  0
   13.3023   25.0310   -1.1827 C   0  0  0  0  0  0  0  0  0  0  0  0
   12.8307   24.6607    0.0355 C   0  0  0  0  0  0  0  0  0  0  0  0
   11.9570   25.6471    1.2013 Cl  0  0  0  0  0  0  0  0  0  0  0  0
   13.2877   23.0250    0.1582 S   0  0  0  0  0  0  0  0  0  0  0  0
   14.0659   22.8471   -1.3376 C   0  0  0  0  0  0  0  0  0  0  0  0
   14.7224   21.6717   -1.9903 C   0  0  0  0  0  0  0  0  0  0  0  0
   14.6545   21.8782   -3.4332 N   0  0  0  0  0  0  0  0  0  0  0  0
   15.3537   23.1085   -3.7148 C   0  0  0  0  0  0  0  0  0  0  0  0
   15.6818   23.2394   -5.1911 C   0  0  0  0  0  0  0  0  0  0  0  0
   15.3012   24.6022   -5.7502 C   0  0  0  0  0  0  0  0  0  0  0  0
   17.9941   28.8104   -5.5082 H   0  0  0  0  0  0  0  0  0  0  0  0
   16.7841   28.3493   -0.9478 H   0  0  0  0  0  0  0  0  0  0  0  0
   15.0591   21.0466   -3.8928 H   0  0  0  0  0  0  0  0  0  0  0  0
  1  2  1  0  0  0
  2  3  2  0  0  0
  3  4  1  0  0  0
  4  5  2  0  0  0
  5  6  1  0  0  0
  6  7  2  0  0  0
  7  8  1  0  0  0
  5  9  1  0  0  0
  9 10  1  0  0  0
 10 11  1  0  0  0
 11 12  2  0  0  0
 12 13  1  0  0  0
 12 14  1  0  0  0
 14 15  1  0  0  0
 15 16  1  0  0  0
 16 17  1  0  0  0
 17 18  1  0  0  0
 18 19  1  0  0  0
 19 20  1  0  0  0
  7  2  1  0  0  0
 18  9  1  0  0  0
 20  4  1  0  0  0
 15 10  2  0  0  0
  1 21  1  0  0  0
  8 22  1  0  0  0
 17 23  1  0  0  0
M  END
> <minimizedAffinity>
-2.68248

> <CNNscore>
0.3661718667

> <CNNaffinity>
6.6111402512

> <CNN_VS>
2.4208135605

> <CNNaffinity_variance>
0.5269193649

$$$$
[H]Oc1c([H])c2c(c([H])c1O[H])[C@]1([H])c3c(sc(Cl)c3[H])C([H])([H])N([H])[C@@]1([H])C([H])([H])C2([H])[H]


 23 26  0  0  0  0  0  0  0  0999 V2000
   14.0355   22.1065   -0.0813 O   0  0  0  0  0  0  0  0  0  0  0  0
   14.3874   23.2369   -0.7948 C   0  0  0  0  0  0  0  0  0  0  0  0
   15.0341   24.2552   -0.1148 C   0  0  0  0  0  0  0  0  0  0  0  0
   15.3854   25.3718   -0.8026 C   0  0  0  0  0  0  0  0  0  0  0  0
   15.0967   25.4878   -2.1731 C   0  0  0  0  0  0  0  0  0  0  0  0
   14.4603   24.4770   -2.8312 C   0  0  0  0  0  0  0  0  0  0  0  0
   14.0923   23.3192   -2.1337 C   0  0  0  0  0  0  0  0  0  0  0  0
   13.4438   22.2622   -2.7499 O   0  0  0  0  0  0  0  0  0  0  0  0
   15.5545   26.7736   -2.7365 C   0  0  0  0  0  0  0  0  0  0  0  0
   15.1536   27.0528   -4.1345 C   0  0  0  0  0  0  0  0  0  0  0  0
   13.8971   26.9112   -4.6545 C   0  0  0  0  0  0  0  0  0  0  0  0
   13.7317   27.2259   -5.9649 C   0  0  0  0  0  0  0  0  0  0  0  0
   12.2536   27.1491   -6.9162 Cl  0  0  0  0  0  0  0  0  0  0  0  0
   15.2888   27.7075   -6.4577 S   0  0  0  0  0  0  0  0  0  0  0  0
   16.1145   27.4996   -4.9915 C   0  0  0  0  0  0  0  0  0  0  0  0
   17.5387   27.7418   -4.6023 C   0  0  0  0  0  0  0  0  0  0  0  0
   17.5615   28.0038   -3.1670 N   0  0  0  0  0  0  0  0  0  0  0  0
   17.0190   26.8347   -2.5181 C   0  0  0  0  0  0  0  0  0  0  0  0
   17.3351   26.8225   -1.0335 C   0  0  0  0  0  0  0  0  0  0  0  0
   16.1099   26.5218   -0.1830 C   0  0  0  0  0  0  0  0  0  0  0  0
   14.2373   22.0128    0.9040 H   0  0  0  0  0  0  0  0  0  0  0  0
   13.1935   22.2410   -3.7146 H   0  0  0  0  0  0  0  0  0  0  0  0
   18.5344   28.2233   -2.8992 H   0  0  0  0  0  0  0  0  0  0  0  0
  1  2  1  0  0  0
  2  3  2  0  0  0
  3  4  1  0  0  0
  4  5  2  0  0  0
  5  6  1  0  0  0
  6  7  2  0  0  0
  7  8  1  0  0  0
  5  9  1  0  0  0
  9 10  1  0  0  0
 10 11  1  0  0  0
 11 12  2  0  0  0
 12 13  1  0  0  0
 12 14  1  0  0  0
 14 15  1  0  0  0
 15 16  1  0  0  0
 16 17  1  0  0  0
 17 18  1  0  0  0
 18 19  1  0  0  0
 19 20  1  0  0  0
  7  2  1  0  0  0
 18  9  1  0  0  0
 20  4  1  0  0  0
 15 10  2  0  0  0
  1 21  1  0  0  0
  8 22  1  0  0  0
 17 23  1  0  0  0
M  END
> <minimizedAffinity>
12.38059

> <CNNscore>
0.3371919990

> <CNNaffinity>
6.0595531464

> <CNN_VS>
2.0432329178

> <CNNaffinity_variance>
0.4352903962

$$$$
[H]Oc1c([H])c2c(c([H])c1O[H])[C@]1([H])c3c(sc(Cl)c3[H])C([H])([H])N([H])[C@@]1([H])C([H])([H])C2([H])[H]


 23 26  0  0  0  0  0  0  0  0999 V2000
   14.0901   20.1628   -1.4605 O   0  0  0  0  0  0  0  0  0  0  0  0
   14.3792   21.4890   -1.7219 C   0  0  0  0  0  0  0  0  0  0  0  0
   14.3698   22.3745   -0.6573 C   0  0  0  0  0  0  0  0  0  0  0  0
   14.6516   23.6805   -0.8990 C   0  0  0  0  0  0  0  0  0  0  0  0
   14.9446   24.1195   -2.2014 C   0  0  0  0  0  0  0  0  0  0  0  0
   14.9517   23.2368   -3.2409 C   0  0  0  0  0  0  0  0  0  0  0  0
   14.6630   21.8864   -3.0057 C   0  0  0  0  0  0  0  0  0  0  0  0
   14.6549   20.9464   -4.0224 O   0  0  0  0  0  0  0  0  0  0  0  0
   15.2191   25.5694   -2.2567 C   0  0  0  0  0  0  0  0  0  0  0  0
   15.3814   26.1513   -3.6088 C   0  0  0  0  0  0  0  0  0  0  0  0
   14.5532   25.9471   -4.6771 C   0  0  0  0  0  0  0  0  0  0  0  0
   14.8723   26.5785   -5.8360 C   0  0  0  0  0  0  0  0  0  0  0  0
   14.0154   26.5169   -7.3714 Cl  0  0  0  0  0  0  0  0  0  0  0  0
   16.2908   27.4351   -5.4443 S   0  0  0  0  0  0  0  0  0  0  0  0
   16.4472   26.9741   -3.8201 C   0  0  0  0  0  0  0  0  0  0  0  0
   17.4473   27.3382   -2.7687 C   0  0  0  0  0  0  0  0  0  0  0  0
   16.7921   27.1935   -1.4729 N   0  0  0  0  0  0  0  0  0  0  0  0
   16.3761   25.8161   -1.3642 C   0  0  0  0  0  0  0  0  0  0  0  0
   16.0299   25.4483    0.0673 C   0  0  0  0  0  0  0  0  0  0  0  0
   14.6980   24.7205    0.1722 C   0  0  0  0  0  0  0  0  0  0  0  0
   13.8772   19.8364   -0.5286 H   0  0  0  0  0  0  0  0  0  0  0  0
   14.8491   21.1502   -4.9787 H   0  0  0  0  0  0  0  0  0  0  0  0
   17.4595   27.4929   -0.7439 H   0  0  0  0  0  0  0  0  0  0  0  0
  1  2  1  0  0  0
  2  3  2  0  0  0
  3  4  1  0  0  0
  4  5  2  0  0  0
  5  6  1  0  0  0
  6  7  2  0  0  0
  7  8  1  0  0  0
  5  9  1  0  0  0
  9 10  1  0  0  0
 10 11  1  0  0  0
 11 12  2  0  0  0
 12 13  1  0  0  0
 12 14  1  0  0  0
 14 15  1  0  0  0
 15 16  1  0  0  0
 16 17  1  0  0  0
 17 18  1  0  0  0
 18 19  1  0  0  0
 19 20  1  0  0  0
  7  2  1  0  0  0
 18  9  1  0  0  0
 20  4  1  0  0  0
 15 10  2  0  0  0
  1 21  1  0  0  0
  8 22  1  0  0  0
 17 23  1  0  0  0
M  END
> <minimizedAffinity>
-2.80724

> <CNNscore>
0.3109684289

> <CNNaffinity>
6.6193542480

> <CNN_VS>
2.0584101677

> <CNNaffinity_variance>
0.3061553836

$$$$
[H]c1c(-c2c([H])c([H])c([H])c(C([H])([H])n3nc(-c4c([H])c(F)c([H])c(F)c4[H])c([H])c([H])c3=O)c2[H])nnc(C([H])([H])[H])c1[H]


 29 32  0  0  0  0  0  0  0  0999 V2000
   13.0771   26.1376   -3.6175 N   0  0  0  0  0  0  0  0  0  0  0  0
   13.2574   25.1065   -2.7970 N   0  0  0  0  0  0  0  0  0  0  0  0
   12.2669   24.4900   -2.1228 C   0  0  0  0  0  0  0  0  0  0  0  0
   10.9780   24.9548   -2.2905 C   0  0  0  0  0  0  0  0  0  0  0  0
   10.7489   26.0255   -3.1353 C   0  0  0  0  0  0  0  0  0  0  0  0
   11.8312   26.6043   -3.7937 C   0  0  0  0  0  0  0  0  0  0  0  0
   11.6916   27.5692   -4.5653 O   0  0  0  0  0  0  0  0  0  0  0  0
   12.5799   23.3575   -1.2410 C   0  0  0  0  0  0  0  0  0  0  0  0
   13.3722   22.3007   -1.5898 C   0  0  0  0  0  0  0  0  0  0  0  0
   13.6304   21.2553   -0.7039 C   0  0  0  0  0  0  0  0  0  0  0  0
   14.4143   20.2244   -1.0696 F   0  0  0  0  0  0  0  0  0  0  0  0
   13.0923   21.2514    0.5615 C   0  0  0  0  0  0  0  0  0  0  0  0
   12.2919   22.3128    0.9222 C   0  0  0  0  0  0  0  0  0  0  0  0
   11.7608   22.3123    2.1664 F   0  0  0  0  0  0  0  0  0  0  0  0
   12.0454   23.3397    0.0357 C   0  0  0  0  0  0  0  0  0  0  0  0
   14.2347   26.6742   -4.2622 C   0  0  0  0  0  0  0  0  0  0  0  0
   16.8169   25.6044   -1.7600 C   0  0  0  0  0  0  0  0  0  0  0  0
   17.8537   26.4210   -2.1804 C   0  0  0  0  0  0  0  0  0  0  0  0
   17.7420   27.2937   -3.2309 C   0  0  0  0  0  0  0  0  0  0  0  0
   16.5548   27.3786   -3.9130 C   0  0  0  0  0  0  0  0  0  0  0  0
   15.4972   26.5963   -3.5424 C   0  0  0  0  0  0  0  0  0  0  0  0
   15.6475   25.7331   -2.4835 C   0  0  0  0  0  0  0  0  0  0  0  0
   17.1455   21.9805    2.6266 C   0  0  0  0  0  0  0  0  0  0  0  0
   17.1157   22.9475    1.4718 C   0  0  0  0  0  0  0  0  0  0  0  0
   18.2629   23.5742    1.0396 C   0  0  0  0  0  0  0  0  0  0  0  0
   18.2119   24.4676   -0.0336 C   0  0  0  0  0  0  0  0  0  0  0  0
   17.0011   24.7010   -0.6386 C   0  0  0  0  0  0  0  0  0  0  0  0
   15.9287   24.0558   -0.1643 N   0  0  0  0  0  0  0  0  0  0  0  0
   15.9709   23.2125    0.8472 N   0  0  0  0  0  0  0  0  0  0  0  0
 23 24  1  0  0  0
 24 25  2  0  0  0
 25 26  1  0  0  0
 26 27  2  0  0  0
 27 17  1  0  0  0
 17 18  2  0  0  0
 18 19  1  0  0  0
 19 20  2  0  0  0
 20 21  1  0  0  0
 21 16  1  0  0  0
 16  1  1  0  0  0
  1  2  1  0  0  0
  2  3  2  0  0  0
  3  8  1  0  0  0
  8  9  2  0  0  0
  9 10  1  0  0  0
 10 11  1  0  0  0
 10 12  2  0  0  0
 12 13  1  0  0  0
 13 14  1  0  0  0
 13 15  2  0  0  0
  3  4  1  0  0  0
  4  5  2  0  0  0
  5  6  1  0  0  0
  6  7  2  0  0  0
 21 22  2  0  0  0
 27 28  1  0  0  0
 28 29  2  0  0  0
 29 24  1  0  0  0
 22 17  1  0  0  0
  6  1  1  0  0  0
 15  8  1  0  0  0
M  END
> <minimizedAffinity>
11.08317

> <CNNscore>
0.5918840766

> <CNNaffinity>
7.3675217628

> <CNN_VS>
4.3607187271

> <CNNaffinity_variance>
1.0397518873

$$$$
[H]c1c(-c2c([H])c([H])c([H])c(C([H])([H])n3nc(-c4c([H])c(F)c([H])c(F)c4[H])c([H])c([H])c3=O)c2[H])nnc(C([H])([H])[H])c1[H]


 29 32  0  0  0  0  0  0  0  0999 V2000
   14.3178   25.5631   -3.9382 N   0  0  0  0  0  0  0  0  0  0  0  0
   13.5549   25.1051   -2.9498 N   0  0  0  0  0  0  0  0  0  0  0  0
   12.5778   25.8154   -2.3528 C   0  0  0  0  0  0  0  0  0  0  0  0
   12.3489   27.1040   -2.7915 C   0  0  0  0  0  0  0  0  0  0  0  0
   13.1213   27.6171   -3.8175 C   0  0  0  0  0  0  0  0  0  0  0  0
   14.1110   26.8138   -4.3788 C   0  0  0  0  0  0  0  0  0  0  0  0
   14.8388   27.2164   -5.3028 O   0  0  0  0  0  0  0  0  0  0  0  0
   11.7943   25.2094   -1.2679 C   0  0  0  0  0  0  0  0  0  0  0  0
   11.8018   25.6426    0.0277 C   0  0  0  0  0  0  0  0  0  0  0  0
   11.0333   25.0220    1.0118 C   0  0  0  0  0  0  0  0  0  0  0  0
   11.0566   25.4663    2.2818 F   0  0  0  0  0  0  0  0  0  0  0  0
   10.2348   23.9438    0.7103 C   0  0  0  0  0  0  0  0  0  0  0  0
   10.2207   23.4997   -0.5935 C   0  0  0  0  0  0  0  0  0  0  0  0
    9.4363   22.4392   -0.8937 F   0  0  0  0  0  0  0  0  0  0  0  0
   10.9859   24.1234   -1.5562 C   0  0  0  0  0  0  0  0  0  0  0  0
   15.3079   24.6782   -4.4678 C   0  0  0  0  0  0  0  0  0  0  0  0
   14.5441   21.6206   -2.4327 C   0  0  0  0  0  0  0  0  0  0  0  0
   15.0951   20.6733   -3.2798 C   0  0  0  0  0  0  0  0  0  0  0  0
   15.6976   20.9908   -4.4689 C   0  0  0  0  0  0  0  0  0  0  0  0
   15.7694   22.3042   -4.8583 C   0  0  0  0  0  0  0  0  0  0  0  0
   15.2422   23.2820   -4.0621 C   0  0  0  0  0  0  0  0  0  0  0  0
   14.6458   22.9245   -2.8765 C   0  0  0  0  0  0  0  0  0  0  0  0
   12.4418   20.1154    2.6464 C   0  0  0  0  0  0  0  0  0  0  0  0
   12.9459   20.5011    1.2802 C   0  0  0  0  0  0  0  0  0  0  0  0
   12.1286   20.4296    0.1745 C   0  0  0  0  0  0  0  0  0  0  0  0
   12.6175   20.7924   -1.0833 C   0  0  0  0  0  0  0  0  0  0  0  0
   13.9196   21.2171   -1.1858 C   0  0  0  0  0  0  0  0  0  0  0  0
   14.6546   21.2608   -0.0680 N   0  0  0  0  0  0  0  0  0  0  0  0
   14.1989   20.9200    1.1203 N   0  0  0  0  0  0  0  0  0  0  0  0
 23 24  1  0  0  0
 24 25  2  0  0  0
 25 26  1  0  0  0
 26 27  2  0  0  0
 27 17  1  0  0  0
 17 18  2  0  0  0
 18 19  1  0  0  0
 19 20  2  0  0  0
 20 21  1  0  0  0
 21 16  1  0  0  0
 16  1  1  0  0  0
  1  2  1  0  0  0
  2  3  2  0  0  0
  3  8  1  0  0  0
  8  9  2  0  0  0
  9 10  1  0  0  0
 10 11  1  0  0  0
 10 12  2  0  0  0
 12 13  1  0  0  0
 13 14  1  0  0  0
 13 15  2  0  0  0
  3  4  1  0  0  0
  4  5  2  0  0  0
  5  6  1  0  0  0
  6  7  2  0  0  0
 21 22  2  0  0  0
 27 28  1  0  0  0
 28 29  2  0  0  0
 29 24  1  0  0  0
 22 17  1  0  0  0
  6  1  1  0  0  0
 15  8  1  0  0  0
M  END
> <minimizedAffinity>
1.18274

> <CNNscore>
0.5094270110

> <CNNaffinity>
7.4136085510

> <CNN_VS>
3.7766923904

> <CNNaffinity_variance>
0.8405491114

$$$$
[H]c1c(-c2c([H])c([H])c([H])c(C([H])([H])n3nc(-c4c([H])c(F)c([H])c(F)c4[H])c([H])c([H])c3=O)c2[H])nnc(C([H])([H])[H])c1[H]


 29 32  0  0  0  0  0  0  0  0999 V2000
   11.0542   22.8406   -1.3365 N   0  0  0  0  0  0  0  0  0  0  0  0
   12.1976   23.3343   -1.8031 N   0  0  0  0  0  0  0  0  0  0  0  0
   12.3604   24.6031   -2.2267 C   0  0  0  0  0  0  0  0  0  0  0  0
   11.2723   25.4510   -2.1757 C   0  0  0  0  0  0  0  0  0  0  0  0
   10.0652   24.9754   -1.6969 C   0  0  0  0  0  0  0  0  0  0  0  0
    9.9846   23.6492   -1.2791 C   0  0  0  0  0  0  0  0  0  0  0  0
    8.9288   23.1614   -0.8397 O   0  0  0  0  0  0  0  0  0  0  0  0
   13.6706   25.0436   -2.7239 C   0  0  0  0  0  0  0  0  0  0  0  0
   14.8576   24.8121   -2.0884 C   0  0  0  0  0  0  0  0  0  0  0  0
   16.0693   25.2581   -2.6147 C   0  0  0  0  0  0  0  0  0  0  0  0
   17.2264   25.0181   -1.9709 F   0  0  0  0  0  0  0  0  0  0  0  0
   16.1123   25.9521   -3.8011 C   0  0  0  0  0  0  0  0  0  0  0  0
   14.9204   26.1905   -4.4492 C   0  0  0  0  0  0  0  0  0  0  0  0
   14.9590   26.8730   -5.6166 F   0  0  0  0  0  0  0  0  0  0  0  0
   13.7297   25.7433   -3.9167 C   0  0  0  0  0  0  0  0  0  0  0  0
   11.0506   21.4728   -0.9208 C   0  0  0  0  0  0  0  0  0  0  0  0
   14.2592   21.3991    1.0216 C   0  0  0  0  0  0  0  0  0  0  0  0
   13.9655   20.3310    1.8531 C   0  0  0  0  0  0  0  0  0  0  0  0
   12.7802   19.6451    1.8026 C   0  0  0  0  0  0  0  0  0  0  0  0
   11.8245   20.0179    0.8919 C   0  0  0  0  0  0  0  0  0  0  0  0
   12.0595   21.0652    0.0458 C   0  0  0  0  0  0  0  0  0  0  0  0
   13.2605   21.7286    0.1264 C   0  0  0  0  0  0  0  0  0  0  0  0
   19.0831   24.4205    1.3111 C   0  0  0  0  0  0  0  0  0  0  0  0
   17.8375   23.5752    1.2525 C   0  0  0  0  0  0  0  0  0  0  0  0
   17.8671   22.2410    1.5913 C   0  0  0  0  0  0  0  0  0  0  0  0
   16.6994   21.4760    1.5296 C   0  0  0  0  0  0  0  0  0  0  0  0
   15.5352   22.0833    1.1268 C   0  0  0  0  0  0  0  0  0  0  0  0
   15.5826   23.3836    0.8130 N   0  0  0  0  0  0  0  0  0  0  0  0
   16.6805   24.1097    0.8693 N   0  0  0  0  0  0  0  0  0  0  0  0
 23 24  1  0  0  0
 24 25  2  0  0  0
 25 26  1  0  0  0
 26 27  2  0  0  0
 27 17  1  0  0  0
 17 18  2  0  0  0
 18 19  1  0  0  0
 19 20  2  0  0  0
 20 21  1  0  0  0
 21 16  1  0  0  0
 16  1  1  0  0  0
  1  2  1  0  0  0
  2  3  2  0  0  0
  3  8  1  0  0  0
  8  9  2  0  0  0
  9 10  1  0  0  0
 10 11  1  0  0  0
 10 12  2  0  0  0
 12 13  1  0  0  0
 13 14  1  0  0  0
 13 15  2  0  0  0
  3  4  1  0  0  0
  4  5  2  0  0  0
  5  6  1  0  0  0
  6  7  2  0  0  0
 21 22  2  0  0  0
 27 28  1  0  0  0
 28 29  2  0  0  0
 29 24  1  0  0  0
 22 17  1  0  0  0
  6  1  1  0  0  0
 15  8  1  0  0  0
M  END
> <minimizedAffinity>
6.61701

> <CNNscore>
0.5027013421

> <CNNaffinity>
7.2905707359

> <CNN_VS>
3.6649796963

> <CNNaffinity_variance>
0.9327009320

$$$$
[H]c1c(-c2c([H])c([H])c([H])c(C([H])([H])n3nc(-c4c([H])c(F)c([H])c(F)c4[H])c([H])c([H])c3=O)c2[H])nnc(C([H])([H])[H])c1[H]


 29 32  0  0  0  0  0  0  0  0999 V2000
   14.1086   26.3844   -3.7669 N   0  0  0  0  0  0  0  0  0  0  0  0
   14.1035   25.0568   -3.6877 N   0  0  0  0  0  0  0  0  0  0  0  0
   14.8973   24.2492   -4.4180 C   0  0  0  0  0  0  0  0  0  0  0  0
   15.7757   24.8323   -5.3090 C   0  0  0  0  0  0  0  0  0  0  0  0
   15.8113   26.2103   -5.4210 C   0  0  0  0  0  0  0  0  0  0  0  0
   14.9555   26.9704   -4.6274 C   0  0  0  0  0  0  0  0  0  0  0  0
   14.9387   28.2124   -4.6815 O   0  0  0  0  0  0  0  0  0  0  0  0
   14.8084   22.7926   -4.2497 C   0  0  0  0  0  0  0  0  0  0  0  0
   14.7713   21.8951   -5.2790 C   0  0  0  0  0  0  0  0  0  0  0  0
   14.6864   20.5222   -5.0508 C   0  0  0  0  0  0  0  0  0  0  0  0
   14.6513   19.6568   -6.0807 F   0  0  0  0  0  0  0  0  0  0  0  0
   14.6366   20.0196   -3.7718 C   0  0  0  0  0  0  0  0  0  0  0  0
   14.6734   20.9169   -2.7274 C   0  0  0  0  0  0  0  0  0  0  0  0
   14.6246   20.4260   -1.4677 F   0  0  0  0  0  0  0  0  0  0  0  0
   14.7575   22.2719   -2.9682 C   0  0  0  0  0  0  0  0  0  0  0  0
   13.2068   27.0965   -2.9165 C   0  0  0  0  0  0  0  0  0  0  0  0
   11.5699   24.5612   -0.6880 C   0  0  0  0  0  0  0  0  0  0  0  0
   11.8941   25.1288    0.5332 C   0  0  0  0  0  0  0  0  0  0  0  0
   12.6131   26.2891    0.6535 C   0  0  0  0  0  0  0  0  0  0  0  0
   13.0424   26.9360   -0.4775 C   0  0  0  0  0  0  0  0  0  0  0  0
   12.7518   26.4216   -1.7099 C   0  0  0  0  0  0  0  0  0  0  0  0
   12.0283   25.2557   -1.7902 C   0  0  0  0  0  0  0  0  0  0  0  0
    8.6278   19.7200   -1.3125 C   0  0  0  0  0  0  0  0  0  0  0  0
    9.3948   20.9974   -1.0905 C   0  0  0  0  0  0  0  0  0  0  0  0
    9.5295   21.5360    0.1695 C   0  0  0  0  0  0  0  0  0  0  0  0
   10.2454   22.7220    0.3522 C   0  0  0  0  0  0  0  0  0  0  0  0
   10.8046   23.3289   -0.7458 C   0  0  0  0  0  0  0  0  0  0  0  0
   10.6323   22.7476   -1.9390 N   0  0  0  0  0  0  0  0  0  0  0  0
    9.9583   21.6296   -2.1171 N   0  0  0  0  0  0  0  0  0  0  0  0
 23 24  1  0  0  0
 24 25  2  0  0  0
 25 26  1  0  0  0
 26 27  2  0  0  0
 27 17  1  0  0  0
 17 18  2  0  0  0
 18 19  1  0  0  0
 19 20  2  0  0  0
 20 21  1  0  0  0
 21 16  1  0  0  0
 16  1  1  0  0  0
  1  2  1  0  0  0
  2  3  2  0  0  0
  3  8  1  0  0  0
  8  9  2  0  0  0
  9 10  1  0  0  0
 10 11  1  0  0  0
 10 12  2  0  0  0
 12 13  1  0  0  0
 13 14  1  0  0  0
 13 15  2  0  0  0
  3  4  1  0  0  0
  4  5  2  0  0  0
  5  6  1  0  0  0
  6  7  2  0  0  0
 21 22  2  0  0  0
 27 28  1  0  0  0
 28 29  2  0  0  0
 29 24  1  0  0  0
 22 17  1  0  0  0
  6  1  1  0  0  0
 15  8  1  0  0  0
M  END
> <minimizedAffinity>
9.70082

> <CNNscore>
0.4835841358

> <CNNaffinity>
7.1111326218

> <CNN_VS>
3.4388308525

> <CNNaffinity_variance>
0.7897448540

$$$$
[H]c1c(-c2c([H])c([H])c([H])c(C([H])([H])n3nc(-c4c([H])c(F)c([H])c(F)c4[H])c([H])c([H])c3=O)c2[H])nnc(C([H])([H])[H])c1[H]


 29 32  0  0  0  0  0  0  0  0999 V2000
   10.4964   23.9027    0.2970 N   0  0  0  0  0  0  0  0  0  0  0  0
   11.7689   24.1738    0.0213 N   0  0  0  0  0  0  0  0  0  0  0  0
   12.2039   24.6588   -1.1582 C   0  0  0  0  0  0  0  0  0  0  0  0
   11.2721   24.8917   -2.1497 C   0  0  0  0  0  0  0  0  0  0  0  0
    9.9384   24.6224   -1.9022 C   0  0  0  0  0  0  0  0  0  0  0  0
    9.5752   24.1222   -0.6541 C   0  0  0  0  0  0  0  0  0  0  0  0
    8.3938   23.8593   -0.3697 O   0  0  0  0  0  0  0  0  0  0  0  0
   13.6355   24.9229   -1.3549 C   0  0  0  0  0  0  0  0  0  0  0  0
   14.1667   25.5284   -2.4583 C   0  0  0  0  0  0  0  0  0  0  0  0
   15.5376   25.7501   -2.5834 C   0  0  0  0  0  0  0  0  0  0  0  0
   16.0382   26.3487   -3.6798 F   0  0  0  0  0  0  0  0  0  0  0  0
   16.4097   25.3639   -1.5929 C   0  0  0  0  0  0  0  0  0  0  0  0
   15.8835   24.7523   -0.4765 C   0  0  0  0  0  0  0  0  0  0  0  0
   16.7386   24.3711    0.5000 F   0  0  0  0  0  0  0  0  0  0  0  0
   14.5256   24.5397   -0.3665 C   0  0  0  0  0  0  0  0  0  0  0  0
   10.2000   23.3982    1.6013 C   0  0  0  0  0  0  0  0  0  0  0  0
   13.0408   20.9708    1.9347 C   0  0  0  0  0  0  0  0  0  0  0  0
   12.5367   20.2148    2.9801 C   0  0  0  0  0  0  0  0  0  0  0  0
   11.3242   20.4630    3.5685 C   0  0  0  0  0  0  0  0  0  0  0  0
   10.5566   21.5058    3.1156 C   0  0  0  0  0  0  0  0  0  0  0  0
   11.0037   22.2860    2.0864 C   0  0  0  0  0  0  0  0  0  0  0  0
   12.2250   22.0059    1.5217 C   0  0  0  0  0  0  0  0  0  0  0  0
   18.2634   20.0554   -0.1555 C   0  0  0  0  0  0  0  0  0  0  0  0
   16.8648   20.2497    0.3693 C   0  0  0  0  0  0  0  0  0  0  0  0
   15.8559   19.3700    0.0471 C   0  0  0  0  0  0  0  0  0  0  0  0
   14.5657   19.5698    0.5453 C   0  0  0  0  0  0  0  0  0  0  0  0
   14.3338   20.6544    1.3555 C   0  0  0  0  0  0  0  0  0  0  0  0
   15.3629   21.4665    1.6255 N   0  0  0  0  0  0  0  0  0  0  0  0
   16.5811   21.2830    1.1586 N   0  0  0  0  0  0  0  0  0  0  0  0
 23 24  1  0  0  0
 24 25  2  0  0  0
 25 26  1  0  0  0
 26 27  2  0  0  0
 27 17  1  0  0  0
 17 18  2  0  0  0
 18 19  1  0  0  0
 19 20  2  0  0  0
 20 21  1  0  0  0
 21 16  1  0  0  0
 16  1  1  0  0  0
  1  2  1  0  0  0
  2  3  2  0  0  0
  3  8  1  0  0  0
  8  9  2  0  0  0
  9 10  1  0  0  0
 10 11  1  0  0  0
 10 12  2  0  0  0
 12 13  1  0  0  0
 13 14  1  0  0  0
 13 15  2  0  0  0
  3  4  1  0  0  0
  4  5  2  0  0  0
  5  6  1  0  0  0
  6  7  2  0  0  0
 21 22  2  0  0  0
 27 28  1  0  0  0
 28 29  2  0  0  0
 29 24  1  0  0  0
 22 17  1  0  0  0
  6  1  1  0  0  0
 15  8  1  0  0  0
M  END
> <minimizedAffinity>
9.38403

> <CNNscore>
0.4736341834

> <CNNaffinity>
6.9246649742

> <CNN_VS>
3.2797579765

> <CNNaffinity_variance>
0.5246780515

$$$$
[H]c1c(-c2c([H])c([H])c([H])c(C([H])([H])n3nc(-c4c([H])c(F)c([H])c(F)c4[H])c([H])c([H])c3=O)c2[H])nnc(C([H])([H])[H])c1[H]


 29 32  0  0  0  0  0  0  0  0999 V2000
   11.1809   24.6970   -1.6739 N   0  0  0  0  0  0  0  0  0  0  0  0
   12.4694   24.7087   -1.3446 N   0  0  0  0  0  0  0  0  0  0  0  0
   13.4264   25.3496   -2.0441 C   0  0  0  0  0  0  0  0  0  0  0  0
   13.0508   26.0411   -3.1783 C   0  0  0  0  0  0  0  0  0  0  0  0
   11.7200   26.0529   -3.5544 C   0  0  0  0  0  0  0  0  0  0  0  0
   10.7958   25.3633   -2.7733 C   0  0  0  0  0  0  0  0  0  0  0  0
    9.5859   25.3349   -3.0580 O   0  0  0  0  0  0  0  0  0  0  0  0
   14.8220   25.2962   -1.5887 C   0  0  0  0  0  0  0  0  0  0  0  0
   15.8756   25.8555   -2.2547 C   0  0  0  0  0  0  0  0  0  0  0  0
   17.1791   25.7689   -1.7675 C   0  0  0  0  0  0  0  0  0  0  0  0
   18.2015   26.3278   -2.4408 F   0  0  0  0  0  0  0  0  0  0  0  0
   17.4520   25.1124   -0.5904 C   0  0  0  0  0  0  0  0  0  0  0  0
   16.3961   24.5451    0.0882 C   0  0  0  0  0  0  0  0  0  0  0  0
   16.6608   23.8984    1.2466 F   0  0  0  0  0  0  0  0  0  0  0  0
   15.1121   24.6388   -0.4057 C   0  0  0  0  0  0  0  0  0  0  0  0
   10.2915   23.9731   -0.8203 C   0  0  0  0  0  0  0  0  0  0  0  0
   12.7712   21.7238    0.8723 C   0  0  0  0  0  0  0  0  0  0  0  0
   12.0341   21.4315    2.0080 C   0  0  0  0  0  0  0  0  0  0  0  0
   10.7789   21.9316    2.2364 C   0  0  0  0  0  0  0  0  0  0  0  0
   10.2060   22.7638    1.3084 C   0  0  0  0  0  0  0  0  0  0  0  0
   10.8874   23.0869    0.1686 C   0  0  0  0  0  0  0  0  0  0  0  0
   12.1442   22.5656   -0.0252 C   0  0  0  0  0  0  0  0  0  0  0  0
   18.1195   19.8163    0.3819 C   0  0  0  0  0  0  0  0  0  0  0  0
   16.6880   20.2755    0.4795 C   0  0  0  0  0  0  0  0  0  0  0  0
   15.6724   19.5708   -0.1269 C   0  0  0  0  0  0  0  0  0  0  0  0
   14.3517   20.0153   -0.0232 C   0  0  0  0  0  0  0  0  0  0  0  0
   14.0968   21.1603    0.6913 C   0  0  0  0  0  0  0  0  0  0  0  0
   15.1342   21.7925    1.2532 N   0  0  0  0  0  0  0  0  0  0  0  0
   16.3812   21.3780    1.1587 N   0  0  0  0  0  0  0  0  0  0  0  0
 23 24  1  0  0  0
 24 25  2  0  0  0
 25 26  1  0  0  0
 26 27  2  0  0  0
 27 17  1  0  0  0
 17 18  2  0  0  0
 18 19  1  0  0  0
 19 20  2  0  0  0
 20 21  1  0  0  0
 21 16  1  0  0  0
 16  1  1  0  0  0
  1  2  1  0  0  0
  2  3  2  0  0  0
  3  8  1  0  0  0
  8  9  2  0  0  0
  9 10  1  0  0  0
 10 11  1  0  0  0
 10 12  2  0  0  0
 12 13  1  0  0  0
 13 14  1  0  0  0
 13 15  2  0  0  0
  3  4  1  0  0  0
  4  5  2  0  0  0
  5  6  1  0  0  0
  6  7  2  0  0  0
 21 22  2  0  0  0
 27 28  1  0  0  0
 28 29  2  0  0  0
 29 24  1  0  0  0
 22 17  1  0  0  0
  6  1  1  0  0  0
 15  8  1  0  0  0
M  END
> <minimizedAffinity>
15.22757

> <CNNscore>
0.4712797999

> <CNNaffinity>
7.2611413002

> <CNN_VS>
3.4220292568

> <CNNaffinity_variance>
1.4571621418

$$$$
[H]c1c(-c2c([H])c([H])c([H])c(C([H])([H])n3nc(-c4c([H])c(F)c([H])c(F)c4[H])c([H])c([H])c3=O)c2[H])nnc(C([H])([H])[H])c1[H]


 29 32  0  0  0  0  0  0  0  0999 V2000
   14.9941   25.8685   -5.7099 N   0  0  0  0  0  0  0  0  0  0  0  0
   15.9765   26.4751   -5.0497 N   0  0  0  0  0  0  0  0  0  0  0  0
   16.8145   27.3780   -5.5959 C   0  0  0  0  0  0  0  0  0  0  0  0
   16.6474   27.6984   -6.9282 C   0  0  0  0  0  0  0  0  0  0  0  0
   15.6371   27.0891   -7.6496 C   0  0  0  0  0  0  0  0  0  0  0  0
   14.8156   26.1665   -7.0062 C   0  0  0  0  0  0  0  0  0  0  0  0
   13.8908   25.5843   -7.5990 O   0  0  0  0  0  0  0  0  0  0  0  0
   17.8671   27.9877   -4.7724 C   0  0  0  0  0  0  0  0  0  0  0  0
   18.4655   27.3792   -3.7057 C   0  0  0  0  0  0  0  0  0  0  0  0
   19.4607   28.0142   -2.9638 C   0  0  0  0  0  0  0  0  0  0  0  0
   20.0362   27.3949   -1.9168 F   0  0  0  0  0  0  0  0  0  0  0  0
   19.8778   29.2853   -3.2822 C   0  0  0  0  0  0  0  0  0  0  0  0
   19.2802   29.9071   -4.3563 C   0  0  0  0  0  0  0  0  0  0  0  0
   19.6881   31.1576   -4.6724 F   0  0  0  0  0  0  0  0  0  0  0  0
   18.2973   29.2667   -5.0809 C   0  0  0  0  0  0  0  0  0  0  0  0
   14.1890   24.9390   -4.9809 C   0  0  0  0  0  0  0  0  0  0  0  0
   14.1205   23.6995   -1.4408 C   0  0  0  0  0  0  0  0  0  0  0  0
   15.4703   23.8277   -1.1575 C   0  0  0  0  0  0  0  0  0  0  0  0
   16.3852   24.2973   -2.0631 C   0  0  0  0  0  0  0  0  0  0  0  0
   15.9654   24.6637   -3.3166 C   0  0  0  0  0  0  0  0  0  0  0  0
   14.6447   24.5582   -3.6522 C   0  0  0  0  0  0  0  0  0  0  0  0
   13.7569   24.0830   -2.7168 C   0  0  0  0  0  0  0  0  0  0  0  0
   10.2235   21.9122    2.3144 C   0  0  0  0  0  0  0  0  0  0  0  0
   11.2940   22.3555    1.3516 C   0  0  0  0  0  0  0  0  0  0  0  0
   12.6045   21.9674    1.5176 C   0  0  0  0  0  0  0  0  0  0  0  0
   13.5811   22.3907    0.6122 C   0  0  0  0  0  0  0  0  0  0  0  0
   13.2031   23.1947   -0.4353 C   0  0  0  0  0  0  0  0  0  0  0  0
   11.9113   23.5313   -0.5327 N   0  0  0  0  0  0  0  0  0  0  0  0
   10.9864   23.1353    0.3179 N   0  0  0  0  0  0  0  0  0  0  0  0
 23 24  1  0  0  0
 24 25  2  0  0  0
 25 26  1  0  0  0
 26 27  2  0  0  0
 27 17  1  0  0  0
 17 18  2  0  0  0
 18 19  1  0  0  0
 19 20  2  0  0  0
 20 21  1  0  0  0
 21 16  1  0  0  0
 16  1  1  0  0  0
  1  2  1  0  0  0
  2  3  2  0  0  0
  3  8  1  0  0  0
  8  9  2  0  0  0
  9 10  1  0  0  0
 10 11  1  0  0  0
 10 12  2  0  0  0
 12 13  1  0  0  0
 13 14  1  0  0  0
 13 15  2  0  0  0
  3  4  1  0  0  0
  4  5  2  0  0  0
  5  6  1  0  0  0
  6  7  2  0  0  0
 21 22  2  0  0  0
 27 28  1  0  0  0
 28 29  2  0  0  0
 29 24  1  0  0  0
 22 17  1  0  0  0
  6  1  1  0  0  0
 15  8  1  0  0  0
M  END
> <minimizedAffinity>
22.98499

> <CNNscore>
0.4483116567

> <CNNaffinity>
6.7331991196

> <CNN_VS>
3.0185716152

> <CNNaffinity_variance>
0.7841253281

$$$$
[H]c1c(-c2c([H])c([H])c([H])c(C([H])([H])n3nc(-c4c([H])c(F)c([H])c(F)c4[H])c([H])c([H])c3=O)c2[H])nnc(C([H])([H])[H])c1[H]


 29 32  0  0  0  0  0  0  0  0999 V2000
   14.3483   22.0080   -2.0080 N   0  0  0  0  0  0  0  0  0  0  0  0
   14.6637   23.1642   -2.5846 N   0  0  0  0  0  0  0  0  0  0  0  0
   15.2270   23.2763   -3.8036 C   0  0  0  0  0  0  0  0  0  0  0  0
   15.4971   22.1184   -4.5049 C   0  0  0  0  0  0  0  0  0  0  0  0
   15.1840   20.8958   -3.9394 C   0  0  0  0  0  0  0  0  0  0  0  0
   14.6032   20.8708   -2.6737 C   0  0  0  0  0  0  0  0  0  0  0  0
   14.2990   19.8048   -2.1109 O   0  0  0  0  0  0  0  0  0  0  0  0
   15.5342   24.6067   -4.3455 C   0  0  0  0  0  0  0  0  0  0  0  0
   15.3852   24.9620   -5.6562 C   0  0  0  0  0  0  0  0  0  0  0  0
   15.6954   26.2444   -6.1071 C   0  0  0  0  0  0  0  0  0  0  0  0
   15.5406   26.5718   -7.4032 F   0  0  0  0  0  0  0  0  0  0  0  0
   16.1659   27.2039   -5.2416 C   0  0  0  0  0  0  0  0  0  0  0  0
   16.3195   26.8549   -3.9180 C   0  0  0  0  0  0  0  0  0  0  0  0
   16.7821   27.7963   -3.0636 F   0  0  0  0  0  0  0  0  0  0  0  0
   16.0086   25.5828   -3.4864 C   0  0  0  0  0  0  0  0  0  0  0  0
   13.7495   22.0627   -0.7110 C   0  0  0  0  0  0  0  0  0  0  0  0
   12.3910   25.5542   -0.9049 C   0  0  0  0  0  0  0  0  0  0  0  0
   11.6138   25.5307    0.2414 C   0  0  0  0  0  0  0  0  0  0  0  0
   11.5201   24.4369    1.0615 C   0  0  0  0  0  0  0  0  0  0  0  0
   12.2216   23.2997    0.7507 C   0  0  0  0  0  0  0  0  0  0  0  0
   13.0050   23.2655   -0.3687 C   0  0  0  0  0  0  0  0  0  0  0  0
   13.0737   24.3825   -1.1667 C   0  0  0  0  0  0  0  0  0  0  0  0
   12.6574   29.9951   -4.4671 C   0  0  0  0  0  0  0  0  0  0  0  0
   12.5801   28.8584   -3.4816 C   0  0  0  0  0  0  0  0  0  0  0  0
   12.4060   29.0945   -2.1363 C   0  0  0  0  0  0  0  0  0  0  0  0
   12.3372   28.0247   -1.2400 C   0  0  0  0  0  0  0  0  0  0  0  0
   12.4466   26.7466   -1.7310 C   0  0  0  0  0  0  0  0  0  0  0  0
   12.6143   26.5942   -3.0501 N   0  0  0  0  0  0  0  0  0  0  0  0
   12.6799   27.5990   -3.8997 N   0  0  0  0  0  0  0  0  0  0  0  0
 23 24  1  0  0  0
 24 25  2  0  0  0
 25 26  1  0  0  0
 26 27  2  0  0  0
 27 17  1  0  0  0
 17 18  2  0  0  0
 18 19  1  0  0  0
 19 20  2  0  0  0
 20 21  1  0  0  0
 21 16  1  0  0  0
 16  1  1  0  0  0
  1  2  1  0  0  0
  2  3  2  0  0  0
  3  8  1  0  0  0
  8  9  2  0  0  0
  9 10  1  0  0  0
 10 11  1  0  0  0
 10 12  2  0  0  0
 12 13  1  0  0  0
 13 14  1  0  0  0
 13 15  2  0  0  0
  3  4  1  0  0  0
  4  5  2  0  0  0
  5  6  1  0  0  0
  6  7  2  0  0  0
 21 22  2  0  0  0
 27 28  1  0  0  0
 28 29  2  0  0  0
 29 24  1  0  0  0
 22 17  1  0  0  0
  6  1  1  0  0  0
 15  8  1  0  0  0
M  END
> <minimizedAffinity>
21.34916

> <CNNscore>
0.4437282979

> <CNNaffinity>
6.8173217773

> <CNN_VS>
3.0250384808

> <CNNaffinity_variance>
0.6152296662

$$$$
[H]c1c(-c2c([H])c([H])c([H])c(C([H])([H])n3nc(-c4c([H])c(F)c([H])c(F)c4[H])c([H])c([H])c3=O)c2[H])nnc(C([H])([H])[H])c1[H]


 29 32  0  0  0  0  0  0  0  0999 V2000
   13.0611   24.4524   -1.5737 N   0  0  0  0  0  0  0  0  0  0  0  0
   12.6794   25.4495   -2.3667 N   0  0  0  0  0  0  0  0  0  0  0  0
   12.2415   26.6453   -1.9263 C   0  0  0  0  0  0  0  0  0  0  0  0
   12.1829   26.8553   -0.5632 C   0  0  0  0  0  0  0  0  0  0  0  0
   12.5712   25.8427    0.2951 C   0  0  0  0  0  0  0  0  0  0  0  0
   13.0113   24.6368   -0.2453 C   0  0  0  0  0  0  0  0  0  0  0  0
   13.3732   23.6882    0.4721 O   0  0  0  0  0  0  0  0  0  0  0  0
   11.8442   27.6777   -2.8928 C   0  0  0  0  0  0  0  0  0  0  0  0
   11.1100   27.4411   -4.0203 C   0  0  0  0  0  0  0  0  0  0  0  0
   10.7655   28.4677   -4.8988 C   0  0  0  0  0  0  0  0  0  0  0  0
   10.0413   28.2108   -6.0035 F   0  0  0  0  0  0  0  0  0  0  0  0
   11.1560   29.7643   -4.6592 C   0  0  0  0  0  0  0  0  0  0  0  0
   11.8968   30.0127   -3.5248 C   0  0  0  0  0  0  0  0  0  0  0  0
   12.2826   31.2871   -3.2859 F   0  0  0  0  0  0  0  0  0  0  0  0
   12.2299   28.9874   -2.6650 C   0  0  0  0  0  0  0  0  0  0  0  0
   13.5066   23.2477   -2.2014 C   0  0  0  0  0  0  0  0  0  0  0  0
   15.7720   24.6362   -4.8497 C   0  0  0  0  0  0  0  0  0  0  0  0
   16.6725   23.5857   -4.9140 C   0  0  0  0  0  0  0  0  0  0  0  0
   16.5680   22.4601   -4.1395 C   0  0  0  0  0  0  0  0  0  0  0  0
   15.5289   22.3478   -3.2509 C   0  0  0  0  0  0  0  0  0  0  0  0
   14.6100   23.3538   -3.1445 C   0  0  0  0  0  0  0  0  0  0  0  0
   14.7482   24.4673   -3.9383 C   0  0  0  0  0  0  0  0  0  0  0  0
   16.3991   28.9667   -8.5017 C   0  0  0  0  0  0  0  0  0  0  0  0
   16.2385   27.8597   -7.4926 C   0  0  0  0  0  0  0  0  0  0  0  0
   16.2688   28.1199   -6.1409 C   0  0  0  0  0  0  0  0  0  0  0  0
   16.1177   27.0775   -5.2227 C   0  0  0  0  0  0  0  0  0  0  0  0
   15.9402   25.8015   -5.6990 C   0  0  0  0  0  0  0  0  0  0  0  0
   15.9214   25.6246   -7.0255 N   0  0  0  0  0  0  0  0  0  0  0  0
   16.0634   26.6036   -7.8958 N   0  0  0  0  0  0  0  0  0  0  0  0
 23 24  1  0  0  0
 24 25  2  0  0  0
 25 26  1  0  0  0
 26 27  2  0  0  0
 27 17  1  0  0  0
 17 18  2  0  0  0
 18 19  1  0  0  0
 19 20  2  0  0  0
 20 21  1  0  0  0
 21 16  1  0  0  0
 16  1  1  0  0  0
  1  2  1  0  0  0
  2  3  2  0  0  0
  3  8  1  0  0  0
  8  9  2  0  0  0
  9 10  1  0  0  0
 10 11  1  0  0  0
 10 12  2  0  0  0
 12 13  1  0  0  0
 13 14  1  0  0  0
 13 15  2  0  0  0
  3  4  1  0  0  0
  4  5  2  0  0  0
  5  6  1  0  0  0
  6  7  2  0  0  0
 21 22  2  0  0  0
 27 28  1  0  0  0
 28 29  2  0  0  0
 29 24  1  0  0  0
 22 17  1  0  0  0
  6  1  1  0  0  0
 15  8  1  0  0  0
M  END
> <minimizedAffinity>
35.77424

> <CNNscore>
0.4325161874

> <CNNaffinity>
6.2900781631

> <CNN_VS>
2.7205605507

> <CNNaffinity_variance>
1.2503163815

$$$$
[H]c1c([H])c([H])c(-c2c([H])c([H])c(C([H])([H])Sc3nnc(-c4c([H])c([H])c5c(c4[H])O[C@@]([H])(C([H])([H])OC([H])([H])[H])C([H])([H])O5)o3)c([H])c2[H])c(C#N)c1[H]


 34 38  0  0  0  0  0  0  0  0999 V2000
   14.4654   24.5875   -1.0708 C   0  0  0  0  0  0  0  0  0  0  0  0
   14.0878   24.9521    0.1536 N   0  0  0  0  0  0  0  0  0  0  0  0
   14.5466   24.0626    1.0069 N   0  0  0  0  0  0  0  0  0  0  0  0
   15.2174   23.1303    0.3253 C   0  0  0  0  0  0  0  0  0  0  0  0
   15.1389   23.4991   -0.9561 O   0  0  0  0  0  0  0  0  0  0  0  0
   15.3315   26.7238   -6.7400 C   0  0  0  0  0  0  0  0  0  0  0  0
   13.8362   26.8334   -7.0004 C   0  0  0  0  0  0  0  0  0  0  0  0
   13.2583   27.3839   -5.8008 O   0  0  0  0  0  0  0  0  0  0  0  0
   13.5344   26.7092   -4.6249 C   0  0  0  0  0  0  0  0  0  0  0  0
   12.7523   26.9022   -3.4819 C   0  0  0  0  0  0  0  0  0  0  0  0
   13.0881   26.1944   -2.3463 C   0  0  0  0  0  0  0  0  0  0  0  0
   14.1505   25.3215   -2.3091 C   0  0  0  0  0  0  0  0  0  0  0  0
   14.8961   25.1507   -3.4324 C   0  0  0  0  0  0  0  0  0  0  0  0
   14.6032   25.8387   -4.6073 C   0  0  0  0  0  0  0  0  0  0  0  0
   15.3795   25.6464   -5.7406 O   0  0  0  0  0  0  0  0  0  0  0  0
   16.1167   26.2805   -7.9250 C   0  0  0  0  0  0  0  0  0  0  0  0
   16.8222   24.0692   -7.4521 C   0  0  0  0  0  0  0  0  0  0  0  0
   17.0421   25.3344   -7.8297 O   0  0  0  0  0  0  0  0  0  0  0  0
   16.0449   21.6976    0.9607 S   0  0  0  0  0  0  0  0  0  0  0  0
   15.1259   20.1682    0.7582 C   0  0  0  0  0  0  0  0  0  0  0  0
   13.6675   20.3791    0.6610 C   0  0  0  0  0  0  0  0  0  0  0  0
   13.1168   20.5885   -0.6032 C   0  0  0  0  0  0  0  0  0  0  0  0
   11.7660   20.8118   -0.7490 C   0  0  0  0  0  0  0  0  0  0  0  0
   10.9040   20.8401    0.3174 C   0  0  0  0  0  0  0  0  0  0  0  0
   11.4552   20.6326    1.5664 C   0  0  0  0  0  0  0  0  0  0  0  0
   12.8127   20.4081    1.7184 C   0  0  0  0  0  0  0  0  0  0  0  0
    9.4699   21.0610    0.2161 C   0  0  0  0  0  0  0  0  0  0  0  0
    8.6416   20.0870   -0.3571 C   0  0  0  0  0  0  0  0  0  0  0  0
    7.2836   20.2732   -0.4486 C   0  0  0  0  0  0  0  0  0  0  0  0
    6.6715   21.4173    0.0144 C   0  0  0  0  0  0  0  0  0  0  0  0
    7.4715   22.3830    0.5795 C   0  0  0  0  0  0  0  0  0  0  0  0
    8.8547   22.1976    0.6745 C   0  0  0  0  0  0  0  0  0  0  0  0
    9.6512   23.2429    1.2604 C   0  0  0  0  0  0  0  0  0  0  0  0
   10.3138   24.0838    1.7179 N   0  0  0  0  0  0  0  0  0  0  0  0
 17 18  1  0  0  0
 18 16  1  0  0  0
 16  6  1  0  0  0
  6  7  1  0  0  0
  7  8  1  0  0  0
  8  9  1  0  0  0
  9 10  2  0  0  0
 10 11  1  0  0  0
 11 12  2  0  0  0
 12  1  1  0  0  0
  1  2  2  0  0  0
  2  3  1  0  0  0
  3  4  2  0  0  0
  4 19  1  0  0  0
 19 20  1  0  0  0
 20 21  1  0  0  0
 21 22  2  0  0  0
 22 23  1  0  0  0
 23 24  2  0  0  0
 24 27  1  0  0  0
 27 28  2  0  0  0
 28 29  1  0  0  0
 29 30  2  0  0  0
 30 31  1  0  0  0
 31 32  2  0  0  0
 32 33  1  0  0  0
 33 34  3  0  0  0
 24 25  1  0  0  0
 25 26  2  0  0  0
  4  5  1  0  0  0
 12 13  1  0  0  0
 13 14  2  0  0  0
 14 15  1  0  0  0
 15  6  1  0  0  0
 14  9  1  0  0  0
  5  1  1  0  0  0
 26 21  1  0  0  0
 32 27  1  0  0  0
M  END
> <minimizedAffinity>
-0.55476

> <CNNscore>
0.5905712247

> <CNNaffinity>
7.5146927834

> <CNN_VS>
4.4379611015

> <CNNaffinity_variance>
0.5768113732

$$$$
[H]c1c([H])c([H])c(-c2c([H])c([H])c(C([H])([H])Sc3nnc(-c4c([H])c([H])c5c(c4[H])O[C@@]([H])(C([H])([H])OC([H])([H])[H])C([H])([H])O5)o3)c([H])c2[H])c(C#N)c1[H]


 34 38  0  0  0  0  0  0  0  0999 V2000
   12.1526   25.6822   -2.4749 C   0  0  0  0  0  0  0  0  0  0  0  0
   11.7963   26.6763   -3.2871 N   0  0  0  0  0  0  0  0  0  0  0  0
   12.8726   27.1019   -3.9121 N   0  0  0  0  0  0  0  0  0  0  0  0
   13.9155   26.3780   -3.4975 C   0  0  0  0  0  0  0  0  0  0  0  0
   13.4193   25.5130   -2.6089 O   0  0  0  0  0  0  0  0  0  0  0  0
    9.7022   23.7524    2.7905 C   0  0  0  0  0  0  0  0  0  0  0  0
    8.3564   23.4689    2.1391 C   0  0  0  0  0  0  0  0  0  0  0  0
    8.6455   22.8348    0.8780 O   0  0  0  0  0  0  0  0  0  0  0  0
    9.4998   23.5195    0.0321 C   0  0  0  0  0  0  0  0  0  0  0  0
    9.5601   23.2168   -1.3317 C   0  0  0  0  0  0  0  0  0  0  0  0
   10.4359   23.9421   -2.1129 C   0  0  0  0  0  0  0  0  0  0  0  0
   11.2354   24.9351   -1.5964 C   0  0  0  0  0  0  0  0  0  0  0  0
   11.1593   25.2110   -0.2678 C   0  0  0  0  0  0  0  0  0  0  0  0
   10.2932   24.5111    0.5685 C   0  0  0  0  0  0  0  0  0  0  0  0
   10.2341   24.8122    1.9212 O   0  0  0  0  0  0  0  0  0  0  0  0
    9.5978   24.3045    4.1694 C   0  0  0  0  0  0  0  0  0  0  0  0
    8.3495   23.2961    5.9118 C   0  0  0  0  0  0  0  0  0  0  0  0
    8.4973   24.1543    4.8954 O   0  0  0  0  0  0  0  0  0  0  0  0
   15.6089   26.5153   -4.0022 S   0  0  0  0  0  0  0  0  0  0  0  0
   16.6890   25.2653   -3.2981 C   0  0  0  0  0  0  0  0  0  0  0  0
   15.9818   24.3300   -2.4004 C   0  0  0  0  0  0  0  0  0  0  0  0
   15.3493   23.2248   -2.9694 C   0  0  0  0  0  0  0  0  0  0  0  0
   14.6574   22.3328   -2.1810 C   0  0  0  0  0  0  0  0  0  0  0  0
   14.5534   22.4772   -0.8211 C   0  0  0  0  0  0  0  0  0  0  0  0
   15.1813   23.5735   -0.2637 C   0  0  0  0  0  0  0  0  0  0  0  0
   15.8778   24.4736   -1.0519 C   0  0  0  0  0  0  0  0  0  0  0  0
   13.8443   21.5590    0.0564 C   0  0  0  0  0  0  0  0  0  0  0  0
   12.4769   21.3155   -0.1287 C   0  0  0  0  0  0  0  0  0  0  0  0
   11.7946   20.4413    0.6820 C   0  0  0  0  0  0  0  0  0  0  0  0
   12.4142   19.7648    1.7098 C   0  0  0  0  0  0  0  0  0  0  0  0
   13.7564   19.9935    1.9043 C   0  0  0  0  0  0  0  0  0  0  0  0
   14.4551   20.8830    1.0812 C   0  0  0  0  0  0  0  0  0  0  0  0
   15.8549   21.1002    1.3335 C   0  0  0  0  0  0  0  0  0  0  0  0
   16.9844   21.2680    1.5611 N   0  0  0  0  0  0  0  0  0  0  0  0
 17 18  1  0  0  0
 18 16  1  0  0  0
 16  6  1  0  0  0
  6  7  1  0  0  0
  7  8  1  0  0  0
  8  9  1  0  0  0
  9 10  2  0  0  0
 10 11  1  0  0  0
 11 12  2  0  0  0
 12  1  1  0  0  0
  1  2  2  0  0  0
  2  3  1  0  0  0
  3  4  2  0  0  0
  4 19  1  0  0  0
 19 20  1  0  0  0
 20 21  1  0  0  0
 21 22  2  0  0  0
 22 23  1  0  0  0
 23 24  2  0  0  0
 24 27  1  0  0  0
 27 28  2  0  0  0
 28 29  1  0  0  0
 29 30  2  0  0  0
 30 31  1  0  0  0
 31 32  2  0  0  0
 32 33  1  0  0  0
 33 34  3  0  0  0
 24 25  1  0  0  0
 25 26  2  0  0  0
  4  5  1  0  0  0
 12 13  1  0  0  0
 13 14  2  0  0  0
 14 15  1  0  0  0
 15  6  1  0  0  0
 14  9  1  0  0  0
  5  1  1  0  0  0
 26 21  1  0  0  0
 32 27  1  0  0  0
M  END
> <minimizedAffinity>
0.27107

> <CNNscore>
0.5337153077

> <CNNaffinity>
7.1653733253

> <CNN_VS>
3.8242695332

> <CNNaffinity_variance>
0.4732866287

$$$$
[H]c1c([H])c([H])c(-c2c([H])c([H])c(C([H])([H])Sc3nnc(-c4c([H])c([H])c5c(c4[H])O[C@@]([H])(C([H])([H])OC([H])([H])[H])C([H])([H])O5)o3)c([H])c2[H])c(C#N)c1[H]


 34 38  0  0  0  0  0  0  0  0999 V2000
   14.3541   24.4035   -0.8886 C   0  0  0  0  0  0  0  0  0  0  0  0
   13.5073   24.6216    0.1165 N   0  0  0  0  0  0  0  0  0  0  0  0
   13.6529   23.6527    0.9939 N   0  0  0  0  0  0  0  0  0  0  0  0
   14.5936   22.8165    0.5473 C   0  0  0  0  0  0  0  0  0  0  0  0
   14.9971   23.3237   -0.6206 O   0  0  0  0  0  0  0  0  0  0  0  0
   16.9076   28.6046   -4.5332 C   0  0  0  0  0  0  0  0  0  0  0  0
   16.2738   28.0064   -5.7807 C   0  0  0  0  0  0  0  0  0  0  0  0
   14.9156   27.6819   -5.4258 O   0  0  0  0  0  0  0  0  0  0  0  0
   14.7515   26.8701   -4.3175 C   0  0  0  0  0  0  0  0  0  0  0  0
   13.5525   26.1857   -4.0960 C   0  0  0  0  0  0  0  0  0  0  0  0
   13.4627   25.3945   -2.9692 C   0  0  0  0  0  0  0  0  0  0  0  0
   14.5004   25.2638   -2.0759 C   0  0  0  0  0  0  0  0  0  0  0  0
   15.6559   25.9390   -2.3125 C   0  0  0  0  0  0  0  0  0  0  0  0
   15.8029   26.7519   -3.4337 C   0  0  0  0  0  0  0  0  0  0  0  0
   16.9927   27.4303   -3.6526 O   0  0  0  0  0  0  0  0  0  0  0  0
   18.2903   29.1140   -4.7473 C   0  0  0  0  0  0  0  0  0  0  0  0
   20.0659   27.8210   -3.8606 C   0  0  0  0  0  0  0  0  0  0  0  0
   19.2571   28.8875   -3.8672 O   0  0  0  0  0  0  0  0  0  0  0  0
   15.1972   21.3399    1.3198 S   0  0  0  0  0  0  0  0  0  0  0  0
   14.2453   19.8670    0.9337 C   0  0  0  0  0  0  0  0  0  0  0  0
   12.8065   20.1417    0.7462 C   0  0  0  0  0  0  0  0  0  0  0  0
   12.3463   20.3789   -0.5489 C   0  0  0  0  0  0  0  0  0  0  0  0
   11.0183   20.6615   -0.7780 C   0  0  0  0  0  0  0  0  0  0  0  0
   10.0928   20.7240    0.2322 C   0  0  0  0  0  0  0  0  0  0  0  0
   10.5545   20.4887    1.5121 C   0  0  0  0  0  0  0  0  0  0  0  0
   11.8888   20.2047    1.7479 C   0  0  0  0  0  0  0  0  0  0  0  0
    8.6789   21.0078    0.0423 C   0  0  0  0  0  0  0  0  0  0  0  0
    7.8458   20.0705   -0.5830 C   0  0  0  0  0  0  0  0  0  0  0  0
    6.5056   20.3162   -0.7584 C   0  0  0  0  0  0  0  0  0  0  0  0
    5.9169   21.4865   -0.3325 C   0  0  0  0  0  0  0  0  0  0  0  0
    6.7218   22.4167    0.2829 C   0  0  0  0  0  0  0  0  0  0  0  0
    8.0869   22.1707    0.4635 C   0  0  0  0  0  0  0  0  0  0  0  0
    8.8905   23.1806    1.0995 C   0  0  0  0  0  0  0  0  0  0  0  0
    9.5390   24.0119    1.5936 N   0  0  0  0  0  0  0  0  0  0  0  0
 17 18  1  0  0  0
 18 16  1  0  0  0
 16  6  1  0  0  0
  6  7  1  0  0  0
  7  8  1  0  0  0
  8  9  1  0  0  0
  9 10  2  0  0  0
 10 11  1  0  0  0
 11 12  2  0  0  0
 12  1  1  0  0  0
  1  2  2  0  0  0
  2  3  1  0  0  0
  3  4  2  0  0  0
  4 19  1  0  0  0
 19 20  1  0  0  0
 20 21  1  0  0  0
 21 22  2  0  0  0
 22 23  1  0  0  0
 23 24  2  0  0  0
 24 27  1  0  0  0
 27 28  2  0  0  0
 28 29  1  0  0  0
 29 30  2  0  0  0
 30 31  1  0  0  0
 31 32  2  0  0  0
 32 33  1  0  0  0
 33 34  3  0  0  0
 24 25  1  0  0  0
 25 26  2  0  0  0
  4  5  1  0  0  0
 12 13  1  0  0  0
 13 14  2  0  0  0
 14 15  1  0  0  0
 15  6  1  0  0  0
 14  9  1  0  0  0
  5  1  1  0  0  0
 26 21  1  0  0  0
 32 27  1  0  0  0
M  END
> <minimizedAffinity>
-1.31310

> <CNNscore>
0.4831896722

> <CNNaffinity>
7.2859611511

> <CNN_VS>
3.5205011368

> <CNNaffinity_variance>
0.3382798135

$$$$
[H]c1c([H])c([H])c(-c2c([H])c([H])c(C([H])([H])Sc3nnc(-c4c([H])c([H])c5c(c4[H])O[C@@]([H])(C([H])([H])OC([H])([H])[H])C([H])([H])O5)o3)c([H])c2[H])c(C#N)c1[H]


 34 38  0  0  0  0  0  0  0  0999 V2000
   12.6598   26.2300   -2.9680 C   0  0  0  0  0  0  0  0  0  0  0  0
   12.1537   27.3263   -3.5308 N   0  0  0  0  0  0  0  0  0  0  0  0
   12.8397   27.5813   -4.6236 N   0  0  0  0  0  0  0  0  0  0  0  0
   13.7840   26.6463   -4.7571 C   0  0  0  0  0  0  0  0  0  0  0  0
   13.6321   25.8330   -3.7085 O   0  0  0  0  0  0  0  0  0  0  0  0
    8.9181   22.9919    0.6330 C   0  0  0  0  0  0  0  0  0  0  0  0
   10.0370   22.6548    1.6077 C   0  0  0  0  0  0  0  0  0  0  0  0
   10.7952   23.8672    1.7848 O   0  0  0  0  0  0  0  0  0  0  0  0
   11.2715   24.4633    0.6308 C   0  0  0  0  0  0  0  0  0  0  0  0
   12.3103   25.3981    0.6778 C   0  0  0  0  0  0  0  0  0  0  0  0
   12.7325   25.9503   -0.5140 C   0  0  0  0  0  0  0  0  0  0  0  0
   12.1701   25.6127   -1.7229 C   0  0  0  0  0  0  0  0  0  0  0  0
   11.1616   24.7019   -1.7433 C   0  0  0  0  0  0  0  0  0  0  0  0
   10.6950   24.1120   -0.5712 C   0  0  0  0  0  0  0  0  0  0  0  0
    9.6646   23.1848   -0.6189 O   0  0  0  0  0  0  0  0  0  0  0  0
    7.9516   21.8795    0.4198 C   0  0  0  0  0  0  0  0  0  0  0  0
    8.6145   19.9910   -0.8471 C   0  0  0  0  0  0  0  0  0  0  0  0
    8.3565   20.6211    0.3052 O   0  0  0  0  0  0  0  0  0  0  0  0
   14.9947   26.4937   -6.0425 S   0  0  0  0  0  0  0  0  0  0  0  0
   16.1027   25.0943   -5.8456 C   0  0  0  0  0  0  0  0  0  0  0  0
   15.7902   24.2725   -4.6591 C   0  0  0  0  0  0  0  0  0  0  0  0
   16.0937   24.7929   -3.4011 C   0  0  0  0  0  0  0  0  0  0  0  0
   15.8434   24.0602   -2.2626 C   0  0  0  0  0  0  0  0  0  0  0  0
   15.2929   22.8045   -2.3000 C   0  0  0  0  0  0  0  0  0  0  0  0
   14.9951   22.2945   -3.5482 C   0  0  0  0  0  0  0  0  0  0  0  0
   15.2453   23.0270   -4.6960 C   0  0  0  0  0  0  0  0  0  0  0  0
   14.9993   21.9948   -1.1279 C   0  0  0  0  0  0  0  0  0  0  0  0
   14.5195   20.6863   -1.2726 C   0  0  0  0  0  0  0  0  0  0  0  0
   14.2499   19.9028   -0.1768 C   0  0  0  0  0  0  0  0  0  0  0  0
   14.4356   20.3594    1.1096 C   0  0  0  0  0  0  0  0  0  0  0  0
   14.9059   21.6422    1.2680 C   0  0  0  0  0  0  0  0  0  0  0  0
   15.1816   22.4434    0.1550 C   0  0  0  0  0  0  0  0  0  0  0  0
   15.6578   23.7837    0.3721 C   0  0  0  0  0  0  0  0  0  0  0  0
   16.0196   24.8766    0.5467 N   0  0  0  0  0  0  0  0  0  0  0  0
 17 18  1  0  0  0
 18 16  1  0  0  0
 16  6  1  0  0  0
  6  7  1  0  0  0
  7  8  1  0  0  0
  8  9  1  0  0  0
  9 10  2  0  0  0
 10 11  1  0  0  0
 11 12  2  0  0  0
 12  1  1  0  0  0
  1  2  2  0  0  0
  2  3  1  0  0  0
  3  4  2  0  0  0
  4 19  1  0  0  0
 19 20  1  0  0  0
 20 21  1  0  0  0
 21 22  2  0  0  0
 22 23  1  0  0  0
 23 24  2  0  0  0
 24 27  1  0  0  0
 27 28  2  0  0  0
 28 29  1  0  0  0
 29 30  2  0  0  0
 30 31  1  0  0  0
 31 32  2  0  0  0
 32 33  1  0  0  0
 33 34  3  0  0  0
 24 25  1  0  0  0
 25 26  2  0  0  0
  4  5  1  0  0  0
 12 13  1  0  0  0
 13 14  2  0  0  0
 14 15  1  0  0  0
 15  6  1  0  0  0
 14  9  1  0  0  0
  5  1  1  0  0  0
 26 21  1  0  0  0
 32 27  1  0  0  0
M  END
> <minimizedAffinity>
-3.67191

> <CNNscore>
0.4335204959

> <CNNaffinity>
7.3081321716

> <CNN_VS>
3.1682250500

> <CNNaffinity_variance>
0.1213193908

$$$$
[H]c1c([H])c([H])c(-c2c([H])c([H])c(C([H])([H])Sc3nnc(-c4c([H])c([H])c5c(c4[H])O[C@@]([H])(C([H])([H])OC([H])([H])[H])C([H])([H])O5)o3)c([H])c2[H])c(C#N)c1[H]


 34 38  0  0  0  0  0  0  0  0999 V2000
   12.3570   20.9561   -1.0991 C   0  0  0  0  0  0  0  0  0  0  0  0
   12.4771   19.7362   -1.6208 N   0  0  0  0  0  0  0  0  0  0  0  0
   11.3901   19.0556   -1.3288 N   0  0  0  0  0  0  0  0  0  0  0  0
   10.5766   19.8430   -0.6203 C   0  0  0  0  0  0  0  0  0  0  0  0
   11.2190   21.0083   -0.5045 O   0  0  0  0  0  0  0  0  0  0  0  0
   15.3123   26.0931    0.4273 C   0  0  0  0  0  0  0  0  0  0  0  0
   16.5992   25.6323   -0.2416 C   0  0  0  0  0  0  0  0  0  0  0  0
   16.2103   25.0359   -1.4942 O   0  0  0  0  0  0  0  0  0  0  0  0
   15.2691   24.0244   -1.4226 C   0  0  0  0  0  0  0  0  0  0  0  0
   15.0919   23.1278   -2.4809 C   0  0  0  0  0  0  0  0  0  0  0  0
   14.1344   22.1450   -2.3372 C   0  0  0  0  0  0  0  0  0  0  0  0
   13.3648   22.0259   -1.2035 C   0  0  0  0  0  0  0  0  0  0  0  0
   13.5551   22.9091   -0.1882 C   0  0  0  0  0  0  0  0  0  0  0  0
   14.5074   23.9213   -0.2782 C   0  0  0  0  0  0  0  0  0  0  0  0
   14.6825   24.8101    0.7722 O   0  0  0  0  0  0  0  0  0  0  0  0
   15.5297   26.8479    1.6923 C   0  0  0  0  0  0  0  0  0  0  0  0
   13.3894   27.7328    2.1891 C   0  0  0  0  0  0  0  0  0  0  0  0
   14.5290   27.1147    2.5218 O   0  0  0  0  0  0  0  0  0  0  0  0
    8.9790   19.4503    0.0391 S   0  0  0  0  0  0  0  0  0  0  0  0
    7.7264   20.6972   -0.2787 C   0  0  0  0  0  0  0  0  0  0  0  0
    7.6511   21.7234    0.7805 C   0  0  0  0  0  0  0  0  0  0  0  0
    8.3949   22.8919    0.6173 C   0  0  0  0  0  0  0  0  0  0  0  0
    8.3782   23.8720    1.5842 C   0  0  0  0  0  0  0  0  0  0  0  0
    7.6448   23.7575    2.7375 C   0  0  0  0  0  0  0  0  0  0  0  0
    6.9109   22.5983    2.8936 C   0  0  0  0  0  0  0  0  0  0  0  0
    6.9247   21.6097    1.9247 C   0  0  0  0  0  0  0  0  0  0  0  0
    7.5849   24.7668    3.7832 C   0  0  0  0  0  0  0  0  0  0  0  0
    6.8197   25.9271    3.6052 C   0  0  0  0  0  0  0  0  0  0  0  0
    6.7409   26.8842    4.5874 C   0  0  0  0  0  0  0  0  0  0  0  0
    7.4044   26.7538    5.7877 C   0  0  0  0  0  0  0  0  0  0  0  0
    8.1600   25.6202    5.9774 C   0  0  0  0  0  0  0  0  0  0  0  0
    8.2431   24.6432    4.9798 C   0  0  0  0  0  0  0  0  0  0  0  0
    9.0580   23.4818    5.2192 C   0  0  0  0  0  0  0  0  0  0  0  0
    9.7312   22.5477    5.3929 N   0  0  0  0  0  0  0  0  0  0  0  0
 17 18  1  0  0  0
 18 16  1  0  0  0
 16  6  1  0  0  0
  6  7  1  0  0  0
  7  8  1  0  0  0
  8  9  1  0  0  0
  9 10  2  0  0  0
 10 11  1  0  0  0
 11 12  2  0  0  0
 12  1  1  0  0  0
  1  2  2  0  0  0
  2  3  1  0  0  0
  3  4  2  0  0  0
  4 19  1  0  0  0
 19 20  1  0  0  0
 20 21  1  0  0  0
 21 22  2  0  0  0
 22 23  1  0  0  0
 23 24  2  0  0  0
 24 27  1  0  0  0
 27 28  2  0  0  0
 28 29  1  0  0  0
 29 30  2  0  0  0
 30 31  1  0  0  0
 31 32  2  0  0  0
 32 33  1  0  0  0
 33 34  3  0  0  0
 24 25  1  0  0  0
 25 26  2  0  0  0
  4  5  1  0  0  0
 12 13  1  0  0  0
 13 14  2  0  0  0
 14 15  1  0  0  0
 15  6  1  0  0  0
 14  9  1  0  0  0
  5  1  1  0  0  0
 26 21  1  0  0  0
 32 27  1  0  0  0
M  END
> <minimizedAffinity>
4.10857

> <CNNscore>
0.4063072801

> <CNNaffinity>
6.6948113441

> <CNN_VS>
2.7201504707

> <CNNaffinity_variance>
1.1834046841

$$$$
[H]c1c([H])c([H])c(-c2c([H])c([H])c(C([H])([H])Sc3nnc(-c4c([H])c([H])c5c(c4[H])O[C@@]([H])(C([H])([H])OC([H])([H])[H])C([H])([H])O5)o3)c([H])c2[H])c(C#N)c1[H]


 34 38  0  0  0  0  0  0  0  0999 V2000
   12.6796   25.9683   -2.6224 C   0  0  0  0  0  0  0  0  0  0  0  0
   12.3092   27.0828   -3.2514 N   0  0  0  0  0  0  0  0  0  0  0  0
   13.0598   27.2186   -4.3229 N   0  0  0  0  0  0  0  0  0  0  0  0
   13.9093   26.1895   -4.3765 C   0  0  0  0  0  0  0  0  0  0  0  0
   13.6350   25.4436   -3.3029 O   0  0  0  0  0  0  0  0  0  0  0  0
    8.4664   23.3363    0.9518 C   0  0  0  0  0  0  0  0  0  0  0  0
    9.5065   22.9023    1.9744 C   0  0  0  0  0  0  0  0  0  0  0  0
   10.4007   24.0202    2.1380 O   0  0  0  0  0  0  0  0  0  0  0  0
   10.9802   24.5127    0.9822 C   0  0  0  0  0  0  0  0  0  0  0  0
   12.1230   25.3167    1.0343 C   0  0  0  0  0  0  0  0  0  0  0  0
   12.6445   25.7707   -0.1596 C   0  0  0  0  0  0  0  0  0  0  0  0
   12.0815   25.4598   -1.3754 C   0  0  0  0  0  0  0  0  0  0  0  0
   10.9710   24.6768   -1.4007 C   0  0  0  0  0  0  0  0  0  0  0  0
   10.4014   24.1901   -0.2268 C   0  0  0  0  0  0  0  0  0  0  0  0
    9.2679   23.3925   -0.2796 O   0  0  0  0  0  0  0  0  0  0  0  0
    7.3788   22.3413    0.7418 C   0  0  0  0  0  0  0  0  0  0  0  0
    6.1552   20.7883    2.0464 C   0  0  0  0  0  0  0  0  0  0  0  0
    6.5273   22.0294    1.7105 O   0  0  0  0  0  0  0  0  0  0  0  0
   15.1479   25.8593   -5.6005 S   0  0  0  0  0  0  0  0  0  0  0  0
   16.0969   24.3645   -5.3007 C   0  0  0  0  0  0  0  0  0  0  0  0
   15.6660   23.6401   -4.0881 C   0  0  0  0  0  0  0  0  0  0  0  0
   15.0714   22.3885   -4.2472 C   0  0  0  0  0  0  0  0  0  0  0  0
   14.6314   21.6794   -3.1520 C   0  0  0  0  0  0  0  0  0  0  0  0
   14.7506   22.1531   -1.8704 C   0  0  0  0  0  0  0  0  0  0  0  0
   15.3397   23.3929   -1.7194 C   0  0  0  0  0  0  0  0  0  0  0  0
   15.7832   24.1101   -2.8173 C   0  0  0  0  0  0  0  0  0  0  0  0
   14.3124   21.4399   -0.6808 C   0  0  0  0  0  0  0  0  0  0  0  0
   15.2351   21.0820    0.3111 C   0  0  0  0  0  0  0  0  0  0  0  0
   14.8367   20.4202    1.4470 C   0  0  0  0  0  0  0  0  0  0  0  0
   13.5208   20.0773    1.6676 C   0  0  0  0  0  0  0  0  0  0  0  0
   12.6030   20.4216    0.7028 C   0  0  0  0  0  0  0  0  0  0  0  0
   13.0044   21.0953   -0.4555 C   0  0  0  0  0  0  0  0  0  0  0  0
   12.0096   21.4209   -1.4427 C   0  0  0  0  0  0  0  0  0  0  0  0
   11.1872   21.6732   -2.2274 N   0  0  0  0  0  0  0  0  0  0  0  0
 17 18  1  0  0  0
 18 16  1  0  0  0
 16  6  1  0  0  0
  6  7  1  0  0  0
  7  8  1  0  0  0
  8  9  1  0  0  0
  9 10  2  0  0  0
 10 11  1  0  0  0
 11 12  2  0  0  0
 12  1  1  0  0  0
  1  2  2  0  0  0
  2  3  1  0  0  0
  3  4  2  0  0  0
  4 19  1  0  0  0
 19 20  1  0  0  0
 20 21  1  0  0  0
 21 22  2  0  0  0
 22 23  1  0  0  0
 23 24  2  0  0  0
 24 27  1  0  0  0
 27 28  2  0  0  0
 28 29  1  0  0  0
 29 30  2  0  0  0
 30 31  1  0  0  0
 31 32  2  0  0  0
 32 33  1  0  0  0
 33 34  3  0  0  0
 24 25  1  0  0  0
 25 26  2  0  0  0
  4  5  1  0  0  0
 12 13  1  0  0  0
 13 14  2  0  0  0
 14 15  1  0  0  0
 15  6  1  0  0  0
 14  9  1  0  0  0
  5  1  1  0  0  0
 26 21  1  0  0  0
 32 27  1  0  0  0
M  END
> <minimizedAffinity>
-4.02259

> <CNNscore>
0.3994398713

> <CNNaffinity>
7.1792001724

> <CNN_VS>
2.8676588535

> <CNNaffinity_variance>
0.2511491179

$$$$
[H]c1c([H])c([H])c(-c2c([H])c([H])c(C([H])([H])Sc3nnc(-c4c([H])c([H])c5c(c4[H])O[C@@]([H])(C([H])([H])OC([H])([H])[H])C([H])([H])O5)o3)c([H])c2[H])c(C#N)c1[H]


 34 38  0  0  0  0  0  0  0  0999 V2000
   13.8884   22.0816   -1.4548 C   0  0  0  0  0  0  0  0  0  0  0  0
   13.8859   20.7904   -1.7829 N   0  0  0  0  0  0  0  0  0  0  0  0
   13.5855   20.0941   -0.7083 N   0  0  0  0  0  0  0  0  0  0  0  0
   13.3964   20.9427    0.3055 C   0  0  0  0  0  0  0  0  0  0  0  0
   13.5949   22.1604   -0.2062 O   0  0  0  0  0  0  0  0  0  0  0  0
   12.9620   27.3685   -4.3947 C   0  0  0  0  0  0  0  0  0  0  0  0
   14.4529   27.5949   -4.5986 C   0  0  0  0  0  0  0  0  0  0  0  0
   15.0048   26.3202   -4.9815 O   0  0  0  0  0  0  0  0  0  0  0  0
   14.7505   25.2631   -4.1259 C   0  0  0  0  0  0  0  0  0  0  0  0
   15.5202   24.0967   -4.1719 C   0  0  0  0  0  0  0  0  0  0  0  0
   15.2077   23.0850   -3.2874 C   0  0  0  0  0  0  0  0  0  0  0  0
   14.1796   23.1910   -2.3799 C   0  0  0  0  0  0  0  0  0  0  0  0
   13.4453   24.3342   -2.3542 C   0  0  0  0  0  0  0  0  0  0  0  0
   13.7159   25.3881   -3.2234 C   0  0  0  0  0  0  0  0  0  0  0  0
   12.9517   26.5448   -3.1769 O   0  0  0  0  0  0  0  0  0  0  0  0
   12.1989   28.6145   -4.1078 C   0  0  0  0  0  0  0  0  0  0  0  0
   10.2373   29.9033   -4.4275 C   0  0  0  0  0  0  0  0  0  0  0  0
   10.9487   28.7736   -4.5231 O   0  0  0  0  0  0  0  0  0  0  0  0
   12.9719   20.5612    1.9835 S   0  0  0  0  0  0  0  0  0  0  0  0
   11.2288   20.2132    2.2393 C   0  0  0  0  0  0  0  0  0  0  0  0
   10.4573   21.4018    2.6548 C   0  0  0  0  0  0  0  0  0  0  0  0
   10.7541   22.6225    2.0487 C   0  0  0  0  0  0  0  0  0  0  0  0
   10.0804   23.7664    2.4140 C   0  0  0  0  0  0  0  0  0  0  0  0
    9.1003   23.7703    3.3734 C   0  0  0  0  0  0  0  0  0  0  0  0
    8.8113   22.5590    3.9701 C   0  0  0  0  0  0  0  0  0  0  0  0
    9.4861   21.4061    3.6069 C   0  0  0  0  0  0  0  0  0  0  0  0
    8.3526   24.9474    3.7873 C   0  0  0  0  0  0  0  0  0  0  0  0
    8.9159   26.2244    3.6634 C   0  0  0  0  0  0  0  0  0  0  0  0
    8.2190   27.3479    4.0366 C   0  0  0  0  0  0  0  0  0  0  0  0
    6.9416   27.2775    4.5476 C   0  0  0  0  0  0  0  0  0  0  0  0
    6.3751   26.0307    4.6756 C   0  0  0  0  0  0  0  0  0  0  0  0
    7.0812   24.8840    4.2969 C   0  0  0  0  0  0  0  0  0  0  0  0
    6.4517   23.6010    4.4636 C   0  0  0  0  0  0  0  0  0  0  0  0
    5.9524   22.5610    4.6213 N   0  0  0  0  0  0  0  0  0  0  0  0
 17 18  1  0  0  0
 18 16  1  0  0  0
 16  6  1  0  0  0
  6  7  1  0  0  0
  7  8  1  0  0  0
  8  9  1  0  0  0
  9 10  2  0  0  0
 10 11  1  0  0  0
 11 12  2  0  0  0
 12  1  1  0  0  0
  1  2  2  0  0  0
  2  3  1  0  0  0
  3  4  2  0  0  0
  4 19  1  0  0  0
 19 20  1  0  0  0
 20 21  1  0  0  0
 21 22  2  0  0  0
 22 23  1  0  0  0
 23 24  2  0  0  0
 24 27  1  0  0  0
 27 28  2  0  0  0
 28 29  1  0  0  0
 29 30  2  0  0  0
 30 31  1  0  0  0
 31 32  2  0  0  0
 32 33  1  0  0  0
 33 34  3  0  0  0
 24 25  1  0  0  0
 25 26  2  0  0  0
  4  5  1  0  0  0
 12 13  1  0  0  0
 13 14  2  0  0  0
 14 15  1  0  0  0
 15  6  1  0  0  0
 14  9  1  0  0  0
  5  1  1  0  0  0
 26 21  1  0  0  0
 32 27  1  0  0  0
M  END
> <minimizedAffinity>
-2.56144

> <CNNscore>
0.3852863014

> <CNNaffinity>
6.7164611816

> <CNN_VS>
2.5877604485

> <CNNaffinity_variance>
0.5398988724

$$$$
[H]c1c([H])c([H])c(-c2c([H])c([H])c(C([H])([H])Sc3nnc(-c4c([H])c([H])c5c(c4[H])O[C@@]([H])(C([H])([H])OC([H])([H])[H])C([H])([H])O5)o3)c([H])c2[H])c(C#N)c1[H]


 34 38  0  0  0  0  0  0  0  0999 V2000
   14.3458   24.2500   -0.9207 C   0  0  0  0  0  0  0  0  0  0  0  0
   13.7907   24.5846    0.2432 N   0  0  0  0  0  0  0  0  0  0  0  0
   13.8413   23.5382    1.0384 N   0  0  0  0  0  0  0  0  0  0  0  0
   14.4295   22.5358    0.3803 C   0  0  0  0  0  0  0  0  0  0  0  0
   14.7234   23.0252   -0.8273 O   0  0  0  0  0  0  0  0  0  0  0  0
   16.9454   28.4615   -4.5205 C   0  0  0  0  0  0  0  0  0  0  0  0
   16.2349   27.9387   -5.7605 C   0  0  0  0  0  0  0  0  0  0  0  0
   14.8782   27.6634   -5.3608 O   0  0  0  0  0  0  0  0  0  0  0  0
   14.7208   26.8198   -4.2756 C   0  0  0  0  0  0  0  0  0  0  0  0
   13.5009   26.1828   -4.0282 C   0  0  0  0  0  0  0  0  0  0  0  0
   13.4193   25.3559   -2.9268 C   0  0  0  0  0  0  0  0  0  0  0  0
   14.4846   25.1456   -2.0826 C   0  0  0  0  0  0  0  0  0  0  0  0
   15.6600   25.7759   -2.3434 C   0  0  0  0  0  0  0  0  0  0  0  0
   15.7999   26.6217   -3.4409 C   0  0  0  0  0  0  0  0  0  0  0  0
   17.0105   27.2530   -3.6855 O   0  0  0  0  0  0  0  0  0  0  0  0
   18.3407   28.9151   -4.7741 C   0  0  0  0  0  0  0  0  0  0  0  0
   19.9501   27.6145   -3.6213 C   0  0  0  0  0  0  0  0  0  0  0  0
   19.2973   28.7565   -3.8683 O   0  0  0  0  0  0  0  0  0  0  0  0
   14.7615   20.8948    0.9617 S   0  0  0  0  0  0  0  0  0  0  0  0
   13.2950   19.8814    1.1783 C   0  0  0  0  0  0  0  0  0  0  0  0
   12.2204   20.5713    1.9200 C   0  0  0  0  0  0  0  0  0  0  0  0
   11.8952   20.1025    3.1927 C   0  0  0  0  0  0  0  0  0  0  0  0
   10.8868   20.6951    3.9193 C   0  0  0  0  0  0  0  0  0  0  0  0
   10.1610   21.7570    3.4433 C   0  0  0  0  0  0  0  0  0  0  0  0
   10.4874   22.2163    2.1826 C   0  0  0  0  0  0  0  0  0  0  0  0
   11.5000   21.6237    1.4478 C   0  0  0  0  0  0  0  0  0  0  0  0
    9.0949   22.4242    4.1740 C   0  0  0  0  0  0  0  0  0  0  0  0
    9.3896   23.2145    5.2929 C   0  0  0  0  0  0  0  0  0  0  0  0
    8.3967   23.8627    5.9867 C   0  0  0  0  0  0  0  0  0  0  0  0
    7.0717   23.7698    5.6213 C   0  0  0  0  0  0  0  0  0  0  0  0
    6.7664   22.9973    4.5250 C   0  0  0  0  0  0  0  0  0  0  0  0
    7.7742   22.3355    3.8158 C   0  0  0  0  0  0  0  0  0  0  0  0
    7.4035   21.5272    2.6846 C   0  0  0  0  0  0  0  0  0  0  0  0
    7.0936   20.8563    1.7848 N   0  0  0  0  0  0  0  0  0  0  0  0
 17 18  1  0  0  0
 18 16  1  0  0  0
 16  6  1  0  0  0
  6  7  1  0  0  0
  7  8  1  0  0  0
  8  9  1  0  0  0
  9 10  2  0  0  0
 10 11  1  0  0  0
 11 12  2  0  0  0
 12  1  1  0  0  0
  1  2  2  0  0  0
  2  3  1  0  0  0
  3  4  2  0  0  0
  4 19  1  0  0  0
 19 20  1  0  0  0
 20 21  1  0  0  0
 21 22  2  0  0  0
 22 23  1  0  0  0
 23 24  2  0  0  0
 24 27  1  0  0  0
 27 28  2  0  0  0
 28 29  1  0  0  0
 29 30  2  0  0  0
 30 31  1  0  0  0
 31 32  2  0  0  0
 32 33  1  0  0  0
 33 34  3  0  0  0
 24 25  1  0  0  0
 25 26  2  0  0  0
  4  5  1  0  0  0
 12 13  1  0  0  0
 13 14  2  0  0  0
 14 15  1  0  0  0
 15  6  1  0  0  0
 14  9  1  0  0  0
  5  1  1  0  0  0
 26 21  1  0  0  0
 32 27  1  0  0  0
M  END
> <minimizedAffinity>
-3.51903

> <CNNscore>
0.3843080699

> <CNNaffinity>
7.0248436928

> <CNN_VS>
2.6997041702

> <CNNaffinity_variance>
0.1964443773

$$$$
[H]c1c([H])c([H])c(-c2c([H])c([H])c(C([H])([H])Sc3nnc(-c4c([H])c([H])c5c(c4[H])O[C@@]([H])(C([H])([H])OC([H])([H])[H])C([H])([H])O5)o3)c([H])c2[H])c(C#N)c1[H]


 34 38  0  0  0  0  0  0  0  0999 V2000
   13.3269   23.3468   -1.2542 C   0  0  0  0  0  0  0  0  0  0  0  0
   14.0028   22.2007   -1.3192 N   0  0  0  0  0  0  0  0  0  0  0  0
   13.7035   21.4863   -0.2563 N   0  0  0  0  0  0  0  0  0  0  0  0
   12.8358   22.1782    0.4868 C   0  0  0  0  0  0  0  0  0  0  0  0
   12.6339   23.3222   -0.1723 O   0  0  0  0  0  0  0  0  0  0  0  0
   15.6363   26.6432   -5.8643 C   0  0  0  0  0  0  0  0  0  0  0  0
   14.2602   27.1274   -6.2975 C   0  0  0  0  0  0  0  0  0  0  0  0
   13.5509   27.4582   -5.0877 O   0  0  0  0  0  0  0  0  0  0  0  0
   13.4753   26.4605   -4.1322 C   0  0  0  0  0  0  0  0  0  0  0  0
   12.5226   26.5115   -3.1100 C   0  0  0  0  0  0  0  0  0  0  0  0
   12.5074   25.4804   -2.1935 C   0  0  0  0  0  0  0  0  0  0  0  0
   13.3869   24.4247   -2.2571 C   0  0  0  0  0  0  0  0  0  0  0  0
   14.3040   24.3972   -3.2596 C   0  0  0  0  0  0  0  0  0  0  0  0
   14.3653   25.4108   -4.2127 C   0  0  0  0  0  0  0  0  0  0  0  0
   15.3107   25.3592   -5.2263 O   0  0  0  0  0  0  0  0  0  0  0  0
   16.5602   26.3664   -6.9987 C   0  0  0  0  0  0  0  0  0  0  0  0
   17.0084   25.0562   -8.9206 C   0  0  0  0  0  0  0  0  0  0  0  0
   16.1836   25.6304   -8.0366 O   0  0  0  0  0  0  0  0  0  0  0  0
   12.0944   21.7032    2.0249 S   0  0  0  0  0  0  0  0  0  0  0  0
   10.4194   22.3098    2.2514 C   0  0  0  0  0  0  0  0  0  0  0  0
    9.4069   21.4793    1.5688 C   0  0  0  0  0  0  0  0  0  0  0  0
    9.7583   20.8749    0.3619 C   0  0  0  0  0  0  0  0  0  0  0  0
    8.8459   20.1078   -0.3273 C   0  0  0  0  0  0  0  0  0  0  0  0
    7.5678   19.8988    0.1242 C   0  0  0  0  0  0  0  0  0  0  0  0
    7.2258   20.5001    1.3193 C   0  0  0  0  0  0  0  0  0  0  0  0
    8.1392   21.2728    2.0158 C   0  0  0  0  0  0  0  0  0  0  0  0
    6.5709   19.0898   -0.5596 C   0  0  0  0  0  0  0  0  0  0  0  0
    6.6970   17.6948   -0.6003 C   0  0  0  0  0  0  0  0  0  0  0  0
    5.7580   16.9144   -1.2299 C   0  0  0  0  0  0  0  0  0  0  0  0
    4.6536   17.4584   -1.8483 C   0  0  0  0  0  0  0  0  0  0  0  0
    4.5160   18.8266   -1.8171 C   0  0  0  0  0  0  0  0  0  0  0  0
    5.4699   19.6250   -1.1773 C   0  0  0  0  0  0  0  0  0  0  0  0
    5.2897   21.0524   -1.1841 C   0  0  0  0  0  0  0  0  0  0  0  0
    5.1497   22.2082   -1.1653 N   0  0  0  0  0  0  0  0  0  0  0  0
 17 18  1  0  0  0
 18 16  1  0  0  0
 16  6  1  0  0  0
  6  7  1  0  0  0
  7  8  1  0  0  0
  8  9  1  0  0  0
  9 10  2  0  0  0
 10 11  1  0  0  0
 11 12  2  0  0  0
 12  1  1  0  0  0
  1  2  2  0  0  0
  2  3  1  0  0  0
  3  4  2  0  0  0
  4 19  1  0  0  0
 19 20  1  0  0  0
 20 21  1  0  0  0
 21 22  2  0  0  0
 22 23  1  0  0  0
 23 24  2  0  0  0
 24 27  1  0  0  0
 27 28  2  0  0  0
 28 29  1  0  0  0
 29 30  2  0  0  0
 30 31  1  0  0  0
 31 32  2  0  0  0
 32 33  1  0  0  0
 33 34  3  0  0  0
 24 25  1  0  0  0
 25 26  2  0  0  0
  4  5  1  0  0  0
 12 13  1  0  0  0
 13 14  2  0  0  0
 14 15  1  0  0  0
 15  6  1  0  0  0
 14  9  1  0  0  0
  5  1  1  0  0  0
 26 21  1  0  0  0
 32 27  1  0  0  0
M  END
> <minimizedAffinity>
-3.91943

> <CNNscore>
0.3832930624

> <CNNaffinity>
7.0325174332

> <CNN_VS>
2.6955151558

> <CNNaffinity_variance>
0.6126337647

$$$$
[H]c1c([H])c([H])c(C2([H])C([H])([H])[C@]2([H])N([H])C([H])([H])c2c([H])c([H])c(OC([H])([H])[H])c3c([H])c([H])c([H])c([H])c23)c([H])c1[H]


 24 27  0  0  0  0  0  0  0  0999 V2000
   15.3068   22.9845   -4.5073 C   0  0  0  0  0  0  0  0  0  0  0  0
   15.2236   23.5093   -5.7728 C   0  0  0  0  0  0  0  0  0  0  0  0
   15.2999   24.8742   -6.0129 C   0  0  0  0  0  0  0  0  0  0  0  0
   15.4638   25.7612   -4.9728 C   0  0  0  0  0  0  0  0  0  0  0  0
   15.5494   25.2356   -3.6821 C   0  0  0  0  0  0  0  0  0  0  0  0
   15.7138   26.1327   -2.6468 C   0  0  0  0  0  0  0  0  0  0  0  0
   15.7970   25.5953   -1.3724 C   0  0  0  0  0  0  0  0  0  0  0  0
   15.7220   24.2459   -1.1330 C   0  0  0  0  0  0  0  0  0  0  0  0
   15.5577   23.3618   -2.1769 C   0  0  0  0  0  0  0  0  0  0  0  0
   15.4713   23.8817   -3.4709 C   0  0  0  0  0  0  0  0  0  0  0  0
   14.6729   20.7505   -5.2560 C   0  0  0  0  0  0  0  0  0  0  0  0
   15.2291   21.6073   -4.2733 O   0  0  0  0  0  0  0  0  0  0  0  0
   15.5583   27.2293   -5.1930 C   0  0  0  0  0  0  0  0  0  0  0  0
   14.7246   27.8989   -4.2440 N   0  0  0  0  0  0  0  0  0  0  0  0
   15.0113   28.8949   -4.0737 H   0  0  0  0  0  0  0  0  0  0  0  0
   13.3176   27.7860   -4.5160 C   0  0  0  0  0  0  0  0  0  0  0  0
   12.5618   26.9939   -3.4428 C   0  0  0  0  0  0  0  0  0  0  0  0
   12.2758   28.4265   -3.6968 C   0  0  0  0  0  0  0  0  0  0  0  0
   11.0162   28.8006   -4.3820 C   0  0  0  0  0  0  0  0  0  0  0  0
   10.3698   27.9943   -5.2900 C   0  0  0  0  0  0  0  0  0  0  0  0
    9.2078   28.3624   -5.9094 C   0  0  0  0  0  0  0  0  0  0  0  0
    8.6391   29.5747   -5.6369 C   0  0  0  0  0  0  0  0  0  0  0  0
    9.2626   30.4057   -4.7312 C   0  0  0  0  0  0  0  0  0  0  0  0
   10.4380   30.0184   -4.1132 C   0  0  0  0  0  0  0  0  0  0  0  0
 11 12  1  0  0  0
 12  1  1  0  0  0
  1  2  2  0  0  0
  2  3  1  0  0  0
  3  4  2  0  0  0
  4 13  1  0  0  0
 13 14  1  0  0  0
 14 16  1  0  0  0
 16 17  1  0  0  0
 17 18  1  0  0  0
 18 19  1  0  0  0
 19 20  2  0  0  0
 20 21  1  0  0  0
 21 22  2  0  0  0
 22 23  1  0  0  0
 23 24  2  0  0  0
  4  5  1  0  0  0
  5  6  2  0  0  0
  6  7  1  0  0  0
  7  8  2  0  0  0
  8  9  1  0  0  0
  9 10  2  0  0  0
 10  1  1  0  0  0
 18 16  1  0  0  0
 24 19  1  0  0  0
 10  5  1  0  0  0
 14 15  1  0  0  0
M  END
> <minimizedAffinity>
13.73384

> <CNNscore>
0.4582984746

> <CNNaffinity>
5.7096157074

> <CNN_VS>
2.6167082787

> <CNNaffinity_variance>
0.4244281650

$$$$
[H]c1c([H])c([H])c(C2([H])C([H])([H])[C@]2([H])N([H])C([H])([H])c2c([H])c([H])c(OC([H])([H])[H])c3c([H])c([H])c([H])c([H])c23)c([H])c1[H]


 24 27  0  0  0  0  0  0  0  0999 V2000
   14.9456   25.7557   -3.1615 C   0  0  0  0  0  0  0  0  0  0  0  0
   13.7546   26.0477   -3.7781 C   0  0  0  0  0  0  0  0  0  0  0  0
   12.5344   25.9077   -3.1316 C   0  0  0  0  0  0  0  0  0  0  0  0
   12.4773   25.4637   -1.8296 C   0  0  0  0  0  0  0  0  0  0  0  0
   13.6844   25.1645   -1.1949 C   0  0  0  0  0  0  0  0  0  0  0  0
   13.6165   24.7207    0.1097 C   0  0  0  0  0  0  0  0  0  0  0  0
   14.8229   24.4281    0.7252 C   0  0  0  0  0  0  0  0  0  0  0  0
   16.0305   24.5661    0.0878 C   0  0  0  0  0  0  0  0  0  0  0  0
   16.0829   25.0104   -1.2154 C   0  0  0  0  0  0  0  0  0  0  0  0
   14.8783   25.3115   -1.8560 C   0  0  0  0  0  0  0  0  0  0  0  0
   16.7461   27.1857   -3.9779 C   0  0  0  0  0  0  0  0  0  0  0  0
   16.1717   25.8995   -3.8198 O   0  0  0  0  0  0  0  0  0  0  0  0
   11.1889   25.3099   -1.1024 C   0  0  0  0  0  0  0  0  0  0  0  0
   10.5790   24.0756   -1.4880 N   0  0  0  0  0  0  0  0  0  0  0  0
   10.4850   23.9696   -2.5288 H   0  0  0  0  0  0  0  0  0  0  0  0
   11.1713   22.9139   -0.8831 C   0  0  0  0  0  0  0  0  0  0  0  0
   10.7475   21.6048   -1.5592 C   0  0  0  0  0  0  0  0  0  0  0  0
   12.1594   22.0579   -1.5595 C   0  0  0  0  0  0  0  0  0  0  0  0
   13.1426   21.3568   -0.7005 C   0  0  0  0  0  0  0  0  0  0  0  0
   14.4035   20.9970   -1.1164 C   0  0  0  0  0  0  0  0  0  0  0  0
   15.2932   20.3502   -0.3041 C   0  0  0  0  0  0  0  0  0  0  0  0
   14.9464   20.0340    0.9792 C   0  0  0  0  0  0  0  0  0  0  0  0
   13.6896   20.3811    1.4261 C   0  0  0  0  0  0  0  0  0  0  0  0
   12.8011   21.0353    0.5917 C   0  0  0  0  0  0  0  0  0  0  0  0
 11 12  1  0  0  0
 12  1  1  0  0  0
  1  2  2  0  0  0
  2  3  1  0  0  0
  3  4  2  0  0  0
  4 13  1  0  0  0
 13 14  1  0  0  0
 14 16  1  0  0  0
 16 17  1  0  0  0
 17 18  1  0  0  0
 18 19  1  0  0  0
 19 20  2  0  0  0
 20 21  1  0  0  0
 21 22  2  0  0  0
 22 23  1  0  0  0
 23 24  2  0  0  0
  4  5  1  0  0  0
  5  6  2  0  0  0
  6  7  1  0  0  0
  7  8  2  0  0  0
  8  9  1  0  0  0
  9 10  2  0  0  0
 10  1  1  0  0  0
 18 16  1  0  0  0
 24 19  1  0  0  0
 10  5  1  0  0  0
 14 15  1  0  0  0
M  END
> <minimizedAffinity>
-5.55796

> <CNNscore>
0.4109186530

> <CNNaffinity>
6.6117043495

> <CNN_VS>
2.7168726921

> <CNNaffinity_variance>
0.0795067400

$$$$
[H]c1c([H])c([H])c(C2([H])C([H])([H])[C@]2([H])N([H])C([H])([H])c2c([H])c([H])c(OC([H])([H])[H])c3c([H])c([H])c([H])c([H])c23)c([H])c1[H]


 24 27  0  0  0  0  0  0  0  0999 V2000
   13.9436   21.6476   -1.2758 C   0  0  0  0  0  0  0  0  0  0  0  0
   14.6409   22.8023   -1.0224 C   0  0  0  0  0  0  0  0  0  0  0  0
   14.0147   23.9640   -0.5927 C   0  0  0  0  0  0  0  0  0  0  0  0
   12.6513   23.9973   -0.4038 C   0  0  0  0  0  0  0  0  0  0  0  0
   11.9344   22.8268   -0.6593 C   0  0  0  0  0  0  0  0  0  0  0  0
   10.5688   22.8702   -0.4668 C   0  0  0  0  0  0  0  0  0  0  0  0
    9.8720   21.7007   -0.7246 C   0  0  0  0  0  0  0  0  0  0  0  0
   10.4894   20.5509   -1.1494 C   0  0  0  0  0  0  0  0  0  0  0  0
   11.8541   20.5222   -1.3374 C   0  0  0  0  0  0  0  0  0  0  0  0
   12.5771   21.6905   -1.0834 C   0  0  0  0  0  0  0  0  0  0  0  0
   14.4759   19.2892   -0.9477 C   0  0  0  0  0  0  0  0  0  0  0  0
   14.5820   20.4803   -1.7087 O   0  0  0  0  0  0  0  0  0  0  0  0
   11.9474   25.2213    0.0640 C   0  0  0  0  0  0  0  0  0  0  0  0
   12.1914   26.2834   -0.8615 N   0  0  0  0  0  0  0  0  0  0  0  0
   12.7582   27.0664   -0.4506 H   0  0  0  0  0  0  0  0  0  0  0  0
   12.7165   25.8498   -2.1274 C   0  0  0  0  0  0  0  0  0  0  0  0
   11.6938   25.9481   -3.2654 C   0  0  0  0  0  0  0  0  0  0  0  0
   12.9396   26.7523   -3.2687 C   0  0  0  0  0  0  0  0  0  0  0  0
   14.0280   26.3929   -4.2080 C   0  0  0  0  0  0  0  0  0  0  0  0
   14.6842   25.1840   -4.1932 C   0  0  0  0  0  0  0  0  0  0  0  0
   15.6861   24.8760   -5.0712 C   0  0  0  0  0  0  0  0  0  0  0  0
   16.0752   25.7847   -6.0146 C   0  0  0  0  0  0  0  0  0  0  0  0
   15.4370   27.0056   -6.0554 C   0  0  0  0  0  0  0  0  0  0  0  0
   14.4251   27.3017   -5.1599 C   0  0  0  0  0  0  0  0  0  0  0  0
 11 12  1  0  0  0
 12  1  1  0  0  0
  1  2  2  0  0  0
  2  3  1  0  0  0
  3  4  2  0  0  0
  4 13  1  0  0  0
 13 14  1  0  0  0
 14 16  1  0  0  0
 16 17  1  0  0  0
 17 18  1  0  0  0
 18 19  1  0  0  0
 19 20  2  0  0  0
 20 21  1  0  0  0
 21 22  2  0  0  0
 22 23  1  0  0  0
 23 24  2  0  0  0
  4  5  1  0  0  0
  5  6  2  0  0  0
  6  7  1  0  0  0
  7  8  2  0  0  0
  8  9  1  0  0  0
  9 10  2  0  0  0
 10  1  1  0  0  0
 18 16  1  0  0  0
 24 19  1  0  0  0
 10  5  1  0  0  0
 14 15  1  0  0  0
M  END
> <minimizedAffinity>
-0.56857

> <CNNscore>
0.4058080614

> <CNNaffinity>
6.3892087936

> <CNN_VS>
2.5927925110

> <CNNaffinity_variance>
0.5889364481

$$$$
[H]c1c([H])c([H])c(C2([H])C([H])([H])[C@]2([H])N([H])C([H])([H])c2c([H])c([H])c(OC([H])([H])[H])c3c([H])c([H])c([H])c([H])c23)c([H])c1[H]


 24 27  0  0  0  0  0  0  0  0999 V2000
   13.7712   26.1150   -3.9399 C   0  0  0  0  0  0  0  0  0  0  0  0
   12.4889   26.3197   -3.4955 C   0  0  0  0  0  0  0  0  0  0  0  0
   12.0737   25.9257   -2.2311 C   0  0  0  0  0  0  0  0  0  0  0  0
   12.9483   25.3061   -1.3670 C   0  0  0  0  0  0  0  0  0  0  0  0
   14.2549   25.0940   -1.8113 C   0  0  0  0  0  0  0  0  0  0  0  0
   15.1237   24.4727   -0.9380 C   0  0  0  0  0  0  0  0  0  0  0  0
   16.4163   24.2697   -1.3939 C   0  0  0  0  0  0  0  0  0  0  0  0
   16.8288   24.6587   -2.6437 C   0  0  0  0  0  0  0  0  0  0  0  0
   15.9500   25.2783   -3.5053 C   0  0  0  0  0  0  0  0  0  0  0  0
   14.6410   25.4932   -3.0665 C   0  0  0  0  0  0  0  0  0  0  0  0
   15.4477   27.1286   -5.3944 C   0  0  0  0  0  0  0  0  0  0  0  0
   14.1824   26.5152   -5.2161 O   0  0  0  0  0  0  0  0  0  0  0  0
   12.5412   24.8781   -0.0019 C   0  0  0  0  0  0  0  0  0  0  0  0
   12.8480   23.4916    0.1642 N   0  0  0  0  0  0  0  0  0  0  0  0
   13.1971   23.2590    1.1271 H   0  0  0  0  0  0  0  0  0  0  0  0
   11.7972   22.6038   -0.2530 C   0  0  0  0  0  0  0  0  0  0  0  0
   12.1547   21.1244   -0.0687 C   0  0  0  0  0  0  0  0  0  0  0  0
   11.0351   21.7515    0.6741 C   0  0  0  0  0  0  0  0  0  0  0  0
    9.6415   21.4212    0.2933 C   0  0  0  0  0  0  0  0  0  0  0  0
    9.3040   20.4028   -0.5678 C   0  0  0  0  0  0  0  0  0  0  0  0
    8.0097   20.1176   -0.9038 C   0  0  0  0  0  0  0  0  0  0  0  0
    6.9860   20.8556   -0.3798 C   0  0  0  0  0  0  0  0  0  0  0  0
    7.2915   21.8833    0.4864 C   0  0  0  0  0  0  0  0  0  0  0  0
    8.6063   22.1590    0.8163 C   0  0  0  0  0  0  0  0  0  0  0  0
 11 12  1  0  0  0
 12  1  1  0  0  0
  1  2  2  0  0  0
  2  3  1  0  0  0
  3  4  2  0  0  0
  4 13  1  0  0  0
 13 14  1  0  0  0
 14 16  1  0  0  0
 16 17  1  0  0  0
 17 18  1  0  0  0
 18 19  1  0  0  0
 19 20  2  0  0  0
 20 21  1  0  0  0
 21 22  2  0  0  0
 22 23  1  0  0  0
 23 24  2  0  0  0
  4  5  1  0  0  0
  5  6  2  0  0  0
  6  7  1  0  0  0
  7  8  2  0  0  0
  8  9  1  0  0  0
  9 10  2  0  0  0
 10  1  1  0  0  0
 18 16  1  0  0  0
 24 19  1  0  0  0
 10  5  1  0  0  0
 14 15  1  0  0  0
M  END
> <minimizedAffinity>
-5.85273

> <CNNscore>
0.4044995010

> <CNNaffinity>
6.1740336418

> <CNN_VS>
2.4973936081

> <CNNaffinity_variance>
0.2236800641

$$$$
[H]c1c([H])c([H])c(C2([H])C([H])([H])[C@]2([H])N([H])C([H])([H])c2c([H])c([H])c(OC([H])([H])[H])c3c([H])c([H])c([H])c([H])c23)c([H])c1[H]


 24 27  0  0  0  0  0  0  0  0999 V2000
   15.2864   22.7573   -2.2941 C   0  0  0  0  0  0  0  0  0  0  0  0
   14.7696   22.4732   -3.5335 C   0  0  0  0  0  0  0  0  0  0  0  0
   14.8093   23.3868   -4.5775 C   0  0  0  0  0  0  0  0  0  0  0  0
   15.3773   24.6286   -4.4016 C   0  0  0  0  0  0  0  0  0  0  0  0
   15.9055   24.9258   -3.1438 C   0  0  0  0  0  0  0  0  0  0  0  0
   16.4727   26.1725   -2.9777 C   0  0  0  0  0  0  0  0  0  0  0  0
   16.9923   26.4518   -1.7240 C   0  0  0  0  0  0  0  0  0  0  0  0
   16.9541   25.5496   -0.6905 C   0  0  0  0  0  0  0  0  0  0  0  0
   16.3844   24.3080   -0.8708 C   0  0  0  0  0  0  0  0  0  0  0  0
   15.8540   24.0047   -2.1274 C   0  0  0  0  0  0  0  0  0  0  0  0
   14.0152   21.2164   -0.8931 C   0  0  0  0  0  0  0  0  0  0  0  0
   15.2427   21.8308   -1.2466 O   0  0  0  0  0  0  0  0  0  0  0  0
   15.4455   25.6297   -5.4997 C   0  0  0  0  0  0  0  0  0  0  0  0
   14.8787   26.8611   -5.0454 N   0  0  0  0  0  0  0  0  0  0  0  0
   14.3607   27.3791   -5.7981 H   0  0  0  0  0  0  0  0  0  0  0  0
   14.0979   26.7403   -3.8445 C   0  0  0  0  0  0  0  0  0  0  0  0
   12.7481   27.4619   -3.9327 C   0  0  0  0  0  0  0  0  0  0  0  0
   12.8334   25.9908   -3.7673 C   0  0  0  0  0  0  0  0  0  0  0  0
   12.4859   25.3904   -2.4578 C   0  0  0  0  0  0  0  0  0  0  0  0
   11.4094   24.5574   -2.2589 C   0  0  0  0  0  0  0  0  0  0  0  0
   11.1095   24.0155   -1.0399 C   0  0  0  0  0  0  0  0  0  0  0  0
   11.8915   24.2931    0.0457 C   0  0  0  0  0  0  0  0  0  0  0  0
   12.9780   25.1247   -0.1210 C   0  0  0  0  0  0  0  0  0  0  0  0
   13.2679   25.6649   -1.3610 C   0  0  0  0  0  0  0  0  0  0  0  0
 11 12  1  0  0  0
 12  1  1  0  0  0
  1  2  2  0  0  0
  2  3  1  0  0  0
  3  4  2  0  0  0
  4 13  1  0  0  0
 13 14  1  0  0  0
 14 16  1  0  0  0
 16 17  1  0  0  0
 17 18  1  0  0  0
 18 19  1  0  0  0
 19 20  2  0  0  0
 20 21  1  0  0  0
 21 22  2  0  0  0
 22 23  1  0  0  0
 23 24  2  0  0  0
  4  5  1  0  0  0
  5  6  2  0  0  0
  6  7  1  0  0  0
  7  8  2  0  0  0
  8  9  1  0  0  0
  9 10  2  0  0  0
 10  1  1  0  0  0
 18 16  1  0  0  0
 24 19  1  0  0  0
 10  5  1  0  0  0
 14 15  1  0  0  0
M  END
> <minimizedAffinity>
-3.24054

> <CNNscore>
0.3506065309

> <CNNaffinity>
6.3307480812

> <CNN_VS>
2.2196016312

> <CNNaffinity_variance>
0.2576252818

$$$$
[H]c1c([H])c([H])c(C2([H])C([H])([H])[C@]2([H])N([H])C([H])([H])c2c([H])c([H])c(OC([H])([H])[H])c3c([H])c([H])c([H])c([H])c23)c([H])c1[H]


 24 27  0  0  0  0  0  0  0  0999 V2000
   14.5359   24.4214    0.3474 C   0  0  0  0  0  0  0  0  0  0  0  0
   15.4450   24.4971   -0.6782 C   0  0  0  0  0  0  0  0  0  0  0  0
   15.5565   23.5038   -1.6411 C   0  0  0  0  0  0  0  0  0  0  0  0
   14.7462   22.3915   -1.5986 C   0  0  0  0  0  0  0  0  0  0  0  0
   13.8186   22.3066   -0.5585 C   0  0  0  0  0  0  0  0  0  0  0  0
   13.0112   21.1883   -0.5248 C   0  0  0  0  0  0  0  0  0  0  0  0
   12.0962   21.1193    0.5134 C   0  0  0  0  0  0  0  0  0  0  0  0
   11.9842   22.1005    1.4664 C   0  0  0  0  0  0  0  0  0  0  0  0
   12.7974   23.2119    1.4201 C   0  0  0  0  0  0  0  0  0  0  0  0
   13.7278   23.3026    0.3816 C   0  0  0  0  0  0  0  0  0  0  0  0
   15.5701   26.1859    1.6780 C   0  0  0  0  0  0  0  0  0  0  0  0
   14.4294   25.4270    1.3144 O   0  0  0  0  0  0  0  0  0  0  0  0
   14.8315   21.3116   -2.6179 C   0  0  0  0  0  0  0  0  0  0  0  0
   14.8176   21.8976   -3.9220 N   0  0  0  0  0  0  0  0  0  0  0  0
   13.8621   21.9109   -4.3579 H   0  0  0  0  0  0  0  0  0  0  0  0
   15.4571   23.1829   -3.9948 C   0  0  0  0  0  0  0  0  0  0  0  0
   16.7638   23.1572   -4.7963 C   0  0  0  0  0  0  0  0  0  0  0  0
   15.5952   23.9543   -5.2408 C   0  0  0  0  0  0  0  0  0  0  0  0
   15.6392   25.4305   -5.1170 C   0  0  0  0  0  0  0  0  0  0  0  0
   15.3424   26.2943   -6.1456 C   0  0  0  0  0  0  0  0  0  0  0  0
   15.3904   27.6536   -6.0063 C   0  0  0  0  0  0  0  0  0  0  0  0
   15.7441   28.2087   -4.8088 C   0  0  0  0  0  0  0  0  0  0  0  0
   16.0474   27.3697   -3.7582 C   0  0  0  0  0  0  0  0  0  0  0  0
   15.9941   25.9964   -3.9155 C   0  0  0  0  0  0  0  0  0  0  0  0
 11 12  1  0  0  0
 12  1  1  0  0  0
  1  2  2  0  0  0
  2  3  1  0  0  0
  3  4  2  0  0  0
  4 13  1  0  0  0
 13 14  1  0  0  0
 14 16  1  0  0  0
 16 17  1  0  0  0
 17 18  1  0  0  0
 18 19  1  0  0  0
 19 20  2  0  0  0
 20 21  1  0  0  0
 21 22  2  0  0  0
 22 23  1  0  0  0
 23 24  2  0  0  0
  4  5  1  0  0  0
  5  6  2  0  0  0
  6  7  1  0  0  0
  7  8  2  0  0  0
  8  9  1  0  0  0
  9 10  2  0  0  0
 10  1  1  0  0  0
 18 16  1  0  0  0
 24 19  1  0  0  0
 10  5  1  0  0  0
 14 15  1  0  0  0
M  END
> <minimizedAffinity>
-0.78471

> <CNNscore>
0.3168937564

> <CNNaffinity>
6.4937047958

> <CNN_VS>
2.0578145981

> <CNNaffinity_variance>
0.1948334873

$$$$
[H]c1c([H])c([H])c(C2([H])C([H])([H])[C@]2([H])N([H])C([H])([H])c2c([H])c([H])c(OC([H])([H])[H])c3c([H])c([H])c([H])c([H])c23)c([H])c1[H]


 24 27  0  0  0  0  0  0  0  0999 V2000
   14.5406   26.8448   -4.0413 C   0  0  0  0  0  0  0  0  0  0  0  0
   13.1831   26.6451   -4.0769 C   0  0  0  0  0  0  0  0  0  0  0  0
   12.5351   25.8136   -3.1741 C   0  0  0  0  0  0  0  0  0  0  0  0
   13.2439   25.1505   -2.1977 C   0  0  0  0  0  0  0  0  0  0  0  0
   14.6254   25.3481   -2.1545 C   0  0  0  0  0  0  0  0  0  0  0  0
   15.3265   24.6795   -1.1722 C   0  0  0  0  0  0  0  0  0  0  0  0
   16.6963   24.8863   -1.1428 C   0  0  0  0  0  0  0  0  0  0  0  0
   17.3389   25.7083   -2.0344 C   0  0  0  0  0  0  0  0  0  0  0  0
   16.6256   26.3697   -3.0103 C   0  0  0  0  0  0  0  0  0  0  0  0
   15.2428   26.1759   -3.0587 C   0  0  0  0  0  0  0  0  0  0  0  0
   16.5225   28.0963   -4.7190 C   0  0  0  0  0  0  0  0  0  0  0  0
   15.1867   27.6848   -4.9549 O   0  0  0  0  0  0  0  0  0  0  0  0
   12.5822   24.2585   -1.2081 C   0  0  0  0  0  0  0  0  0  0  0  0
   12.7907   22.8974   -1.5930 N   0  0  0  0  0  0  0  0  0  0  0  0
   13.7283   22.5251   -1.3003 H   0  0  0  0  0  0  0  0  0  0  0  0
   11.7225   22.0113   -1.2188 C   0  0  0  0  0  0  0  0  0  0  0  0
   12.0697   21.1306   -0.0128 C   0  0  0  0  0  0  0  0  0  0  0  0
   10.9728   22.1268    0.0427 C   0  0  0  0  0  0  0  0  0  0  0  0
    9.5680   21.6548    0.0363 C   0  0  0  0  0  0  0  0  0  0  0  0
    8.5734   22.2004    0.8144 C   0  0  0  0  0  0  0  0  0  0  0  0
    7.2837   21.7468    0.7905 C   0  0  0  0  0  0  0  0  0  0  0  0
    6.9359   20.7103   -0.0292 C   0  0  0  0  0  0  0  0  0  0  0  0
    7.9100   20.1420   -0.8215 C   0  0  0  0  0  0  0  0  0  0  0  0
    9.2103   20.6126   -0.7856 C   0  0  0  0  0  0  0  0  0  0  0  0
 11 12  1  0  0  0
 12  1  1  0  0  0
  1  2  2  0  0  0
  2  3  1  0  0  0
  3  4  2  0  0  0
  4 13  1  0  0  0
 13 14  1  0  0  0
 14 16  1  0  0  0
 16 17  1  0  0  0
 17 18  1  0  0  0
 18 19  1  0  0  0
 19 20  2  0  0  0
 20 21  1  0  0  0
 21 22  2  0  0  0
 22 23  1  0  0  0
 23 24  2  0  0  0
  4  5  1  0  0  0
  5  6  2  0  0  0
  6  7  1  0  0  0
  7  8  2  0  0  0
  8  9  1  0  0  0
  9 10  2  0  0  0
 10  1  1  0  0  0
 18 16  1  0  0  0
 24 19  1  0  0  0
 10  5  1  0  0  0
 14 15  1  0  0  0
M  END
> <minimizedAffinity>
-7.16617

> <CNNscore>
0.3049945533

> <CNNaffinity>
6.2472319603

> <CNN_VS>
1.9053716660

> <CNNaffinity_variance>
0.1772444844

$$$$
[H]c1c([H])c([H])c(C2([H])C([H])([H])[C@]2([H])N([H])C([H])([H])c2c([H])c([H])c(OC([H])([H])[H])c3c([H])c([H])c([H])c([H])c23)c([H])c1[H]


 24 27  0  0  0  0  0  0  0  0999 V2000
   15.4588   25.9362   -5.5577 C   0  0  0  0  0  0  0  0  0  0  0  0
   14.8282   24.7670   -5.2124 C   0  0  0  0  0  0  0  0  0  0  0  0
   14.8515   24.2700   -3.9167 C   0  0  0  0  0  0  0  0  0  0  0  0
   15.5190   24.9440   -2.9188 C   0  0  0  0  0  0  0  0  0  0  0  0
   16.1632   26.1344   -3.2616 C   0  0  0  0  0  0  0  0  0  0  0  0
   16.8290   26.8024   -2.2546 C   0  0  0  0  0  0  0  0  0  0  0  0
   17.4629   27.9818   -2.6110 C   0  0  0  0  0  0  0  0  0  0  0  0
   17.4409   28.4749   -3.8916 C   0  0  0  0  0  0  0  0  0  0  0  0
   16.7719   27.7969   -4.8872 C   0  0  0  0  0  0  0  0  0  0  0  0
   16.1253   26.6050   -4.5504 C   0  0  0  0  0  0  0  0  0  0  0  0
   15.5817   25.5457   -7.9631 C   0  0  0  0  0  0  0  0  0  0  0  0
   15.4308   26.4308   -6.8662 O   0  0  0  0  0  0  0  0  0  0  0  0
   15.5580   24.4463   -1.5177 C   0  0  0  0  0  0  0  0  0  0  0  0
   14.4892   23.5170   -1.3218 N   0  0  0  0  0  0  0  0  0  0  0  0
   14.8227   22.5425   -1.1160 H   0  0  0  0  0  0  0  0  0  0  0  0
   13.4972   23.9537   -0.3777 C   0  0  0  0  0  0  0  0  0  0  0  0
   12.4695   24.9129   -0.9895 C   0  0  0  0  0  0  0  0  0  0  0  0
   12.0747   23.5846   -0.4617 C   0  0  0  0  0  0  0  0  0  0  0  0
   11.3227   23.5089    0.8130 C   0  0  0  0  0  0  0  0  0  0  0  0
   11.3389   22.4156    1.6477 C   0  0  0  0  0  0  0  0  0  0  0  0
   10.6359   22.3700    2.8196 C   0  0  0  0  0  0  0  0  0  0  0  0
    9.8762   23.4380    3.2061 C   0  0  0  0  0  0  0  0  0  0  0  0
    9.8392   24.5489    2.3912 C   0  0  0  0  0  0  0  0  0  0  0  0
   10.5563   24.5793    1.2087 C   0  0  0  0  0  0  0  0  0  0  0  0
 11 12  1  0  0  0
 12  1  1  0  0  0
  1  2  2  0  0  0
  2  3  1  0  0  0
  3  4  2  0  0  0
  4 13  1  0  0  0
 13 14  1  0  0  0
 14 16  1  0  0  0
 16 17  1  0  0  0
 17 18  1  0  0  0
 18 19  1  0  0  0
 19 20  2  0  0  0
 20 21  1  0  0  0
 21 22  2  0  0  0
 22 23  1  0  0  0
 23 24  2  0  0  0
  4  5  1  0  0  0
  5  6  2  0  0  0
  6  7  1  0  0  0
  7  8  2  0  0  0
  8  9  1  0  0  0
  9 10  2  0  0  0
 10  1  1  0  0  0
 18 16  1  0  0  0
 24 19  1  0  0  0
 10  5  1  0  0  0
 14 15  1  0  0  0
M  END
> <minimizedAffinity>
-7.17052

> <CNNscore>
0.3005613089

> <CNNaffinity>
6.3172087669

> <CNN_VS>
1.8987085819

> <CNNaffinity_variance>
0.1807364970

$$$$
[H]c1c([H])c([H])c(C2([H])C([H])([H])[C@]2([H])N([H])C([H])([H])c2c([H])c([H])c(OC([H])([H])[H])c3c([H])c([H])c([H])c([H])c23)c([H])c1[H]


 24 27  0  0  0  0  0  0  0  0999 V2000
   14.9023   25.9223   -3.2003 C   0  0  0  0  0  0  0  0  0  0  0  0
   13.5967   26.0804   -3.5933 C   0  0  0  0  0  0  0  0  0  0  0  0
   12.5319   25.7027   -2.7871 C   0  0  0  0  0  0  0  0  0  0  0  0
   12.7535   25.1477   -1.5468 C   0  0  0  0  0  0  0  0  0  0  0  0
   14.0787   24.9834   -1.1393 C   0  0  0  0  0  0  0  0  0  0  0  0
   14.2902   24.4267    0.1053 C   0  0  0  0  0  0  0  0  0  0  0  0
   15.6107   24.2705    0.4948 C   0  0  0  0  0  0  0  0  0  0  0  0
   16.6650   24.6434   -0.3008 C   0  0  0  0  0  0  0  0  0  0  0  0
   16.4386   25.1982   -1.5416 C   0  0  0  0  0  0  0  0  0  0  0  0
   15.1145   25.3652   -1.9551 C   0  0  0  0  0  0  0  0  0  0  0  0
   15.8511   27.4436   -4.8552 C   0  0  0  0  0  0  0  0  0  0  0  0
   15.9705   26.3056   -4.0186 O   0  0  0  0  0  0  0  0  0  0  0  0
   11.6373   24.7393   -0.6524 C   0  0  0  0  0  0  0  0  0  0  0  0
   11.0478   23.5392   -1.1587 N   0  0  0  0  0  0  0  0  0  0  0  0
   11.5686   23.1377   -1.9778 H   0  0  0  0  0  0  0  0  0  0  0  0
   10.7831   22.5459   -0.1539 C   0  0  0  0  0  0  0  0  0  0  0  0
   11.1305   21.1243   -0.6109 C   0  0  0  0  0  0  0  0  0  0  0  0
   11.8360   21.7705    0.5219 C   0  0  0  0  0  0  0  0  0  0  0  0
   11.5538   21.3135    1.9031 C   0  0  0  0  0  0  0  0  0  0  0  0
   12.0564   20.1525    2.4432 C   0  0  0  0  0  0  0  0  0  0  0  0
   11.7811   19.7522    3.7213 C   0  0  0  0  0  0  0  0  0  0  0  0
   10.9770   20.5144    4.5210 C   0  0  0  0  0  0  0  0  0  0  0  0
   10.4575   21.6839    4.0089 C   0  0  0  0  0  0  0  0  0  0  0  0
   10.7457   22.0748    2.7137 C   0  0  0  0  0  0  0  0  0  0  0  0
 11 12  1  0  0  0
 12  1  1  0  0  0
  1  2  2  0  0  0
  2  3  1  0  0  0
  3  4  2  0  0  0
  4 13  1  0  0  0
 13 14  1  0  0  0
 14 16  1  0  0  0
 16 17  1  0  0  0
 17 18  1  0  0  0
 18 19  1  0  0  0
 19 20  2  0  0  0
 20 21  1  0  0  0
 21 22  2  0  0  0
 22 23  1  0  0  0
 23 24  2  0  0  0
  4  5  1  0  0  0
  5  6  2  0  0  0
  6  7  1  0  0  0
  7  8  2  0  0  0
  8  9  1  0  0  0
  9 10  2  0  0  0
 10  1  1  0  0  0
 18 16  1  0  0  0
 24 19  1  0  0  0
 10  5  1  0  0  0
 14 15  1  0  0  0
M  END
> <minimizedAffinity>
-7.72051

> <CNNscore>
0.2900106907

> <CNNaffinity>
6.2192411423

> <CNN_VS>
1.8036464453

> <CNNaffinity_variance>
0.1033364162

$$$$
[H]c1nc([H])c([C@@]2([H])N(C([H])([H])[H])C([H])([H])C([H])([H])C2([H])[H])c([H])c1[H]


 12 13  0  0  0  0  0  0  0  0999 V2000
   12.4192   25.0922   -0.7377 C   0  0  0  0  0  0  0  0  0  0  0  0
   12.8691   24.9077   -2.0469 N   0  0  0  0  0  0  0  0  0  0  0  0
   12.8958   26.0050   -2.9279 C   0  0  0  0  0  0  0  0  0  0  0  0
   14.3502   26.0868   -3.3447 C   0  0  0  0  0  0  0  0  0  0  0  0
   15.0856   25.0111   -2.5365 C   0  0  0  0  0  0  0  0  0  0  0  0
   13.9369   24.0283   -2.2983 C   0  0  0  0  0  0  0  0  0  0  0  0
   14.2570   23.0321   -1.2928 C   0  0  0  0  0  0  0  0  0  0  0  0
   13.9776   21.7015   -1.5184 C   0  0  0  0  0  0  0  0  0  0  0  0
   14.2818   20.7335   -0.5496 C   0  0  0  0  0  0  0  0  0  0  0  0
   14.8644   21.1401    0.6299 C   0  0  0  0  0  0  0  0  0  0  0  0
   15.1220   22.4235    0.8211 N   0  0  0  0  0  0  0  0  0  0  0  0
   14.8390   23.3689   -0.0938 C   0  0  0  0  0  0  0  0  0  0  0  0
  1  2  1  0  0  0
  2  3  1  0  0  0
  3  4  1  0  0  0
  4  5  1  0  0  0
  5  6  1  0  0  0
  6  7  1  0  0  0
  7  8  2  0  0  0
  8  9  1  0  0  0
  9 10  2  0  0  0
 10 11  1  0  0  0
 11 12  2  0  0  0
  6  2  1  0  0  0
 12  7  1  0  0  0
M  END
> <minimizedAffinity>
-5.67575

> <CNNscore>
0.7153615355

> <CNNaffinity>
5.4545745850

> <CNN_VS>
3.9019927979

> <CNNaffinity_variance>
0.2473459244

$$$$
[H]c1nc([H])c([C@@]2([H])N(C([H])([H])[H])C([H])([H])C([H])([H])C2([H])[H])c([H])c1[H]


 12 13  0  0  0  0  0  0  0  0999 V2000
   15.7039   23.9100   -3.5467 C   0  0  0  0  0  0  0  0  0  0  0  0
   15.1533   25.0234   -2.9084 N   0  0  0  0  0  0  0  0  0  0  0  0
   14.6477   26.0832   -3.6844 C   0  0  0  0  0  0  0  0  0  0  0  0
   13.2003   26.1807   -3.2469 C   0  0  0  0  0  0  0  0  0  0  0  0
   12.9755   25.0288   -2.2601 C   0  0  0  0  0  0  0  0  0  0  0  0
   14.4012   24.8505   -1.7332 C   0  0  0  0  0  0  0  0  0  0  0  0
   14.5679   23.6172   -0.9868 C   0  0  0  0  0  0  0  0  0  0  0  0
   14.1395   22.4196   -1.5176 C   0  0  0  0  0  0  0  0  0  0  0  0
   14.2949   21.2240   -0.8004 C   0  0  0  0  0  0  0  0  0  0  0  0
   14.8837   21.2719    0.4434 C   0  0  0  0  0  0  0  0  0  0  0  0
   15.2860   22.4345    0.9297 N   0  0  0  0  0  0  0  0  0  0  0  0
   15.1471   23.5933    0.2597 C   0  0  0  0  0  0  0  0  0  0  0  0
  1  2  1  0  0  0
  2  3  1  0  0  0
  3  4  1  0  0  0
  4  5  1  0  0  0
  5  6  1  0  0  0
  6  7  1  0  0  0
  7  8  2  0  0  0
  8  9  1  0  0  0
  9 10  2  0  0  0
 10 11  1  0  0  0
 11 12  2  0  0  0
  6  2  1  0  0  0
 12  7  1  0  0  0
M  END
> <minimizedAffinity>
-5.80100

> <CNNscore>
0.5622875690

> <CNNaffinity>
5.2944970131

> <CNN_VS>
2.9770298004

> <CNNaffinity_variance>
0.1716537774

$$$$
[H]c1nc([H])c([C@@]2([H])N(C([H])([H])[H])C([H])([H])C([H])([H])C2([H])[H])c([H])c1[H]


 12 13  0  0  0  0  0  0  0  0999 V2000
   11.1463   21.6936    1.4865 C   0  0  0  0  0  0  0  0  0  0  0  0
   11.0086   22.0184    0.1353 N   0  0  0  0  0  0  0  0  0  0  0  0
    9.8270   22.6426   -0.3069 C   0  0  0  0  0  0  0  0  0  0  0  0
   10.3212   23.9355   -0.9233 C   0  0  0  0  0  0  0  0  0  0  0  0
   11.8342   23.9732   -0.6771 C   0  0  0  0  0  0  0  0  0  0  0  0
   12.1248   22.4733   -0.5884 C   0  0  0  0  0  0  0  0  0  0  0  0
   13.4466   22.1935   -0.0588 C   0  0  0  0  0  0  0  0  0  0  0  0
   13.9164   20.8988   -0.0094 C   0  0  0  0  0  0  0  0  0  0  0  0
   15.1921   20.6207    0.5038 C   0  0  0  0  0  0  0  0  0  0  0  0
   15.9640   21.6671    0.9568 C   0  0  0  0  0  0  0  0  0  0  0  0
   15.4891   22.9005    0.8981 N   0  0  0  0  0  0  0  0  0  0  0  0
   14.2690   23.1904    0.4100 C   0  0  0  0  0  0  0  0  0  0  0  0
  1  2  1  0  0  0
  2  3  1  0  0  0
  3  4  1  0  0  0
  4  5  1  0  0  0
  5  6  1  0  0  0
  6  7  1  0  0  0
  7  8  2  0  0  0
  8  9  1  0  0  0
  9 10  2  0  0  0
 10 11  1  0  0  0
 11 12  2  0  0  0
  6  2  1  0  0  0
 12  7  1  0  0  0
M  END
> <minimizedAffinity>
-4.05916

> <CNNscore>
0.4667743146

> <CNNaffinity>
4.7686233521

> <CNN_VS>
2.2258708477

> <CNNaffinity_variance>
0.2241840661

$$$$
[H]c1nc([H])c([C@@]2([H])N(C([H])([H])[H])C([H])([H])C([H])([H])C2([H])[H])c([H])c1[H]


 12 13  0  0  0  0  0  0  0  0999 V2000
   15.3301   23.1066   -3.8835 C   0  0  0  0  0  0  0  0  0  0  0  0
   14.4494   23.4788   -2.8656 N   0  0  0  0  0  0  0  0  0  0  0  0
   14.2119   22.5904   -1.8001 C   0  0  0  0  0  0  0  0  0  0  0  0
   14.6165   23.3897   -0.5782 C   0  0  0  0  0  0  0  0  0  0  0  0
   15.1712   24.7191   -1.1039 C   0  0  0  0  0  0  0  0  0  0  0  0
   14.4139   24.8152   -2.4303 C   0  0  0  0  0  0  0  0  0  0  0  0
   14.9552   25.8372   -3.3068 C   0  0  0  0  0  0  0  0  0  0  0  0
   16.2072   26.3632   -3.0719 C   0  0  0  0  0  0  0  0  0  0  0  0
   16.7356   27.3534   -3.9135 C   0  0  0  0  0  0  0  0  0  0  0  0
   15.9779   27.7884   -4.9779 C   0  0  0  0  0  0  0  0  0  0  0  0
   14.7792   27.2670   -5.1809 N   0  0  0  0  0  0  0  0  0  0  0  0
   14.2527   26.3166   -4.3868 C   0  0  0  0  0  0  0  0  0  0  0  0
  1  2  1  0  0  0
  2  3  1  0  0  0
  3  4  1  0  0  0
  4  5  1  0  0  0
  5  6  1  0  0  0
  6  7  1  0  0  0
  7  8  2  0  0  0
  8  9  1  0  0  0
  9 10  2  0  0  0
 10 11  1  0  0  0
 11 12  2  0  0  0
  6  2  1  0  0  0
 12  7  1  0  0  0
M  END
> <minimizedAffinity>
-6.05763

> <CNNscore>
0.4468500912

> <CNNaffinity>
5.0703463554

> <CNN_VS>
2.2656848431

> <CNNaffinity_variance>
0.1499836445

$$$$
[H]c1nc([H])c([C@@]2([H])N(C([H])([H])[H])C([H])([H])C([H])([H])C2([H])[H])c([H])c1[H]


 12 13  0  0  0  0  0  0  0  0999 V2000
   12.3873   25.3104   -0.1485 C   0  0  0  0  0  0  0  0  0  0  0  0
   12.4672   24.8841   -1.4760 N   0  0  0  0  0  0  0  0  0  0  0  0
   12.7575   25.8215   -2.4850 C   0  0  0  0  0  0  0  0  0  0  0  0
   14.0158   25.2715   -3.1253 C   0  0  0  0  0  0  0  0  0  0  0  0
   14.4042   24.0347   -2.3064 C   0  0  0  0  0  0  0  0  0  0  0  0
   13.0287   23.6295   -1.7715 C   0  0  0  0  0  0  0  0  0  0  0  0
   13.1136   22.6475   -0.7063 C   0  0  0  0  0  0  0  0  0  0  0  0
   12.0122   21.8913   -0.3681 C   0  0  0  0  0  0  0  0  0  0  0  0
   12.0863   20.9423    0.6624 C   0  0  0  0  0  0  0  0  0  0  0  0
   13.2811   20.7823    1.3280 C   0  0  0  0  0  0  0  0  0  0  0  0
   14.3231   21.5210    0.9834 N   0  0  0  0  0  0  0  0  0  0  0  0
   14.2748   22.4369   -0.0013 C   0  0  0  0  0  0  0  0  0  0  0  0
  1  2  1  0  0  0
  2  3  1  0  0  0
  3  4  1  0  0  0
  4  5  1  0  0  0
  5  6  1  0  0  0
  6  7  1  0  0  0
  7  8  2  0  0  0
  8  9  1  0  0  0
  9 10  2  0  0  0
 10 11  1  0  0  0
 11 12  2  0  0  0
  6  2  1  0  0  0
 12  7  1  0  0  0
M  END
> <minimizedAffinity>
-4.90730

> <CNNscore>
0.4450135827

> <CNNaffinity>
5.1059722900

> <CNN_VS>
2.2722270489

> <CNNaffinity_variance>
0.2970542312

$$$$
[H]c1nc([H])c([C@@]2([H])N(C([H])([H])[H])C([H])([H])C([H])([H])C2([H])[H])c([H])c1[H]


 12 13  0  0  0  0  0  0  0  0999 V2000
   15.0062   23.4575   -3.4945 C   0  0  0  0  0  0  0  0  0  0  0  0
   15.1389   24.8473   -3.4597 N   0  0  0  0  0  0  0  0  0  0  0  0
   15.4149   25.5437   -4.6513 C   0  0  0  0  0  0  0  0  0  0  0  0
   14.2541   26.5101   -4.7713 C   0  0  0  0  0  0  0  0  0  0  0  0
   13.3119   26.1904   -3.6046 C   0  0  0  0  0  0  0  0  0  0  0  0
   14.3147   25.6040   -2.6084 C   0  0  0  0  0  0  0  0  0  0  0  0
   13.6666   24.9269   -1.5005 C   0  0  0  0  0  0  0  0  0  0  0  0
   12.2964   24.7797   -1.4809 C   0  0  0  0  0  0  0  0  0  0  0  0
   11.6630   24.1287   -0.4117 C   0  0  0  0  0  0  0  0  0  0  0  0
   12.4380   23.6406    0.6165 C   0  0  0  0  0  0  0  0  0  0  0  0
   13.7511   23.7952    0.5730 N   0  0  0  0  0  0  0  0  0  0  0  0
   14.3797   24.4160   -0.4421 C   0  0  0  0  0  0  0  0  0  0  0  0
  1  2  1  0  0  0
  2  3  1  0  0  0
  3  4  1  0  0  0
  4  5  1  0  0  0
  5  6  1  0  0  0
  6  7  1  0  0  0
  7  8  2  0  0  0
  8  9  1  0  0  0
  9 10  2  0  0  0
 10 11  1  0  0  0
 11 12  2  0  0  0
  6  2  1  0  0  0
 12  7  1  0  0  0
M  END
> <minimizedAffinity>
-5.83963

> <CNNscore>
0.4388580918

> <CNNaffinity>
5.1798844337

> <CNN_VS>
2.2732341290

> <CNNaffinity_variance>
0.1915812343

$$$$
[H]c1nc([H])c([C@@]2([H])N(C([H])([H])[H])C([H])([H])C([H])([H])C2([H])[H])c([H])c1[H]


 12 13  0  0  0  0  0  0  0  0999 V2000
   13.1783   25.5255   -2.4680 C   0  0  0  0  0  0  0  0  0  0  0  0
   14.2682   24.7317   -2.1042 N   0  0  0  0  0  0  0  0  0  0  0  0
   14.0410   23.5078   -1.4472 C   0  0  0  0  0  0  0  0  0  0  0  0
   14.6928   22.4908   -2.3619 C   0  0  0  0  0  0  0  0  0  0  0  0
   15.1858   23.2730   -3.5851 C   0  0  0  0  0  0  0  0  0  0  0  0
   15.3858   24.6525   -2.9534 C   0  0  0  0  0  0  0  0  0  0  0  0
   15.5701   25.6964   -3.9445 C   0  0  0  0  0  0  0  0  0  0  0  0
   15.1660   25.4980   -5.2471 C   0  0  0  0  0  0  0  0  0  0  0  0
   15.3436   26.5018   -6.2109 C   0  0  0  0  0  0  0  0  0  0  0  0
   15.9295   27.6879   -5.8288 C   0  0  0  0  0  0  0  0  0  0  0  0
   16.3082   27.8525   -4.5720 N   0  0  0  0  0  0  0  0  0  0  0  0
   16.1478   26.9039   -3.6311 C   0  0  0  0  0  0  0  0  0  0  0  0
  1  2  1  0  0  0
  2  3  1  0  0  0
  3  4  1  0  0  0
  4  5  1  0  0  0
  5  6  1  0  0  0
  6  7  1  0  0  0
  7  8  2  0  0  0
  8  9  1  0  0  0
  9 10  2  0  0  0
 10 11  1  0  0  0
 11 12  2  0  0  0
  6  2  1  0  0  0
 12  7  1  0  0  0
M  END
> <minimizedAffinity>
-6.18151

> <CNNscore>
0.4238066971

> <CNNaffinity>
4.8819475174

> <CNN_VS>
2.0690021515

> <CNNaffinity_variance>
0.2325334549

$$$$
[H]c1nc([H])c([C@@]2([H])N(C([H])([H])[H])C([H])([H])C([H])([H])C2([H])[H])c([H])c1[H]


 12 13  0  0  0  0  0  0  0  0999 V2000
    9.5572   22.0344    4.0912 C   0  0  0  0  0  0  0  0  0  0  0  0
    8.8537   22.8764    3.2272 N   0  0  0  0  0  0  0  0  0  0  0  0
    8.0769   23.9207    3.7629 C   0  0  0  0  0  0  0  0  0  0  0  0
    8.6647   25.1614    3.1219 C   0  0  0  0  0  0  0  0  0  0  0  0
    9.8637   24.6850    2.2933 C   0  0  0  0  0  0  0  0  0  0  0  0
    9.4266   23.2483    1.9983 C   0  0  0  0  0  0  0  0  0  0  0  0
   10.5070   22.4357    1.4708 C   0  0  0  0  0  0  0  0  0  0  0  0
   10.2334   21.2509    0.8220 C   0  0  0  0  0  0  0  0  0  0  0  0
   11.2730   20.4590    0.3121 C   0  0  0  0  0  0  0  0  0  0  0  0
   12.5710   20.8896    0.4732 C   0  0  0  0  0  0  0  0  0  0  0  0
   12.8061   22.0307    1.0998 N   0  0  0  0  0  0  0  0  0  0  0  0
   11.8249   22.8061    1.5968 C   0  0  0  0  0  0  0  0  0  0  0  0
  1  2  1  0  0  0
  2  3  1  0  0  0
  3  4  1  0  0  0
  4  5  1  0  0  0
  5  6  1  0  0  0
  6  7  1  0  0  0
  7  8  2  0  0  0
  8  9  1  0  0  0
  9 10  2  0  0  0
 10 11  1  0  0  0
 11 12  2  0  0  0
  6  2  1  0  0  0
 12  7  1  0  0  0
M  END
> <minimizedAffinity>
-3.71972

> <CNNscore>
0.3827614486

> <CNNaffinity>
4.0560793877

> <CNN_VS>
1.5525108576

> <CNNaffinity_variance>
0.4937975407

$$$$
[H]c1nc([H])c([C@@]2([H])N(C([H])([H])[H])C([H])([H])C([H])([H])C2([H])[H])c([H])c1[H]


 12 13  0  0  0  0  0  0  0  0999 V2000
   16.4093   25.0922   -1.3438 C   0  0  0  0  0  0  0  0  0  0  0  0
   15.4466   25.2291   -2.3462 N   0  0  0  0  0  0  0  0  0  0  0  0
   15.7870   25.8848   -3.5442 C   0  0  0  0  0  0  0  0  0  0  0  0
   15.5144   24.8401   -4.6072 C   0  0  0  0  0  0  0  0  0  0  0  0
   15.1020   23.5677   -3.8575 C   0  0  0  0  0  0  0  0  0  0  0  0
   14.5318   24.1873   -2.5795 C   0  0  0  0  0  0  0  0  0  0  0  0
   14.3262   23.2065   -1.5299 C   0  0  0  0  0  0  0  0  0  0  0  0
   14.5390   21.8676   -1.7777 C   0  0  0  0  0  0  0  0  0  0  0  0
   14.3395   20.9137   -0.7685 C   0  0  0  0  0  0  0  0  0  0  0  0
   13.9271   21.3427    0.4732 C   0  0  0  0  0  0  0  0  0  0  0  0
   13.7301   22.6337    0.6845 N   0  0  0  0  0  0  0  0  0  0  0  0
   13.9152   23.5658   -0.2683 C   0  0  0  0  0  0  0  0  0  0  0  0
  1  2  1  0  0  0
  2  3  1  0  0  0
  3  4  1  0  0  0
  4  5  1  0  0  0
  5  6  1  0  0  0
  6  7  1  0  0  0
  7  8  2  0  0  0
  8  9  1  0  0  0
  9 10  2  0  0  0
 10 11  1  0  0  0
 11 12  2  0  0  0
  6  2  1  0  0  0
 12  7  1  0  0  0
M  END
> <minimizedAffinity>
-5.65081

> <CNNscore>
0.3270679116

> <CNNaffinity>
5.1969318390

> <CNN_VS>
1.6997495890

> <CNNaffinity_variance>
0.1759777069

$$$$
[H]c1nc([H])c(N([H])C(=O)c2nc(-c3c(F)c([H])c([H])c([H])c3F)c([H])c([H])c2F)c([C@@]2([H])C([H])([H])[C@@]([H])(N([H])[H])C([H])([H])[C@@]([H])(C([H])([H])[H])C2([H])[H])c1[H]


 35 38  0  0  0  0  0  0  0  0999 V2000
   14.2073   24.7661   -4.7098 N   0  0  0  0  0  0  0  0  0  0  0  0
   14.7674   23.6098   -4.1574 C   0  0  0  0  0  0  0  0  0  0  0  0
   15.7873   23.0640   -4.7468 O   0  0  0  0  0  0  0  0  0  0  0  0
   13.3933   25.2001   -4.2179 H   0  0  0  0  0  0  0  0  0  0  0  0
   14.3651   22.8990   -2.9549 C   0  0  0  0  0  0  0  0  0  0  0  0
   13.3795   23.4046   -2.1914 N   0  0  0  0  0  0  0  0  0  0  0  0
   12.8876   22.8857   -1.0645 C   0  0  0  0  0  0  0  0  0  0  0  0
   13.4726   21.6856   -0.6338 C   0  0  0  0  0  0  0  0  0  0  0  0
   14.4909   21.1070   -1.3626 C   0  0  0  0  0  0  0  0  0  0  0  0
   14.9226   21.7361   -2.5263 C   0  0  0  0  0  0  0  0  0  0  0  0
   15.9504   21.1222   -3.2260 F   0  0  0  0  0  0  0  0  0  0  0  0
   11.7870   23.4420   -0.3074 C   0  0  0  0  0  0  0  0  0  0  0  0
   10.4908   22.9671   -0.4445 C   0  0  0  0  0  0  0  0  0  0  0  0
   10.2094   21.9739   -1.3399 F   0  0  0  0  0  0  0  0  0  0  0  0
    9.4309   23.4561    0.2823 C   0  0  0  0  0  0  0  0  0  0  0  0
    9.6205   24.4545    1.1925 C   0  0  0  0  0  0  0  0  0  0  0  0
   10.9125   24.9578    1.3545 C   0  0  0  0  0  0  0  0  0  0  0  0
   11.9543   24.4473    0.6109 C   0  0  0  0  0  0  0  0  0  0  0  0
   13.2302   24.9384    0.7661 F   0  0  0  0  0  0  0  0  0  0  0  0
   15.7057   26.3084   -5.7024 C   0  0  0  0  0  0  0  0  0  0  0  0
   16.2885   26.7822   -6.8831 C   0  0  0  0  0  0  0  0  0  0  0  0
   15.9156   26.3156   -8.1324 C   0  0  0  0  0  0  0  0  0  0  0  0
   14.9764   25.3869   -8.2542 N   0  0  0  0  0  0  0  0  0  0  0  0
   14.3984   24.9093   -7.1285 C   0  0  0  0  0  0  0  0  0  0  0  0
   14.7327   25.3292   -5.8885 C   0  0  0  0  0  0  0  0  0  0  0  0
   19.3034   28.7351   -3.8291 C   0  0  0  0  0  0  0  0  0  0  0  0
   17.8345   28.3551   -3.4349 C   0  0  0  0  0  0  0  0  0  0  0  0
   17.9472   27.3996   -2.2430 C   0  0  0  0  0  0  0  0  0  0  0  0
   16.6218   26.7723   -2.0395 C   0  0  0  0  0  0  0  0  0  0  0  0
   16.5613   25.9775   -0.8666 N   0  0  0  0  0  0  0  0  0  0  0  0
   16.2226   25.9139   -3.2705 C   0  0  0  0  0  0  0  0  0  0  0  0
   15.9260   26.8938   -4.4013 C   0  0  0  0  0  0  0  0  0  0  0  0
   17.3192   27.6179   -4.5958 C   0  0  0  0  0  0  0  0  0  0  0  0
   15.6139   25.5481   -0.6931 H   0  0  0  0  0  0  0  0  0  0  0  0
   16.9874   26.3552   -0.0115 H   0  0  0  0  0  0  0  0  0  0  0  0
 26 27  1  0  0  0
 27 28  1  0  0  0
 28 29  1  0  0  0
 29 30  1  0  0  0
 29 31  1  0  0  0
 31 32  1  0  0  0
 32 20  1  0  0  0
 20 21  2  0  0  0
 21 22  1  0  0  0
 22 23  2  0  0  0
 23 24  1  0  0  0
 24 25  2  0  0  0
 25  1  1  0  0  0
  1  2  1  0  0  0
  2  3  2  0  0  0
  2  5  1  0  0  0
  5  6  2  0  0  0
  6  7  1  0  0  0
  7 12  1  0  0  0
 12 13  2  0  0  0
 13 14  1  0  0  0
 13 15  1  0  0  0
 15 16  2  0  0  0
 16 17  1  0  0  0
 17 18  2  0  0  0
 18 19  1  0  0  0
  7  8  2  0  0  0
  8  9  1  0  0  0
  9 10  2  0  0  0
 10 11  1  0  0  0
 32 33  1  0  0  0
 33 27  1  0  0  0
 25 20  1  0  0  0
 10  5  1  0  0  0
 18 12  1  0  0  0
 30 34  1  0  0  0
 30 35  1  0  0  0
  1  4  1  0  0  0
M  END
> <minimizedAffinity>
3.72009

> <CNNscore>
0.4437710941

> <CNNaffinity>
7.6832213402

> <CNN_VS>
3.4095914364

> <CNNaffinity_variance>
1.0004080534

$$$$
[H]c1nc([H])c(N([H])C(=O)c2nc(-c3c(F)c([H])c([H])c([H])c3F)c([H])c([H])c2F)c([C@@]2([H])C([H])([H])[C@@]([H])(N([H])[H])C([H])([H])[C@@]([H])(C([H])([H])[H])C2([H])[H])c1[H]


 35 38  0  0  0  0  0  0  0  0999 V2000
   15.4757   23.3468   -3.4497 N   0  0  0  0  0  0  0  0  0  0  0  0
   14.8772   24.5403   -3.8657 C   0  0  0  0  0  0  0  0  0  0  0  0
   13.7059   24.4931   -4.4237 O   0  0  0  0  0  0  0  0  0  0  0  0
   16.4141   23.4020   -2.9923 H   0  0  0  0  0  0  0  0  0  0  0  0
   15.3916   25.8950   -3.7498 C   0  0  0  0  0  0  0  0  0  0  0  0
   14.5567   26.9332   -3.9377 N   0  0  0  0  0  0  0  0  0  0  0  0
   14.8583   28.2314   -3.8679 C   0  0  0  0  0  0  0  0  0  0  0  0
   16.1951   28.5368   -3.5723 C   0  0  0  0  0  0  0  0  0  0  0  0
   17.1114   27.5259   -3.3690 C   0  0  0  0  0  0  0  0  0  0  0  0
   16.6833   26.2051   -3.4638 C   0  0  0  0  0  0  0  0  0  0  0  0
   17.6377   25.2209   -3.2556 F   0  0  0  0  0  0  0  0  0  0  0  0
   13.9091   29.3122   -4.0254 C   0  0  0  0  0  0  0  0  0  0  0  0
   12.6313   29.2476   -3.4892 C   0  0  0  0  0  0  0  0  0  0  0  0
   12.2170   28.1290   -2.8225 F   0  0  0  0  0  0  0  0  0  0  0  0
   11.7186   30.2703   -3.5978 C   0  0  0  0  0  0  0  0  0  0  0  0
   12.0457   31.4203   -4.2548 C   0  0  0  0  0  0  0  0  0  0  0  0
   13.3232   31.5183   -4.8091 C   0  0  0  0  0  0  0  0  0  0  0  0
   14.2158   30.4759   -4.6839 C   0  0  0  0  0  0  0  0  0  0  0  0
   15.4765   30.5663   -5.2273 F   0  0  0  0  0  0  0  0  0  0  0  0
   14.1372   21.6237   -2.5286 C   0  0  0  0  0  0  0  0  0  0  0  0
   13.4144   20.4487   -2.7632 C   0  0  0  0  0  0  0  0  0  0  0  0
   13.3982   19.8231   -3.9984 C   0  0  0  0  0  0  0  0  0  0  0  0
   14.0796   20.3258   -5.0195 N   0  0  0  0  0  0  0  0  0  0  0  0
   14.7847   21.4628   -4.8209 C   0  0  0  0  0  0  0  0  0  0  0  0
   14.8262   22.1116   -3.6364 C   0  0  0  0  0  0  0  0  0  0  0  0
   11.2312   23.7853    0.5086 C   0  0  0  0  0  0  0  0  0  0  0  0
   12.7031   23.2461    0.5003 C   0  0  0  0  0  0  0  0  0  0  0  0
   13.6083   24.4781    0.5948 C   0  0  0  0  0  0  0  0  0  0  0  0
   14.9889   24.0505    0.2744 C   0  0  0  0  0  0  0  0  0  0  0  0
   15.9459   25.0774    0.4760 N   0  0  0  0  0  0  0  0  0  0  0  0
   15.0814   23.5330   -1.1868 C   0  0  0  0  0  0  0  0  0  0  0  0
   14.3344   22.2034   -1.2212 C   0  0  0  0  0  0  0  0  0  0  0  0
   12.8639   22.6310   -0.8236 C   0  0  0  0  0  0  0  0  0  0  0  0
   16.9378   24.7779    0.2799 H   0  0  0  0  0  0  0  0  0  0  0  0
   15.8648   25.6449    1.3285 H   0  0  0  0  0  0  0  0  0  0  0  0
 26 27  1  0  0  0
 27 28  1  0  0  0
 28 29  1  0  0  0
 29 30  1  0  0  0
 29 31  1  0  0  0
 31 32  1  0  0  0
 32 20  1  0  0  0
 20 21  2  0  0  0
 21 22  1  0  0  0
 22 23  2  0  0  0
 23 24  1  0  0  0
 24 25  2  0  0  0
 25  1  1  0  0  0
  1  2  1  0  0  0
  2  3  2  0  0  0
  2  5  1  0  0  0
  5  6  2  0  0  0
  6  7  1  0  0  0
  7 12  1  0  0  0
 12 13  2  0  0  0
 13 14  1  0  0  0
 13 15  1  0  0  0
 15 16  2  0  0  0
 16 17  1  0  0  0
 17 18  2  0  0  0
 18 19  1  0  0  0
  7  8  2  0  0  0
  8  9  1  0  0  0
  9 10  2  0  0  0
 10 11  1  0  0  0
 32 33  1  0  0  0
 33 27  1  0  0  0
 25 20  1  0  0  0
 10  5  1  0  0  0
 18 12  1  0  0  0
 30 34  1  0  0  0
 30 35  1  0  0  0
  1  4  1  0  0  0
M  END
> <minimizedAffinity>
27.59437

> <CNNscore>
0.4369808435

> <CNNaffinity>
7.3340682983

> <CNN_VS>
3.2048473358

> <CNNaffinity_variance>
0.9786429405

$$$$
[H]c1nc([H])c(N([H])C(=O)c2nc(-c3c(F)c([H])c([H])c([H])c3F)c([H])c([H])c2F)c([C@@]2([H])C([H])([H])[C@@]([H])(N([H])[H])C([H])([H])[C@@]([H])(C([H])([H])[H])C2([H])[H])c1[H]


 35 38  0  0  0  0  0  0  0  0999 V2000
   14.1501   22.4567   -1.9598 N   0  0  0  0  0  0  0  0  0  0  0  0
   14.9852   22.3344   -3.0749 C   0  0  0  0  0  0  0  0  0  0  0  0
   15.6910   21.2536   -3.2141 O   0  0  0  0  0  0  0  0  0  0  0  0
   13.5799   23.3280   -1.8673 H   0  0  0  0  0  0  0  0  0  0  0  0
   15.1818   23.2792   -4.1621 C   0  0  0  0  0  0  0  0  0  0  0  0
   15.5904   24.5296   -3.8801 N   0  0  0  0  0  0  0  0  0  0  0  0
   15.8205   25.5162   -4.7488 C   0  0  0  0  0  0  0  0  0  0  0  0
   15.6041   25.2083   -6.1002 C   0  0  0  0  0  0  0  0  0  0  0  0
   15.1820   23.9475   -6.4677 C   0  0  0  0  0  0  0  0  0  0  0  0
   14.9764   22.9943   -5.4749 C   0  0  0  0  0  0  0  0  0  0  0  0
   14.5491   21.7416   -5.8881 F   0  0  0  0  0  0  0  0  0  0  0  0
   16.3122   26.8312   -4.3981 C   0  0  0  0  0  0  0  0  0  0  0  0
   16.1585   27.3534   -3.1221 C   0  0  0  0  0  0  0  0  0  0  0  0
   15.4944   26.6451   -2.1605 F   0  0  0  0  0  0  0  0  0  0  0  0
   16.6406   28.5869   -2.7522 C   0  0  0  0  0  0  0  0  0  0  0  0
   17.3085   29.3649   -3.6521 C   0  0  0  0  0  0  0  0  0  0  0  0
   17.4792   28.8712   -4.9466 C   0  0  0  0  0  0  0  0  0  0  0  0
   16.9840   27.6311   -5.2872 C   0  0  0  0  0  0  0  0  0  0  0  0
   17.1495   27.1384   -6.5611 F   0  0  0  0  0  0  0  0  0  0  0  0
   13.4786   21.7835    0.2092 C   0  0  0  0  0  0  0  0  0  0  0  0
   13.3226   20.7262    1.1126 C   0  0  0  0  0  0  0  0  0  0  0  0
   13.7405   19.4379    0.8245 C   0  0  0  0  0  0  0  0  0  0  0  0
   14.3132   19.1575   -0.3388 N   0  0  0  0  0  0  0  0  0  0  0  0
   14.4736   20.1606   -1.2317 C   0  0  0  0  0  0  0  0  0  0  0  0
   14.0771   21.4310   -0.9981 C   0  0  0  0  0  0  0  0  0  0  0  0
    9.6167   24.1266    1.6010 C   0  0  0  0  0  0  0  0  0  0  0  0
   11.1504   24.4121    1.4470 C   0  0  0  0  0  0  0  0  0  0  0  0
   11.2812   25.4363    0.3155 C   0  0  0  0  0  0  0  0  0  0  0  0
   12.7075   25.4977   -0.0761 C   0  0  0  0  0  0  0  0  0  0  0  0
   12.9784   26.5242   -1.0162 N   0  0  0  0  0  0  0  0  0  0  0  0
   13.1831   24.1331   -0.6447 C   0  0  0  0  0  0  0  0  0  0  0  0
   13.2320   23.1679    0.5356 C   0  0  0  0  0  0  0  0  0  0  0  0
   11.7221   23.1330    1.0070 C   0  0  0  0  0  0  0  0  0  0  0  0
   13.9961   26.5988   -1.2821 H   0  0  0  0  0  0  0  0  0  0  0  0
   12.5413   27.4409   -0.8613 H   0  0  0  0  0  0  0  0  0  0  0  0
 26 27  1  0  0  0
 27 28  1  0  0  0
 28 29  1  0  0  0
 29 30  1  0  0  0
 29 31  1  0  0  0
 31 32  1  0  0  0
 32 20  1  0  0  0
 20 21  2  0  0  0
 21 22  1  0  0  0
 22 23  2  0  0  0
 23 24  1  0  0  0
 24 25  2  0  0  0
 25  1  1  0  0  0
  1  2  1  0  0  0
  2  3  2  0  0  0
  2  5  1  0  0  0
  5  6  2  0  0  0
  6  7  1  0  0  0
  7 12  1  0  0  0
 12 13  2  0  0  0
 13 14  1  0  0  0
 13 15  1  0  0  0
 15 16  2  0  0  0
 16 17  1  0  0  0
 17 18  2  0  0  0
 18 19  1  0  0  0
  7  8  2  0  0  0
  8  9  1  0  0  0
  9 10  2  0  0  0
 10 11  1  0  0  0
 32 33  1  0  0  0
 33 27  1  0  0  0
 25 20  1  0  0  0
 10  5  1  0  0  0
 18 12  1  0  0  0
 30 34  1  0  0  0
 30 35  1  0  0  0
  1  4  1  0  0  0
M  END
> <minimizedAffinity>
14.23003

> <CNNscore>
0.4282829463

> <CNNaffinity>
7.5480041504

> <CNN_VS>
3.2326815128

> <CNNaffinity_variance>
1.2041171789

$$$$
[H]c1nc([H])c(N([H])C(=O)c2nc(-c3c(F)c([H])c([H])c([H])c3F)c([H])c([H])c2F)c([C@@]2([H])C([H])([H])[C@@]([H])(N([H])[H])C([H])([H])[C@@]([H])(C([H])([H])[H])C2([H])[H])c1[H]


 35 38  0  0  0  0  0  0  0  0999 V2000
   14.2314   26.2599   -4.8471 N   0  0  0  0  0  0  0  0  0  0  0  0
   14.0372   25.1444   -4.0262 C   0  0  0  0  0  0  0  0  0  0  0  0
   14.4407   23.9825   -4.4416 O   0  0  0  0  0  0  0  0  0  0  0  0
   13.9109   27.1903   -4.4942 H   0  0  0  0  0  0  0  0  0  0  0  0
   13.4312   25.0911   -2.7059 C   0  0  0  0  0  0  0  0  0  0  0  0
   13.4200   23.9252   -2.0347 N   0  0  0  0  0  0  0  0  0  0  0  0
   12.9112   23.6998   -0.8217 C   0  0  0  0  0  0  0  0  0  0  0  0
   12.3203   24.8031   -0.1881 C   0  0  0  0  0  0  0  0  0  0  0  0
   12.2908   26.0318   -0.8146 C   0  0  0  0  0  0  0  0  0  0  0  0
   12.8558   26.1516   -2.0806 C   0  0  0  0  0  0  0  0  0  0  0  0
   12.8012   27.4033   -2.6750 F   0  0  0  0  0  0  0  0  0  0  0  0
   12.9728   22.4363   -0.1189 C   0  0  0  0  0  0  0  0  0  0  0  0
   14.1688   21.9251    0.3635 C   0  0  0  0  0  0  0  0  0  0  0  0
   15.3422   22.5923    0.1500 F   0  0  0  0  0  0  0  0  0  0  0  0
   14.2537   20.7424    1.0597 C   0  0  0  0  0  0  0  0  0  0  0  0
   13.1322   20.0071    1.3101 C   0  0  0  0  0  0  0  0  0  0  0  0
   11.9113   20.4910    0.8367 C   0  0  0  0  0  0  0  0  0  0  0  0
   11.8586   21.6797    0.1416 C   0  0  0  0  0  0  0  0  0  0  0  0
   10.6586   22.1625   -0.3271 F   0  0  0  0  0  0  0  0  0  0  0  0
   16.2269   26.3242   -6.1210 C   0  0  0  0  0  0  0  0  0  0  0  0
   16.8349   26.0901   -7.3594 C   0  0  0  0  0  0  0  0  0  0  0  0
   16.1144   25.7046   -8.4773 C   0  0  0  0  0  0  0  0  0  0  0  0
   14.7997   25.5412   -8.4107 N   0  0  0  0  0  0  0  0  0  0  0  0
   14.1868   25.7582   -7.2247 C   0  0  0  0  0  0  0  0  0  0  0  0
   14.8477   26.1296   -6.1062 C   0  0  0  0  0  0  0  0  0  0  0  0
   16.6168   25.0238   -1.5935 C   0  0  0  0  0  0  0  0  0  0  0  0
   17.2406   26.1019   -2.5454 C   0  0  0  0  0  0  0  0  0  0  0  0
   16.7357   27.4575   -2.0419 C   0  0  0  0  0  0  0  0  0  0  0  0
   17.0348   28.4665   -3.0830 C   0  0  0  0  0  0  0  0  0  0  0  0
   16.7484   29.7914   -2.6665 N   0  0  0  0  0  0  0  0  0  0  0  0
   16.2611   28.1543   -4.3927 C   0  0  0  0  0  0  0  0  0  0  0  0
   16.9038   26.9043   -4.9855 C   0  0  0  0  0  0  0  0  0  0  0  0
   16.6453   25.8241   -3.8588 C   0  0  0  0  0  0  0  0  0  0  0  0
   16.9845   30.5236   -3.3878 H   0  0  0  0  0  0  0  0  0  0  0  0
   17.0306   30.0650   -1.7174 H   0  0  0  0  0  0  0  0  0  0  0  0
 26 27  1  0  0  0
 27 28  1  0  0  0
 28 29  1  0  0  0
 29 30  1  0  0  0
 29 31  1  0  0  0
 31 32  1  0  0  0
 32 20  1  0  0  0
 20 21  2  0  0  0
 21 22  1  0  0  0
 22 23  2  0  0  0
 23 24  1  0  0  0
 24 25  2  0  0  0
 25  1  1  0  0  0
  1  2  1  0  0  0
  2  3  2  0  0  0
  2  5  1  0  0  0
  5  6  2  0  0  0
  6  7  1  0  0  0
  7 12  1  0  0  0
 12 13  2  0  0  0
 13 14  1  0  0  0
 13 15  1  0  0  0
 15 16  2  0  0  0
 16 17  1  0  0  0
 17 18  2  0  0  0
 18 19  1  0  0  0
  7  8  2  0  0  0
  8  9  1  0  0  0
  9 10  2  0  0  0
 10 11  1  0  0  0
 32 33  1  0  0  0
 33 27  1  0  0  0
 25 20  1  0  0  0
 10  5  1  0  0  0
 18 12  1  0  0  0
 30 34  1  0  0  0
 30 35  1  0  0  0
  1  4  1  0  0  0
M  END
> <minimizedAffinity>
2.76076

> <CNNscore>
0.4208750427

> <CNNaffinity>
7.6579055786

> <CNN_VS>
3.2230212688

> <CNNaffinity_variance>
0.3345153332

$$$$
[H]c1nc([H])c(N([H])C(=O)c2nc(-c3c(F)c([H])c([H])c([H])c3F)c([H])c([H])c2F)c([C@@]2([H])C([H])([H])[C@@]([H])(N([H])[H])C([H])([H])[C@@]([H])(C([H])([H])[H])C2([H])[H])c1[H]


 35 38  0  0  0  0  0  0  0  0999 V2000
   14.5750   22.2057   -0.8460 N   0  0  0  0  0  0  0  0  0  0  0  0
   14.3508   21.8526   -2.1805 C   0  0  0  0  0  0  0  0  0  0  0  0
   13.7081   20.7545   -2.4390 O   0  0  0  0  0  0  0  0  0  0  0  0
   15.0845   23.0981   -0.6537 H   0  0  0  0  0  0  0  0  0  0  0  0
   14.7392   22.5738   -3.3814 C   0  0  0  0  0  0  0  0  0  0  0  0
   14.8260   23.9158   -3.3428 N   0  0  0  0  0  0  0  0  0  0  0  0
   15.1671   24.7294   -4.3442 C   0  0  0  0  0  0  0  0  0  0  0  0
   15.4590   24.1090   -5.5680 C   0  0  0  0  0  0  0  0  0  0  0  0
   15.3893   22.7364   -5.6865 C   0  0  0  0  0  0  0  0  0  0  0  0
   15.0249   21.9858   -4.5728 C   0  0  0  0  0  0  0  0  0  0  0  0
   14.9641   20.6103   -4.7371 F   0  0  0  0  0  0  0  0  0  0  0  0
   15.2984   26.1665   -4.2363 C   0  0  0  0  0  0  0  0  0  0  0  0
   14.2476   27.0215   -4.5350 C   0  0  0  0  0  0  0  0  0  0  0  0
   13.0567   26.5232   -4.9831 F   0  0  0  0  0  0  0  0  0  0  0  0
   14.3340   28.3885   -4.4140 C   0  0  0  0  0  0  0  0  0  0  0  0
   15.4893   28.9713   -3.9818 C   0  0  0  0  0  0  0  0  0  0  0  0
   16.5681   28.1404   -3.6745 C   0  0  0  0  0  0  0  0  0  0  0  0
   16.4509   26.7737   -3.8065 C   0  0  0  0  0  0  0  0  0  0  0  0
   17.5101   25.9491   -3.5047 F   0  0  0  0  0  0  0  0  0  0  0  0
   12.9016   21.7559    0.7684 C   0  0  0  0  0  0  0  0  0  0  0  0
   12.4157   20.8715    1.7378 C   0  0  0  0  0  0  0  0  0  0  0  0
   13.1013   19.7260    2.1057 C   0  0  0  0  0  0  0  0  0  0  0  0
   14.2628   19.4230    1.5411 N   0  0  0  0  0  0  0  0  0  0  0  0
   14.7542   20.2595    0.5987 C   0  0  0  0  0  0  0  0  0  0  0  0
   14.1193   21.3847    0.2031 C   0  0  0  0  0  0  0  0  0  0  0  0
    8.4600   23.3715    0.8340 C   0  0  0  0  0  0  0  0  0  0  0  0
    9.9038   23.9622    0.6792 C   0  0  0  0  0  0  0  0  0  0  0  0
    9.9994   24.4814   -0.7587 C   0  0  0  0  0  0  0  0  0  0  0  0
   11.4254   24.7557   -1.0465 C   0  0  0  0  0  0  0  0  0  0  0  0
   11.6244   25.3851   -2.3016 N   0  0  0  0  0  0  0  0  0  0  0  0
   12.2629   23.4496   -0.9811 C   0  0  0  0  0  0  0  0  0  0  0  0
   12.3202   23.0475    0.4893 C   0  0  0  0  0  0  0  0  0  0  0  0
   10.7951   22.8053    0.8336 C   0  0  0  0  0  0  0  0  0  0  0  0
   12.6332   25.6133   -2.5070 H   0  0  0  0  0  0  0  0  0  0  0  0
   10.9855   26.1468   -2.5602 H   0  0  0  0  0  0  0  0  0  0  0  0
 26 27  1  0  0  0
 27 28  1  0  0  0
 28 29  1  0  0  0
 29 30  1  0  0  0
 29 31  1  0  0  0
 31 32  1  0  0  0
 32 20  1  0  0  0
 20 21  2  0  0  0
 21 22  1  0  0  0
 22 23  2  0  0  0
 23 24  1  0  0  0
 24 25  2  0  0  0
 25  1  1  0  0  0
  1  2  1  0  0  0
  2  3  2  0  0  0
  2  5  1  0  0  0
  5  6  2  0  0  0
  6  7  1  0  0  0
  7 12  1  0  0  0
 12 13  2  0  0  0
 13 14  1  0  0  0
 13 15  1  0  0  0
 15 16  2  0  0  0
 16 17  1  0  0  0
 17 18  2  0  0  0
 18 19  1  0  0  0
  7  8  2  0  0  0
  8  9  1  0  0  0
  9 10  2  0  0  0
 10 11  1  0  0  0
 32 33  1  0  0  0
 33 27  1  0  0  0
 25 20  1  0  0  0
 10  5  1  0  0  0
 18 12  1  0  0  0
 30 34  1  0  0  0
 30 35  1  0  0  0
  1  4  1  0  0  0
M  END
> <minimizedAffinity>
4.59870

> <CNNscore>
0.3881018460

> <CNNaffinity>
7.5494713783

> <CNN_VS>
2.9299638271

> <CNNaffinity_variance>
0.5874541998

$$$$
[H]c1nc([H])c(N([H])C(=O)c2nc(-c3c(F)c([H])c([H])c([H])c3F)c([H])c([H])c2F)c([C@@]2([H])C([H])([H])[C@@]([H])(N([H])[H])C([H])([H])[C@@]([H])(C([H])([H])[H])C2([H])[H])c1[H]


 35 38  0  0  0  0  0  0  0  0999 V2000
   13.6226   22.4963    1.0021 N   0  0  0  0  0  0  0  0  0  0  0  0
   14.1477   22.6999   -0.2780 C   0  0  0  0  0  0  0  0  0  0  0  0
   13.6030   22.0862   -1.2841 O   0  0  0  0  0  0  0  0  0  0  0  0
   14.0652   23.0057    1.8006 H   0  0  0  0  0  0  0  0  0  0  0  0
   15.2609   23.5480   -0.6714 C   0  0  0  0  0  0  0  0  0  0  0  0
   15.1982   24.2155   -1.8379 N   0  0  0  0  0  0  0  0  0  0  0  0
   16.1220   25.0322   -2.3484 C   0  0  0  0  0  0  0  0  0  0  0  0
   17.2840   25.2021   -1.5811 C   0  0  0  0  0  0  0  0  0  0  0  0
   17.4227   24.5484   -0.3743 C   0  0  0  0  0  0  0  0  0  0  0  0
   16.3917   23.7218    0.0619 C   0  0  0  0  0  0  0  0  0  0  0  0
   16.5742   23.0817    1.2784 F   0  0  0  0  0  0  0  0  0  0  0  0
   15.9828   25.7706   -3.5851 C   0  0  0  0  0  0  0  0  0  0  0  0
   16.4032   27.0874   -3.7022 C   0  0  0  0  0  0  0  0  0  0  0  0
   16.9312   27.7430   -2.6257 F   0  0  0  0  0  0  0  0  0  0  0  0
   16.3104   27.8043   -4.8719 C   0  0  0  0  0  0  0  0  0  0  0  0
   15.7875   27.2301   -5.9935 C   0  0  0  0  0  0  0  0  0  0  0  0
   15.3521   25.9063   -5.9107 C   0  0  0  0  0  0  0  0  0  0  0  0
   15.4580   25.2141   -4.7238 C   0  0  0  0  0  0  0  0  0  0  0  0
   15.0314   23.9090   -4.6355 F   0  0  0  0  0  0  0  0  0  0  0  0
   11.2800   22.1697    0.8813 C   0  0  0  0  0  0  0  0  0  0  0  0
   10.2151   21.2684    0.9895 C   0  0  0  0  0  0  0  0  0  0  0  0
   10.3936   19.9559    1.3930 C   0  0  0  0  0  0  0  0  0  0  0  0
   11.6021   19.5004    1.6959 N   0  0  0  0  0  0  0  0  0  0  0  0
   12.6498   20.3500    1.5971 C   0  0  0  0  0  0  0  0  0  0  0  0
   12.5260   21.6364    1.2028 C   0  0  0  0  0  0  0  0  0  0  0  0
   12.2154   24.9513   -2.8240 C   0  0  0  0  0  0  0  0  0  0  0  0
   11.4899   25.0734   -1.4397 C   0  0  0  0  0  0  0  0  0  0  0  0
   12.3414   26.0266   -0.5955 C   0  0  0  0  0  0  0  0  0  0  0  0
   11.8773   25.9259    0.8066 C   0  0  0  0  0  0  0  0  0  0  0  0
   12.4918   26.8761    1.6613 N   0  0  0  0  0  0  0  0  0  0  0  0
   12.1122   24.4960    1.3646 C   0  0  0  0  0  0  0  0  0  0  0  0
   11.1197   23.5854    0.6485 C   0  0  0  0  0  0  0  0  0  0  0  0
   11.5631   23.7244   -0.8639 C   0  0  0  0  0  0  0  0  0  0  0  0
   12.1488   26.8356    2.6576 H   0  0  0  0  0  0  0  0  0  0  0  0
   12.5880   27.8383    1.3145 H   0  0  0  0  0  0  0  0  0  0  0  0
 26 27  1  0  0  0
 27 28  1  0  0  0
 28 29  1  0  0  0
 29 30  1  0  0  0
 29 31  1  0  0  0
 31 32  1  0  0  0
 32 20  1  0  0  0
 20 21  2  0  0  0
 21 22  1  0  0  0
 22 23  2  0  0  0
 23 24  1  0  0  0
 24 25  2  0  0  0
 25  1  1  0  0  0
  1  2  1  0  0  0
  2  3  2  0  0  0
  2  5  1  0  0  0
  5  6  2  0  0  0
  6  7  1  0  0  0
  7 12  1  0  0  0
 12 13  2  0  0  0
 13 14  1  0  0  0
 13 15  1  0  0  0
 15 16  2  0  0  0
 16 17  1  0  0  0
 17 18  2  0  0  0
 18 19  1  0  0  0
  7  8  2  0  0  0
  8  9  1  0  0  0
  9 10  2  0  0  0
 10 11  1  0  0  0
 32 33  1  0  0  0
 33 27  1  0  0  0
 25 20  1  0  0  0
 10  5  1  0  0  0
 18 12  1  0  0  0
 30 34  1  0  0  0
 30 35  1  0  0  0
  1  4  1  0  0  0
M  END
> <minimizedAffinity>
-2.03168

> <CNNscore>
0.3749424219

> <CNNaffinity>
7.8752670288

> <CNN_VS>
2.9527716637

> <CNNaffinity_variance>
0.3247045875

$$$$
[H]c1nc([H])c(N([H])C(=O)c2nc(-c3c(F)c([H])c([H])c([H])c3F)c([H])c([H])c2F)c([C@@]2([H])C([H])([H])[C@@]([H])(N([H])[H])C([H])([H])[C@@]([H])(C([H])([H])[H])C2([H])[H])c1[H]


 35 38  0  0  0  0  0  0  0  0999 V2000
   12.5452   23.5224   -0.3576 N   0  0  0  0  0  0  0  0  0  0  0  0
   11.7414   23.2027    0.7413 C   0  0  0  0  0  0  0  0  0  0  0  0
   12.3060   22.9963    1.8920 O   0  0  0  0  0  0  0  0  0  0  0  0
   12.0751   23.6964   -1.2751 H   0  0  0  0  0  0  0  0  0  0  0  0
   10.2945   23.0721    0.7924 C   0  0  0  0  0  0  0  0  0  0  0  0
    9.7114   21.9981    0.2298 N   0  0  0  0  0  0  0  0  0  0  0  0
    8.4067   21.7208    0.1869 C   0  0  0  0  0  0  0  0  0  0  0  0
    7.5583   22.6604    0.7913 C   0  0  0  0  0  0  0  0  0  0  0  0
    8.0820   23.7890    1.3870 C   0  0  0  0  0  0  0  0  0  0  0  0
    9.4612   23.9740    1.3746 C   0  0  0  0  0  0  0  0  0  0  0  0
    9.9445   25.1233    1.9815 F   0  0  0  0  0  0  0  0  0  0  0  0
    7.8328   20.5217   -0.3848 C   0  0  0  0  0  0  0  0  0  0  0  0
    6.8655   19.7840    0.2820 C   0  0  0  0  0  0  0  0  0  0  0  0
    6.4525   20.1541    1.5309 F   0  0  0  0  0  0  0  0  0  0  0  0
    6.2816   18.6577   -0.2485 C   0  0  0  0  0  0  0  0  0  0  0  0
    6.6414   18.2119   -1.4866 C   0  0  0  0  0  0  0  0  0  0  0  0
    7.6141   18.9294   -2.1850 C   0  0  0  0  0  0  0  0  0  0  0  0
    8.1813   20.0542   -1.6264 C   0  0  0  0  0  0  0  0  0  0  0  0
    9.1400   20.7662   -2.3097 F   0  0  0  0  0  0  0  0  0  0  0  0
   14.5863   24.3953   -1.1827 C   0  0  0  0  0  0  0  0  0  0  0  0
   15.9606   24.5579   -0.9753 C   0  0  0  0  0  0  0  0  0  0  0  0
   16.6222   23.9777    0.0939 C   0  0  0  0  0  0  0  0  0  0  0  0
   15.9634   23.2347    0.9735 N   0  0  0  0  0  0  0  0  0  0  0  0
   14.6332   23.0636    0.7983 C   0  0  0  0  0  0  0  0  0  0  0  0
   13.9439   23.6139   -0.2252 C   0  0  0  0  0  0  0  0  0  0  0  0
   15.9826   25.0917   -5.6445 C   0  0  0  0  0  0  0  0  0  0  0  0
   14.6332   25.0496   -4.8477 C   0  0  0  0  0  0  0  0  0  0  0  0
   14.0814   26.4783   -4.8690 C   0  0  0  0  0  0  0  0  0  0  0  0
   12.9871   26.5553   -3.8750 C   0  0  0  0  0  0  0  0  0  0  0  0
   12.2957   27.7929   -3.9096 N   0  0  0  0  0  0  0  0  0  0  0  0
   13.5252   26.3002   -2.4408 C   0  0  0  0  0  0  0  0  0  0  0  0
   13.8934   24.8213   -2.3754 C   0  0  0  0  0  0  0  0  0  0  0  0
   15.0251   24.7053   -3.4749 C   0  0  0  0  0  0  0  0  0  0  0  0
   11.4942   27.8507   -3.2268 H   0  0  0  0  0  0  0  0  0  0  0  0
   12.0602   28.1826   -4.8305 H   0  0  0  0  0  0  0  0  0  0  0  0
 26 27  1  0  0  0
 27 28  1  0  0  0
 28 29  1  0  0  0
 29 30  1  0  0  0
 29 31  1  0  0  0
 31 32  1  0  0  0
 32 20  1  0  0  0
 20 21  2  0  0  0
 21 22  1  0  0  0
 22 23  2  0  0  0
 23 24  1  0  0  0
 24 25  2  0  0  0
 25  1  1  0  0  0
  1  2  1  0  0  0
  2  3  2  0  0  0
  2  5  1  0  0  0
  5  6  2  0  0  0
  6  7  1  0  0  0
  7 12  1  0  0  0
 12 13  2  0  0  0
 13 14  1  0  0  0
 13 15  1  0  0  0
 15 16  2  0  0  0
 16 17  1  0  0  0
 17 18  2  0  0  0
 18 19  1  0  0  0
  7  8  2  0  0  0
  8  9  1  0  0  0
  9 10  2  0  0  0
 10 11  1  0  0  0
 32 33  1  0  0  0
 33 27  1  0  0  0
 25 20  1  0  0  0
 10  5  1  0  0  0
 18 12  1  0  0  0
 30 34  1  0  0  0
 30 35  1  0  0  0
  1  4  1  0  0  0
M  END
> <minimizedAffinity>
-6.51309

> <CNNscore>
0.3714286685

> <CNNaffinity>
7.9371252060

> <CNN_VS>
2.9480757713

> <CNNaffinity_variance>
0.6654084325

$$$$
[H]c1nc([H])c(N([H])C(=O)c2nc(-c3c(F)c([H])c([H])c([H])c3F)c([H])c([H])c2F)c([C@@]2([H])C([H])([H])[C@@]([H])(N([H])[H])C([H])([H])[C@@]([H])(C([H])([H])[H])C2([H])[H])c1[H]


 35 38  0  0  0  0  0  0  0  0999 V2000
   13.8939   23.6430   -0.3767 N   0  0  0  0  0  0  0  0  0  0  0  0
   13.8953   23.7411   -1.7718 C   0  0  0  0  0  0  0  0  0  0  0  0
   14.1707   22.6846   -2.4743 O   0  0  0  0  0  0  0  0  0  0  0  0
   13.6597   24.4995    0.1750 H   0  0  0  0  0  0  0  0  0  0  0  0
   13.6084   24.9050   -2.5940 C   0  0  0  0  0  0  0  0  0  0  0  0
   14.3999   25.1765   -3.6475 N   0  0  0  0  0  0  0  0  0  0  0  0
   14.2811   26.1946   -4.5022 C   0  0  0  0  0  0  0  0  0  0  0  0
   13.2157   27.0756   -4.2645 C   0  0  0  0  0  0  0  0  0  0  0  0
   12.3621   26.8646   -3.2016 C   0  0  0  0  0  0  0  0  0  0  0  0
   12.5801   25.7662   -2.3755 C   0  0  0  0  0  0  0  0  0  0  0  0
   11.7007   25.5939   -1.3174 F   0  0  0  0  0  0  0  0  0  0  0  0
   15.1289   26.4124   -5.6545 C   0  0  0  0  0  0  0  0  0  0  0  0
   15.3266   25.4296   -6.6135 C   0  0  0  0  0  0  0  0  0  0  0  0
   14.7488   24.1993   -6.4721 F   0  0  0  0  0  0  0  0  0  0  0  0
   16.1028   25.6178   -7.7329 C   0  0  0  0  0  0  0  0  0  0  0  0
   16.7241   26.8130   -7.9488 C   0  0  0  0  0  0  0  0  0  0  0  0
   16.5486   27.8239   -7.0022 C   0  0  0  0  0  0  0  0  0  0  0  0
   15.7649   27.6048   -5.8901 C   0  0  0  0  0  0  0  0  0  0  0  0
   15.5873   28.5971   -4.9538 F   0  0  0  0  0  0  0  0  0  0  0  0
   13.0948   21.6143    0.5480 C   0  0  0  0  0  0  0  0  0  0  0  0
   13.4184   20.3640    1.0865 C   0  0  0  0  0  0  0  0  0  0  0  0
   14.7264   19.9739    1.3197 C   0  0  0  0  0  0  0  0  0  0  0  0
   15.7350   20.7870    1.0350 N   0  0  0  0  0  0  0  0  0  0  0  0
   15.4505   22.0008    0.5105 C   0  0  0  0  0  0  0  0  0  0  0  0
   14.1917   22.4232    0.2603 C   0  0  0  0  0  0  0  0  0  0  0  0
    9.8319   22.6559    3.8053 C   0  0  0  0  0  0  0  0  0  0  0  0
   10.0282   22.8475    2.2619 C   0  0  0  0  0  0  0  0  0  0  0  0
    8.9739   21.9656    1.5859 C   0  0  0  0  0  0  0  0  0  0  0  0
    9.3200   21.8672    0.1500 C   0  0  0  0  0  0  0  0  0  0  0  0
    8.3296   21.1968   -0.6121 N   0  0  0  0  0  0  0  0  0  0  0  0
   10.6896   21.1605   -0.0405 C   0  0  0  0  0  0  0  0  0  0  0  0
   11.7506   22.1340    0.4631 C   0  0  0  0  0  0  0  0  0  0  0  0
   11.3625   22.2985    1.9880 C   0  0  0  0  0  0  0  0  0  0  0  0
    8.5492   21.1452   -1.6422 H   0  0  0  0  0  0  0  0  0  0  0  0
    7.3463   21.4303   -0.4280 H   0  0  0  0  0  0  0  0  0  0  0  0
 26 27  1  0  0  0
 27 28  1  0  0  0
 28 29  1  0  0  0
 29 30  1  0  0  0
 29 31  1  0  0  0
 31 32  1  0  0  0
 32 20  1  0  0  0
 20 21  2  0  0  0
 21 22  1  0  0  0
 22 23  2  0  0  0
 23 24  1  0  0  0
 24 25  2  0  0  0
 25  1  1  0  0  0
  1  2  1  0  0  0
  2  3  2  0  0  0
  2  5  1  0  0  0
  5  6  2  0  0  0
  6  7  1  0  0  0
  7 12  1  0  0  0
 12 13  2  0  0  0
 13 14  1  0  0  0
 13 15  1  0  0  0
 15 16  2  0  0  0
 16 17  1  0  0  0
 17 18  2  0  0  0
 18 19  1  0  0  0
  7  8  2  0  0  0
  8  9  1  0  0  0
  9 10  2  0  0  0
 10 11  1  0  0  0
 32 33  1  0  0  0
 33 27  1  0  0  0
 25 20  1  0  0  0
 10  5  1  0  0  0
 18 12  1  0  0  0
 30 34  1  0  0  0
 30 35  1  0  0  0
  1  4  1  0  0  0
M  END
> <minimizedAffinity>
-4.08911

> <CNNscore>
0.3696770966

> <CNNaffinity>
7.7030510902

> <CNN_VS>
2.8476414680

> <CNNaffinity_variance>
0.3579256535

$$$$
[H]c1nc([H])c(N([H])C(=O)c2nc(-c3c(F)c([H])c([H])c([H])c3F)c([H])c([H])c2F)c([C@@]2([H])C([H])([H])[C@@]([H])(N([H])[H])C([H])([H])[C@@]([H])(C([H])([H])[H])C2([H])[H])c1[H]


 35 38  0  0  0  0  0  0  0  0999 V2000
   13.0185   23.4731   -0.5236 N   0  0  0  0  0  0  0  0  0  0  0  0
   12.3530   22.7563    0.4760 C   0  0  0  0  0  0  0  0  0  0  0  0
   13.0148   22.3905    1.5314 O   0  0  0  0  0  0  0  0  0  0  0  0
   12.4696   23.7701   -1.3623 H   0  0  0  0  0  0  0  0  0  0  0  0
   10.9580   22.3496    0.5171 C   0  0  0  0  0  0  0  0  0  0  0  0
   10.2070   22.6846    1.5820 N   0  0  0  0  0  0  0  0  0  0  0  0
    8.9191   22.3968    1.7810 C   0  0  0  0  0  0  0  0  0  0  0  0
    8.2902   21.6591    0.7671 C   0  0  0  0  0  0  0  0  0  0  0  0
    8.9957   21.2765   -0.3549 C   0  0  0  0  0  0  0  0  0  0  0  0
   10.3362   21.6356   -0.4577 C   0  0  0  0  0  0  0  0  0  0  0  0
   11.0081   21.2276   -1.6000 F   0  0  0  0  0  0  0  0  0  0  0  0
    8.1405   22.8279    2.9221 C   0  0  0  0  0  0  0  0  0  0  0  0
    7.6842   24.1321    3.0456 C   0  0  0  0  0  0  0  0  0  0  0  0
    7.9962   25.0665    2.0986 F   0  0  0  0  0  0  0  0  0  0  0  0
    6.9184   24.5629    4.1034 C   0  0  0  0  0  0  0  0  0  0  0  0
    6.5677   23.6982    5.0986 C   0  0  0  0  0  0  0  0  0  0  0  0
    7.0120   22.3780    5.0073 C   0  0  0  0  0  0  0  0  0  0  0  0
    7.7787   21.9765    3.9349 C   0  0  0  0  0  0  0  0  0  0  0  0
    8.2193   20.6766    3.8385 F   0  0  0  0  0  0  0  0  0  0  0  0
   14.8890   24.6643   -1.3551 C   0  0  0  0  0  0  0  0  0  0  0  0
   16.2195   25.0472   -1.1520 C   0  0  0  0  0  0  0  0  0  0  0  0
   16.9695   24.5821   -0.0849 C   0  0  0  0  0  0  0  0  0  0  0  0
   16.4424   23.7428    0.7967 N   0  0  0  0  0  0  0  0  0  0  0  0
   15.1568   23.3587    0.6258 C   0  0  0  0  0  0  0  0  0  0  0  0
   14.3843   23.7897   -0.3956 C   0  0  0  0  0  0  0  0  0  0  0  0
   16.1268   25.4093   -5.8556 C   0  0  0  0  0  0  0  0  0  0  0  0
   14.8040   25.2243   -5.0350 C   0  0  0  0  0  0  0  0  0  0  0  0
   14.0821   26.5745   -5.0811 C   0  0  0  0  0  0  0  0  0  0  0  0
   13.0007   26.5438   -4.0705 C   0  0  0  0  0  0  0  0  0  0  0  0
   12.1633   27.6870   -4.1229 N   0  0  0  0  0  0  0  0  0  0  0  0
   13.5861   26.3931   -2.6401 C   0  0  0  0  0  0  0  0  0  0  0  0
   14.1326   24.9720   -2.5456 C   0  0  0  0  0  0  0  0  0  0  0  0
   15.2543   24.9658   -3.6613 C   0  0  0  0  0  0  0  0  0  0  0  0
   11.3705   27.6648   -3.4280 H   0  0  0  0  0  0  0  0  0  0  0  0
   11.8691   28.0212   -5.0487 H   0  0  0  0  0  0  0  0  0  0  0  0
 26 27  1  0  0  0
 27 28  1  0  0  0
 28 29  1  0  0  0
 29 30  1  0  0  0
 29 31  1  0  0  0
 31 32  1  0  0  0
 32 20  1  0  0  0
 20 21  2  0  0  0
 21 22  1  0  0  0
 22 23  2  0  0  0
 23 24  1  0  0  0
 24 25  2  0  0  0
 25  1  1  0  0  0
  1  2  1  0  0  0
  2  3  2  0  0  0
  2  5  1  0  0  0
  5  6  2  0  0  0
  6  7  1  0  0  0
  7 12  1  0  0  0
 12 13  2  0  0  0
 13 14  1  0  0  0
 13 15  1  0  0  0
 15 16  2  0  0  0
 16 17  1  0  0  0
 17 18  2  0  0  0
 18 19  1  0  0  0
  7  8  2  0  0  0
  8  9  1  0  0  0
  9 10  2  0  0  0
 10 11  1  0  0  0
 32 33  1  0  0  0
 33 27  1  0  0  0
 25 20  1  0  0  0
 10  5  1  0  0  0
 18 12  1  0  0  0
 30 34  1  0  0  0
 30 35  1  0  0  0
  1  4  1  0  0  0
M  END
> <minimizedAffinity>
-6.78874

> <CNNscore>
0.3536338508

> <CNNaffinity>
7.8234381676

> <CNN_VS>
2.7666325569

> <CNNaffinity_variance>
0.9115804434

$$$$
[H]OC(=O)C1(C([H])([H])c2c([H])nc(OC([H])([H])C([H])([H])c3nc(-c4c([H])c([H])c([H])c(Cl)c4[H])oc3C([H])([H])[H])c([H])c2[H])OC([H])([H])C([H])([H])C1([H])[H]


 32 35  0  0  0  0  0  0  0  0999 V2000
   13.0410   26.6226   -2.5406 O   0  0  0  0  0  0  0  0  0  0  0  0
   12.3136   25.7847   -1.7133 C   0  0  0  0  0  0  0  0  0  0  0  0
   11.2744   25.0157   -2.2626 C   0  0  0  0  0  0  0  0  0  0  0  0
   10.5317   24.1705   -1.4604 C   0  0  0  0  0  0  0  0  0  0  0  0
   10.7782   24.0506   -0.1080 C   0  0  0  0  0  0  0  0  0  0  0  0
   11.7998   24.8209    0.3778 C   0  0  0  0  0  0  0  0  0  0  0  0
   12.5156   25.6381   -0.4066 N   0  0  0  0  0  0  0  0  0  0  0  0
    9.9923   23.1524    0.7376 C   0  0  0  0  0  0  0  0  0  0  0  0
   10.5882   21.8365    1.0806 C   0  0  0  0  0  0  0  0  0  0  0  0
    9.5472   20.7321    0.9748 C   0  0  0  0  0  0  0  0  0  0  0  0
    9.4638   20.5855   -0.5318 C   0  0  0  0  0  0  0  0  0  0  0  0
   10.8369   20.9697   -0.9626 C   0  0  0  0  0  0  0  0  0  0  0  0
   11.5305   21.5196    0.0856 O   0  0  0  0  0  0  0  0  0  0  0  0
   11.3010   21.7707    2.3731 C   0  0  0  0  0  0  0  0  0  0  0  0
   10.6625   21.7346    3.4827 O   0  0  0  0  0  0  0  0  0  0  0  0
   12.6791   21.7449    2.5104 O   0  0  0  0  0  0  0  0  0  0  0  0
   13.0678   21.0877    3.1720 H   0  0  0  0  0  0  0  0  0  0  0  0
   13.0230   26.6465   -3.9349 C   0  0  0  0  0  0  0  0  0  0  0  0
   14.4484   26.5255   -4.4541 C   0  0  0  0  0  0  0  0  0  0  0  0
   17.2587   27.5878   -3.4865 C   0  0  0  0  0  0  0  0  0  0  0  0
   16.4934   26.4475   -2.9177 C   0  0  0  0  0  0  0  0  0  0  0  0
   16.8552   25.6894   -1.9224 O   0  0  0  0  0  0  0  0  0  0  0  0
   15.9599   24.7773   -1.6677 C   0  0  0  0  0  0  0  0  0  0  0  0
   14.9623   24.9555   -2.5478 N   0  0  0  0  0  0  0  0  0  0  0  0
   15.2542   25.9923   -3.3517 C   0  0  0  0  0  0  0  0  0  0  0  0
   16.0157   23.7555   -0.6329 C   0  0  0  0  0  0  0  0  0  0  0  0
   16.7922   23.8547    0.5007 C   0  0  0  0  0  0  0  0  0  0  0  0
   16.8208   22.8681    1.4652 C   0  0  0  0  0  0  0  0  0  0  0  0
   16.0610   21.7254    1.3295 C   0  0  0  0  0  0  0  0  0  0  0  0
   15.2671   21.5911    0.2013 C   0  0  0  0  0  0  0  0  0  0  0  0
   14.2772   20.1505   -0.0197 Cl  0  0  0  0  0  0  0  0  0  0  0  0
   15.2539   22.5882   -0.7488 C   0  0  0  0  0  0  0  0  0  0  0  0
 20 21  1  0  0  0
 21 22  1  0  0  0
 22 23  1  0  0  0
 23 26  1  0  0  0
 26 27  2  0  0  0
 27 28  1  0  0  0
 28 29  2  0  0  0
 29 30  1  0  0  0
 30 31  1  0  0  0
 30 32  2  0  0  0
 23 24  2  0  0  0
 24 25  1  0  0  0
 25 19  1  0  0  0
 19 18  1  0  0  0
 18  1  1  0  0  0
  1  2  1  0  0  0
  2  3  2  0  0  0
  3  4  1  0  0  0
  4  5  2  0  0  0
  5  8  1  0  0  0
  8  9  1  0  0  0
  9 14  1  0  0  0
 14 15  2  0  0  0
 14 16  1  0  0  0
  9 10  1  0  0  0
 10 11  1  0  0  0
 11 12  1  0  0  0
 12 13  1  0  0  0
  5  6  1  0  0  0
  6  7  2  0  0  0
 25 21  2  0  0  0
  7  2  1  0  0  0
 32 26  1  0  0  0
 13  9  1  0  0  0
 16 17  1  0  0  0
M  END
> <minimizedAffinity>
-5.02487

> <CNNscore>
0.5217286348

> <CNNaffinity>
7.4856657982

> <CNN_VS>
3.9054861069

> <CNNaffinity_variance>
0.4398154616

$$$$
[H]OC(=O)C1(C([H])([H])c2c([H])nc(OC([H])([H])C([H])([H])c3nc(-c4c([H])c([H])c([H])c(Cl)c4[H])oc3C([H])([H])[H])c([H])c2[H])OC([H])([H])C([H])([H])C1([H])[H]


 32 35  0  0  0  0  0  0  0  0999 V2000
   12.7641   26.4099   -2.4196 O   0  0  0  0  0  0  0  0  0  0  0  0
   12.1659   25.4784   -1.5889 C   0  0  0  0  0  0  0  0  0  0  0  0
   11.1372   24.6691   -2.0987 C   0  0  0  0  0  0  0  0  0  0  0  0
   10.5222   23.7307   -1.2922 C   0  0  0  0  0  0  0  0  0  0  0  0
   10.8890   23.5543    0.0263 C   0  0  0  0  0  0  0  0  0  0  0  0
   11.8947   24.3672    0.4744 C   0  0  0  0  0  0  0  0  0  0  0  0
   12.4864   25.2749   -0.3140 N   0  0  0  0  0  0  0  0  0  0  0  0
   10.2381   22.5576    0.8763 C   0  0  0  0  0  0  0  0  0  0  0  0
    9.7207   23.0107    2.1921 C   0  0  0  0  0  0  0  0  0  0  0  0
    8.8488   21.9363    2.8247 C   0  0  0  0  0  0  0  0  0  0  0  0
    9.9158   20.9670    3.2941 C   0  0  0  0  0  0  0  0  0  0  0  0
   11.0685   21.8717    3.5611 C   0  0  0  0  0  0  0  0  0  0  0  0
   10.8158   23.1265    3.0672 O   0  0  0  0  0  0  0  0  0  0  0  0
    9.0360   24.3199    2.1976 C   0  0  0  0  0  0  0  0  0  0  0  0
    7.9040   24.4799    1.6201 O   0  0  0  0  0  0  0  0  0  0  0  0
    9.5310   25.4635    2.8025 O   0  0  0  0  0  0  0  0  0  0  0  0
    8.8839   26.0206    3.3425 H   0  0  0  0  0  0  0  0  0  0  0  0
   12.5194   26.6003   -3.7793 C   0  0  0  0  0  0  0  0  0  0  0  0
   13.8366   26.5275   -4.5380 C   0  0  0  0  0  0  0  0  0  0  0  0
   16.7713   27.6791   -4.3810 C   0  0  0  0  0  0  0  0  0  0  0  0
   16.1629   26.6650   -3.4804 C   0  0  0  0  0  0  0  0  0  0  0  0
   16.7404   26.0758   -2.4726 O   0  0  0  0  0  0  0  0  0  0  0  0
   15.9346   25.2371   -1.8849 C   0  0  0  0  0  0  0  0  0  0  0  0
   14.7696   25.2865   -2.5500 N   0  0  0  0  0  0  0  0  0  0  0  0
   14.8671   26.1690   -3.5590 C   0  0  0  0  0  0  0  0  0  0  0  0
   16.2257   24.4007   -0.7300 C   0  0  0  0  0  0  0  0  0  0  0  0
   15.4397   23.3408   -0.3342 C   0  0  0  0  0  0  0  0  0  0  0  0
   15.7451   22.5650    0.7655 C   0  0  0  0  0  0  0  0  0  0  0  0
   16.8671   22.8249    1.5238 C   0  0  0  0  0  0  0  0  0  0  0  0
   17.6816   23.8840    1.1552 C   0  0  0  0  0  0  0  0  0  0  0  0
   19.1271   24.2579    2.0905 Cl  0  0  0  0  0  0  0  0  0  0  0  0
   17.3579   24.6453    0.0539 C   0  0  0  0  0  0  0  0  0  0  0  0
 20 21  1  0  0  0
 21 22  1  0  0  0
 22 23  1  0  0  0
 23 26  1  0  0  0
 26 27  2  0  0  0
 27 28  1  0  0  0
 28 29  2  0  0  0
 29 30  1  0  0  0
 30 31  1  0  0  0
 30 32  2  0  0  0
 23 24  2  0  0  0
 24 25  1  0  0  0
 25 19  1  0  0  0
 19 18  1  0  0  0
 18  1  1  0  0  0
  1  2  1  0  0  0
  2  3  2  0  0  0
  3  4  1  0  0  0
  4  5  2  0  0  0
  5  8  1  0  0  0
  8  9  1  0  0  0
  9 14  1  0  0  0
 14 15  2  0  0  0
 14 16  1  0  0  0
  9 10  1  0  0  0
 10 11  1  0  0  0
 11 12  1  0  0  0
 12 13  1  0  0  0
  5  6  1  0  0  0
  6  7  2  0  0  0
 25 21  2  0  0  0
  7  2  1  0  0  0
 32 26  1  0  0  0
 13  9  1  0  0  0
 16 17  1  0  0  0
M  END
> <minimizedAffinity>
-3.45539

> <CNNscore>
0.5039983988

> <CNNaffinity>
7.0557417870

> <CNN_VS>
3.5560824871

> <CNNaffinity_variance>
0.3421381116

$$$$
[H]OC(=O)C1(C([H])([H])c2c([H])nc(OC([H])([H])C([H])([H])c3nc(-c4c([H])c([H])c([H])c(Cl)c4[H])oc3C([H])([H])[H])c([H])c2[H])OC([H])([H])C([H])([H])C1([H])[H]


 32 35  0  0  0  0  0  0  0  0999 V2000
   14.5982   23.6692   -0.0303 O   0  0  0  0  0  0  0  0  0  0  0  0
   15.0511   24.0624   -1.2776 C   0  0  0  0  0  0  0  0  0  0  0  0
   14.4640   23.5041   -2.4251 C   0  0  0  0  0  0  0  0  0  0  0  0
   14.8962   23.8781   -3.6832 C   0  0  0  0  0  0  0  0  0  0  0  0
   15.9068   24.8011   -3.8590 C   0  0  0  0  0  0  0  0  0  0  0  0
   16.4458   25.3144   -2.7105 C   0  0  0  0  0  0  0  0  0  0  0  0
   16.0211   24.9467   -1.4940 N   0  0  0  0  0  0  0  0  0  0  0  0
   16.3596   25.1973   -5.1923 C   0  0  0  0  0  0  0  0  0  0  0  0
   15.5486   26.2051   -5.9210 C   0  0  0  0  0  0  0  0  0  0  0  0
   14.2402   26.4705   -5.1913 C   0  0  0  0  0  0  0  0  0  0  0  0
   14.7408   27.3300   -4.0472 C   0  0  0  0  0  0  0  0  0  0  0  0
   15.9218   28.0056   -4.6533 C   0  0  0  0  0  0  0  0  0  0  0  0
   16.2332   27.4323   -5.8603 O   0  0  0  0  0  0  0  0  0  0  0  0
   15.3099   25.9255   -7.3520 C   0  0  0  0  0  0  0  0  0  0  0  0
   14.1472   26.0639   -7.8709 O   0  0  0  0  0  0  0  0  0  0  0  0
   16.2816   25.4993   -8.2425 O   0  0  0  0  0  0  0  0  0  0  0  0
   16.3016   25.9372   -9.1528 H   0  0  0  0  0  0  0  0  0  0  0  0
   15.2644   22.8551    0.8853 C   0  0  0  0  0  0  0  0  0  0  0  0
   14.7411   21.4316    0.7600 C   0  0  0  0  0  0  0  0  0  0  0  0
   12.8500   20.2243   -1.4601 C   0  0  0  0  0  0  0  0  0  0  0  0
   12.4350   21.0002   -0.2621 C   0  0  0  0  0  0  0  0  0  0  0  0
   11.2172   21.3167    0.0741 O   0  0  0  0  0  0  0  0  0  0  0  0
   11.1912   22.0020    1.1822 C   0  0  0  0  0  0  0  0  0  0  0  0
   12.4643   22.1362    1.5860 N   0  0  0  0  0  0  0  0  0  0  0  0
   13.2789   21.5234    0.7102 C   0  0  0  0  0  0  0  0  0  0  0  0
   10.0175   22.5277    1.8634 C   0  0  0  0  0  0  0  0  0  0  0  0
    8.8228   21.8493    1.9650 C   0  0  0  0  0  0  0  0  0  0  0  0
    7.7282   22.3752    2.6206 C   0  0  0  0  0  0  0  0  0  0  0  0
    7.7884   23.6210    3.2088 C   0  0  0  0  0  0  0  0  0  0  0  0
    8.9749   24.3327    3.1266 C   0  0  0  0  0  0  0  0  0  0  0  0
    9.1040   25.9287    3.8617 Cl  0  0  0  0  0  0  0  0  0  0  0  0
   10.0550   23.7887    2.4674 C   0  0  0  0  0  0  0  0  0  0  0  0
 20 21  1  0  0  0
 21 22  1  0  0  0
 22 23  1  0  0  0
 23 26  1  0  0  0
 26 27  2  0  0  0
 27 28  1  0  0  0
 28 29  2  0  0  0
 29 30  1  0  0  0
 30 31  1  0  0  0
 30 32  2  0  0  0
 23 24  2  0  0  0
 24 25  1  0  0  0
 25 19  1  0  0  0
 19 18  1  0  0  0
 18  1  1  0  0  0
  1  2  1  0  0  0
  2  3  2  0  0  0
  3  4  1  0  0  0
  4  5  2  0  0  0
  5  8  1  0  0  0
  8  9  1  0  0  0
  9 14  1  0  0  0
 14 15  2  0  0  0
 14 16  1  0  0  0
  9 10  1  0  0  0
 10 11  1  0  0  0
 11 12  1  0  0  0
 12 13  1  0  0  0
  5  6  1  0  0  0
  6  7  2  0  0  0
 25 21  2  0  0  0
  7  2  1  0  0  0
 32 26  1  0  0  0
 13  9  1  0  0  0
 16 17  1  0  0  0
M  END
> <minimizedAffinity>
-6.49739

> <CNNscore>
0.4322106540

> <CNNaffinity>
7.3618555069

> <CNN_VS>
3.1818723679

> <CNNaffinity_variance>
0.1552106440

$$$$
[H]OC(=O)C1(C([H])([H])c2c([H])nc(OC([H])([H])C([H])([H])c3nc(-c4c([H])c([H])c([H])c(Cl)c4[H])oc3C([H])([H])[H])c([H])c2[H])OC([H])([H])C([H])([H])C1([H])[H]


 32 35  0  0  0  0  0  0  0  0999 V2000
   13.7680   26.8620   -4.6397 O   0  0  0  0  0  0  0  0  0  0  0  0
   13.3321   26.0012   -3.6474 C   0  0  0  0  0  0  0  0  0  0  0  0
   13.9298   24.7356   -3.5296 C   0  0  0  0  0  0  0  0  0  0  0  0
   13.5147   23.8557   -2.5483 C   0  0  0  0  0  0  0  0  0  0  0  0
   12.5112   24.1811   -1.6587 C   0  0  0  0  0  0  0  0  0  0  0  0
   11.9614   25.4245   -1.8160 C   0  0  0  0  0  0  0  0  0  0  0  0
   12.3695   26.2722   -2.7701 N   0  0  0  0  0  0  0  0  0  0  0  0
   12.0766   23.2487   -0.6190 C   0  0  0  0  0  0  0  0  0  0  0  0
   12.1427   21.7978   -0.9273 C   0  0  0  0  0  0  0  0  0  0  0  0
   11.4844   20.9841    0.1769 C   0  0  0  0  0  0  0  0  0  0  0  0
   10.0233   21.2412   -0.1351 C   0  0  0  0  0  0  0  0  0  0  0  0
   10.0464   21.4422   -1.6108 C   0  0  0  0  0  0  0  0  0  0  0  0
   11.3384   21.5619   -2.0568 O   0  0  0  0  0  0  0  0  0  0  0  0
   13.4847   21.2690   -1.2470 C   0  0  0  0  0  0  0  0  0  0  0  0
   14.3579   21.0750   -0.3304 O   0  0  0  0  0  0  0  0  0  0  0  0
   13.9185   20.9442   -2.5218 O   0  0  0  0  0  0  0  0  0  0  0  0
   14.4265   20.0780   -2.6330 H   0  0  0  0  0  0  0  0  0  0  0  0
   14.6888   26.5808   -5.6487 C   0  0  0  0  0  0  0  0  0  0  0  0
   15.9038   27.4814   -5.4803 C   0  0  0  0  0  0  0  0  0  0  0  0
   18.4800   28.7776   -4.1973 C   0  0  0  0  0  0  0  0  0  0  0  0
   17.6508   27.6865   -3.6216 C   0  0  0  0  0  0  0  0  0  0  0  0
   17.8490   27.0765   -2.4880 O   0  0  0  0  0  0  0  0  0  0  0  0
   16.9420   26.1663   -2.2712 C   0  0  0  0  0  0  0  0  0  0  0  0
   16.1096   26.1887   -3.3241 N   0  0  0  0  0  0  0  0  0  0  0  0
   16.5158   27.1271   -4.1963 C   0  0  0  0  0  0  0  0  0  0  0  0
   16.8374   25.2869   -1.1164 C   0  0  0  0  0  0  0  0  0  0  0  0
   17.9036   24.6017   -0.5763 C   0  0  0  0  0  0  0  0  0  0  0  0
   17.7714   23.7766    0.5219 C   0  0  0  0  0  0  0  0  0  0  0  0
   16.5468   23.6026    1.1314 C   0  0  0  0  0  0  0  0  0  0  0  0
   15.4512   24.2765    0.6151 C   0  0  0  0  0  0  0  0  0  0  0  0
   13.8643   24.0886    1.3572 Cl  0  0  0  0  0  0  0  0  0  0  0  0
   15.6059   25.0949   -0.4818 C   0  0  0  0  0  0  0  0  0  0  0  0
 20 21  1  0  0  0
 21 22  1  0  0  0
 22 23  1  0  0  0
 23 26  1  0  0  0
 26 27  2  0  0  0
 27 28  1  0  0  0
 28 29  2  0  0  0
 29 30  1  0  0  0
 30 31  1  0  0  0
 30 32  2  0  0  0
 23 24  2  0  0  0
 24 25  1  0  0  0
 25 19  1  0  0  0
 19 18  1  0  0  0
 18  1  1  0  0  0
  1  2  1  0  0  0
  2  3  2  0  0  0
  3  4  1  0  0  0
  4  5  2  0  0  0
  5  8  1  0  0  0
  8  9  1  0  0  0
  9 14  1  0  0  0
 14 15  2  0  0  0
 14 16  1  0  0  0
  9 10  1  0  0  0
 10 11  1  0  0  0
 11 12  1  0  0  0
 12 13  1  0  0  0
  5  6  1  0  0  0
  6  7  2  0  0  0
 25 21  2  0  0  0
  7  2  1  0  0  0
 32 26  1  0  0  0
 13  9  1  0  0  0
 16 17  1  0  0  0
M  END
> <minimizedAffinity>
-4.36616

> <CNNscore>
0.4249784648

> <CNNaffinity>
7.3861069679

> <CNN_VS>
3.1389362812

> <CNNaffinity_variance>
0.4931363463

$$$$
[H]OC(=O)C1(C([H])([H])c2c([H])nc(OC([H])([H])C([H])([H])c3nc(-c4c([H])c([H])c([H])c(Cl)c4[H])oc3C([H])([H])[H])c([H])c2[H])OC([H])([H])C([H])([H])C1([H])[H]


 32 35  0  0  0  0  0  0  0  0999 V2000
   12.7200   26.5661   -2.4514 O   0  0  0  0  0  0  0  0  0  0  0  0
   12.1769   25.6967   -1.5214 C   0  0  0  0  0  0  0  0  0  0  0  0
   12.6264   25.7503   -0.1917 C   0  0  0  0  0  0  0  0  0  0  0  0
   12.1019   24.8944    0.7579 C   0  0  0  0  0  0  0  0  0  0  0  0
   11.1301   23.9671    0.4418 C   0  0  0  0  0  0  0  0  0  0  0  0
   10.7271   23.9548   -0.8660 C   0  0  0  0  0  0  0  0  0  0  0  0
   11.2406   24.7881   -1.7811 N   0  0  0  0  0  0  0  0  0  0  0  0
   10.5746   23.0650    1.4502 C   0  0  0  0  0  0  0  0  0  0  0  0
    9.1196   23.1609    1.7298 C   0  0  0  0  0  0  0  0  0  0  0  0
    8.8350   22.8744    3.1967 C   0  0  0  0  0  0  0  0  0  0  0  0
    9.2972   24.1773    3.8190 C   0  0  0  0  0  0  0  0  0  0  0  0
    9.0389   25.1574    2.7276 C   0  0  0  0  0  0  0  0  0  0  0  0
    8.7375   24.5038    1.5595 O   0  0  0  0  0  0  0  0  0  0  0  0
    8.2421   22.3581    0.8532 C   0  0  0  0  0  0  0  0  0  0  0  0
    8.3907   21.0905    0.7458 O   0  0  0  0  0  0  0  0  0  0  0  0
    7.2112   22.8755    0.0863 O   0  0  0  0  0  0  0  0  0  0  0  0
    6.3358   22.3711    0.0837 H   0  0  0  0  0  0  0  0  0  0  0  0
   12.7812   26.3849   -3.8328 C   0  0  0  0  0  0  0  0  0  0  0  0
   14.1816   25.9272   -4.2142 C   0  0  0  0  0  0  0  0  0  0  0  0
   16.8865   26.2763   -2.6254 C   0  0  0  0  0  0  0  0  0  0  0  0
   15.8543   25.2291   -2.4077 C   0  0  0  0  0  0  0  0  0  0  0  0
   15.8925   24.2735   -1.5236 O   0  0  0  0  0  0  0  0  0  0  0  0
   14.8312   23.5201   -1.5894 C   0  0  0  0  0  0  0  0  0  0  0  0
   14.0626   24.0166   -2.5716 N   0  0  0  0  0  0  0  0  0  0  0  0
   14.6651   25.0891   -3.1130 C   0  0  0  0  0  0  0  0  0  0  0  0
   14.5235   22.3609   -0.7651 C   0  0  0  0  0  0  0  0  0  0  0  0
   15.4010   21.8133    0.1449 C   0  0  0  0  0  0  0  0  0  0  0  0
   15.0772   20.7140    0.9138 C   0  0  0  0  0  0  0  0  0  0  0  0
   13.8426   20.1107    0.7992 C   0  0  0  0  0  0  0  0  0  0  0  0
   12.9337   20.6347   -0.1066 C   0  0  0  0  0  0  0  0  0  0  0  0
   11.3426   19.9010   -0.2911 Cl  0  0  0  0  0  0  0  0  0  0  0  0
   13.2779   21.7325   -0.8639 C   0  0  0  0  0  0  0  0  0  0  0  0
 20 21  1  0  0  0
 21 22  1  0  0  0
 22 23  1  0  0  0
 23 26  1  0  0  0
 26 27  2  0  0  0
 27 28  1  0  0  0
 28 29  2  0  0  0
 29 30  1  0  0  0
 30 31  1  0  0  0
 30 32  2  0  0  0
 23 24  2  0  0  0
 24 25  1  0  0  0
 25 19  1  0  0  0
 19 18  1  0  0  0
 18  1  1  0  0  0
  1  2  1  0  0  0
  2  3  2  0  0  0
  3  4  1  0  0  0
  4  5  2  0  0  0
  5  8  1  0  0  0
  8  9  1  0  0  0
  9 14  1  0  0  0
 14 15  2  0  0  0
 14 16  1  0  0  0
  9 10  1  0  0  0
 10 11  1  0  0  0
 11 12  1  0  0  0
 12 13  1  0  0  0
  5  6  1  0  0  0
  6  7  2  0  0  0
 25 21  2  0  0  0
  7  2  1  0  0  0
 32 26  1  0  0  0
 13  9  1  0  0  0
 16 17  1  0  0  0
M  END
> <minimizedAffinity>
-6.59636

> <CNNscore>
0.4117884040

> <CNNaffinity>
7.2172636986

> <CNN_VS>
2.9719855785

> <CNNaffinity_variance>
0.2471586913

$$$$
[H]OC(=O)C1(C([H])([H])c2c([H])nc(OC([H])([H])C([H])([H])c3nc(-c4c([H])c([H])c([H])c(Cl)c4[H])oc3C([H])([H])[H])c([H])c2[H])OC([H])([H])C([H])([H])C1([H])[H]


 32 35  0  0  0  0  0  0  0  0999 V2000
   16.2219   23.8500    0.1751 O   0  0  0  0  0  0  0  0  0  0  0  0
   16.0057   24.2186   -1.1414 C   0  0  0  0  0  0  0  0  0  0  0  0
   16.6755   25.3410   -1.6556 C   0  0  0  0  0  0  0  0  0  0  0  0
   16.4788   25.7320   -2.9663 C   0  0  0  0  0  0  0  0  0  0  0  0
   15.6289   25.0452   -3.8090 C   0  0  0  0  0  0  0  0  0  0  0  0
   15.0004   23.9605   -3.2600 C   0  0  0  0  0  0  0  0  0  0  0  0
   15.1965   23.5875   -1.9880 N   0  0  0  0  0  0  0  0  0  0  0  0
   15.4256   25.4598   -5.1969 C   0  0  0  0  0  0  0  0  0  0  0  0
   14.9921   26.8591   -5.4385 C   0  0  0  0  0  0  0  0  0  0  0  0
   13.5186   26.9073   -5.8139 C   0  0  0  0  0  0  0  0  0  0  0  0
   12.8879   26.6798   -4.4541 C   0  0  0  0  0  0  0  0  0  0  0  0
   13.8999   27.2699   -3.5342 C   0  0  0  0  0  0  0  0  0  0  0  0
   15.0594   27.5469   -4.2135 O   0  0  0  0  0  0  0  0  0  0  0  0
   15.8092   27.6284   -6.3996 C   0  0  0  0  0  0  0  0  0  0  0  0
   16.2893   27.0790   -7.4523 O   0  0  0  0  0  0  0  0  0  0  0  0
   16.1283   28.9694   -6.2636 O   0  0  0  0  0  0  0  0  0  0  0  0
   16.0517   29.5509   -7.0862 H   0  0  0  0  0  0  0  0  0  0  0  0
   15.2587   23.4630    1.1064 C   0  0  0  0  0  0  0  0  0  0  0  0
   13.9280   24.1064    0.7442 C   0  0  0  0  0  0  0  0  0  0  0  0
   14.1543   21.1349   -0.2960 C   0  0  0  0  0  0  0  0  0  0  0  0
   12.9940   21.7487    0.4014 C   0  0  0  0  0  0  0  0  0  0  0  0
   11.8695   21.1633    0.6999 O   0  0  0  0  0  0  0  0  0  0  0  0
   11.0559   21.9770    1.3117 C   0  0  0  0  0  0  0  0  0  0  0  0
   11.6901   23.1555    1.4153 N   0  0  0  0  0  0  0  0  0  0  0  0
   12.9091   23.0586    0.8575 C   0  0  0  0  0  0  0  0  0  0  0  0
    9.7156   21.6811    1.7955 C   0  0  0  0  0  0  0  0  0  0  0  0
    8.6314   21.4758    0.9707 C   0  0  0  0  0  0  0  0  0  0  0  0
    7.3727   21.1945    1.4615 C   0  0  0  0  0  0  0  0  0  0  0  0
    7.1472   21.1067    2.8191 C   0  0  0  0  0  0  0  0  0  0  0  0
    8.2151   21.3075    3.6795 C   0  0  0  0  0  0  0  0  0  0  0  0
    7.9802   21.2061    5.4227 Cl  0  0  0  0  0  0  0  0  0  0  0  0
    9.4629   21.5872    3.1679 C   0  0  0  0  0  0  0  0  0  0  0  0
 20 21  1  0  0  0
 21 22  1  0  0  0
 22 23  1  0  0  0
 23 26  1  0  0  0
 26 27  2  0  0  0
 27 28  1  0  0  0
 28 29  2  0  0  0
 29 30  1  0  0  0
 30 31  1  0  0  0
 30 32  2  0  0  0
 23 24  2  0  0  0
 24 25  1  0  0  0
 25 19  1  0  0  0
 19 18  1  0  0  0
 18  1  1  0  0  0
  1  2  1  0  0  0
  2  3  2  0  0  0
  3  4  1  0  0  0
  4  5  2  0  0  0
  5  8  1  0  0  0
  8  9  1  0  0  0
  9 14  1  0  0  0
 14 15  2  0  0  0
 14 16  1  0  0  0
  9 10  1  0  0  0
 10 11  1  0  0  0
 11 12  1  0  0  0
 12 13  1  0  0  0
  5  6  1  0  0  0
  6  7  2  0  0  0
 25 21  2  0  0  0
  7  2  1  0  0  0
 32 26  1  0  0  0
 13  9  1  0  0  0
 16 17  1  0  0  0
M  END
> <minimizedAffinity>
-4.65726

> <CNNscore>
0.3960001469

> <CNNaffinity>
7.0512075424

> <CNN_VS>
2.7922792435

> <CNNaffinity_variance>
0.2417527437

$$$$
[H]OC(=O)C1(C([H])([H])c2c([H])nc(OC([H])([H])C([H])([H])c3nc(-c4c([H])c([H])c([H])c(Cl)c4[H])oc3C([H])([H])[H])c([H])c2[H])OC([H])([H])C([H])([H])C1([H])[H]


 32 35  0  0  0  0  0  0  0  0999 V2000
   12.7753   26.5413   -2.4286 O   0  0  0  0  0  0  0  0  0  0  0  0
   12.1539   25.6934   -1.5284 C   0  0  0  0  0  0  0  0  0  0  0  0
   12.5187   25.7494   -0.1731 C   0  0  0  0  0  0  0  0  0  0  0  0
   11.9150   24.9147    0.7478 C   0  0  0  0  0  0  0  0  0  0  0  0
   10.9443   24.0065    0.3776 C   0  0  0  0  0  0  0  0  0  0  0  0
   10.6254   23.9908   -0.9532 C   0  0  0  0  0  0  0  0  0  0  0  0
   11.2154   24.8036   -1.8402 N   0  0  0  0  0  0  0  0  0  0  0  0
   10.3048   23.1267    1.3556 C   0  0  0  0  0  0  0  0  0  0  0  0
    8.9427   23.4922    1.8199 C   0  0  0  0  0  0  0  0  0  0  0  0
    7.9604   23.4872    0.6581 C   0  0  0  0  0  0  0  0  0  0  0  0
    7.7712   21.9944    0.4734 C   0  0  0  0  0  0  0  0  0  0  0  0
    7.9817   21.4764    1.8539 C   0  0  0  0  0  0  0  0  0  0  0  0
    8.4861   22.4631    2.6630 O   0  0  0  0  0  0  0  0  0  0  0  0
    8.8422   24.7470    2.5934 C   0  0  0  0  0  0  0  0  0  0  0  0
    9.6917   25.0334    3.5081 O   0  0  0  0  0  0  0  0  0  0  0  0
    7.8556   25.7030    2.4159 O   0  0  0  0  0  0  0  0  0  0  0  0
    8.1440   26.6712    2.4023 H   0  0  0  0  0  0  0  0  0  0  0  0
   12.8691   26.3745   -3.8101 C   0  0  0  0  0  0  0  0  0  0  0  0
   14.2596   25.8628   -4.1572 C   0  0  0  0  0  0  0  0  0  0  0  0
   16.8956   26.2173   -2.4575 C   0  0  0  0  0  0  0  0  0  0  0  0
   15.8535   25.1726   -2.2779 C   0  0  0  0  0  0  0  0  0  0  0  0
   15.8529   24.2218   -1.3877 O   0  0  0  0  0  0  0  0  0  0  0  0
   14.7943   23.4694   -1.4943 C   0  0  0  0  0  0  0  0  0  0  0  0
   14.0686   23.9614   -2.5107 N   0  0  0  0  0  0  0  0  0  0  0  0
   14.6950   25.0302   -3.0320 C   0  0  0  0  0  0  0  0  0  0  0  0
   14.4502   22.3151   -0.6775 C   0  0  0  0  0  0  0  0  0  0  0  0
   15.3165   21.7226    0.2150 C   0  0  0  0  0  0  0  0  0  0  0  0
   14.9582   20.6295    0.9773 C   0  0  0  0  0  0  0  0  0  0  0  0
   13.6985   20.0782    0.8735 C   0  0  0  0  0  0  0  0  0  0  0  0
   12.8000   20.6484   -0.0146 C   0  0  0  0  0  0  0  0  0  0  0  0
   11.1779   19.9821   -0.1846 Cl  0  0  0  0  0  0  0  0  0  0  0  0
   13.1787   21.7391   -0.7656 C   0  0  0  0  0  0  0  0  0  0  0  0
 20 21  1  0  0  0
 21 22  1  0  0  0
 22 23  1  0  0  0
 23 26  1  0  0  0
 26 27  2  0  0  0
 27 28  1  0  0  0
 28 29  2  0  0  0
 29 30  1  0  0  0
 30 31  1  0  0  0
 30 32  2  0  0  0
 23 24  2  0  0  0
 24 25  1  0  0  0
 25 19  1  0  0  0
 19 18  1  0  0  0
 18  1  1  0  0  0
  1  2  1  0  0  0
  2  3  2  0  0  0
  3  4  1  0  0  0
  4  5  2  0  0  0
  5  8  1  0  0  0
  8  9  1  0  0  0
  9 14  1  0  0  0
 14 15  2  0  0  0
 14 16  1  0  0  0
  9 10  1  0  0  0
 10 11  1  0  0  0
 11 12  1  0  0  0
 12 13  1  0  0  0
  5  6  1  0  0  0
  6  7  2  0  0  0
 25 21  2  0  0  0
  7  2  1  0  0  0
 32 26  1  0  0  0
 13  9  1  0  0  0
 16 17  1  0  0  0
M  END
> <minimizedAffinity>
-6.33546

> <CNNscore>
0.3944546878

> <CNNaffinity>
7.1352357864

> <CNN_VS>
2.8145272732

> <CNNaffinity_variance>
0.1733034700

$$$$
[H]OC(=O)C1(C([H])([H])c2c([H])nc(OC([H])([H])C([H])([H])c3nc(-c4c([H])c([H])c([H])c(Cl)c4[H])oc3C([H])([H])[H])c([H])c2[H])OC([H])([H])C([H])([H])C1([H])[H]


 32 35  0  0  0  0  0  0  0  0999 V2000
   10.8469   20.0696   -0.5711 O   0  0  0  0  0  0  0  0  0  0  0  0
   12.0744   20.6463   -0.2946 C   0  0  0  0  0  0  0  0  0  0  0  0
   12.9353   20.9641   -1.3580 C   0  0  0  0  0  0  0  0  0  0  0  0
   14.1666   21.5405   -1.1115 C   0  0  0  0  0  0  0  0  0  0  0  0
   14.5928   21.8223    0.1704 C   0  0  0  0  0  0  0  0  0  0  0  0
   13.7183   21.4932    1.1704 C   0  0  0  0  0  0  0  0  0  0  0  0
   12.5257   20.9345    0.9232 N   0  0  0  0  0  0  0  0  0  0  0  0
   15.8955   22.4357    0.4276 C   0  0  0  0  0  0  0  0  0  0  0  0
   15.9609   23.9185    0.4624 C   0  0  0  0  0  0  0  0  0  0  0  0
   17.1867   24.3837    1.2341 C   0  0  0  0  0  0  0  0  0  0  0  0
   18.2693   24.1081    0.2091 C   0  0  0  0  0  0  0  0  0  0  0  0
   17.5379   24.2817   -1.0767 C   0  0  0  0  0  0  0  0  0  0  0  0
   16.1875   24.3691   -0.8506 O   0  0  0  0  0  0  0  0  0  0  0  0
   14.7425   24.6048    0.9396 C   0  0  0  0  0  0  0  0  0  0  0  0
   14.6911   25.8814    1.0290 O   0  0  0  0  0  0  0  0  0  0  0  0
   13.5782   23.9616    1.3259 O   0  0  0  0  0  0  0  0  0  0  0  0
   12.7036   24.3484    0.9999 H   0  0  0  0  0  0  0  0  0  0  0  0
    9.7165   20.7078   -1.0809 C   0  0  0  0  0  0  0  0  0  0  0  0
    9.2778   21.7952   -0.1109 C   0  0  0  0  0  0  0  0  0  0  0  0
    9.9374   24.0890    1.9546 C   0  0  0  0  0  0  0  0  0  0  0  0
   10.4684   23.9548    0.5727 C   0  0  0  0  0  0  0  0  0  0  0  0
   11.2962   24.7650   -0.0228 O   0  0  0  0  0  0  0  0  0  0  0  0
   11.5669   24.3653   -1.2332 C   0  0  0  0  0  0  0  0  0  0  0  0
   10.8754   23.2322   -1.4321 N   0  0  0  0  0  0  0  0  0  0  0  0
   10.1719   22.9368   -0.3256 C   0  0  0  0  0  0  0  0  0  0  0  0
   12.4465   25.0111   -2.1962 C   0  0  0  0  0  0  0  0  0  0  0  0
   12.2580   26.2919   -2.6673 C   0  0  0  0  0  0  0  0  0  0  0  0
   13.1126   26.8767   -3.5793 C   0  0  0  0  0  0  0  0  0  0  0  0
   14.2066   26.1906   -4.0630 C   0  0  0  0  0  0  0  0  0  0  0  0
   14.4279   24.8991   -3.6111 C   0  0  0  0  0  0  0  0  0  0  0  0
   15.8116   23.9795   -4.1978 Cl  0  0  0  0  0  0  0  0  0  0  0  0
   13.5621   24.3349   -2.7006 C   0  0  0  0  0  0  0  0  0  0  0  0
 20 21  1  0  0  0
 21 22  1  0  0  0
 22 23  1  0  0  0
 23 26  1  0  0  0
 26 27  2  0  0  0
 27 28  1  0  0  0
 28 29  2  0  0  0
 29 30  1  0  0  0
 30 31  1  0  0  0
 30 32  2  0  0  0
 23 24  2  0  0  0
 24 25  1  0  0  0
 25 19  1  0  0  0
 19 18  1  0  0  0
 18  1  1  0  0  0
  1  2  1  0  0  0
  2  3  2  0  0  0
  3  4  1  0  0  0
  4  5  2  0  0  0
  5  8  1  0  0  0
  8  9  1  0  0  0
  9 14  1  0  0  0
 14 15  2  0  0  0
 14 16  1  0  0  0
  9 10  1  0  0  0
 10 11  1  0  0  0
 11 12  1  0  0  0
 12 13  1  0  0  0
  5  6  1  0  0  0
  6  7  2  0  0  0
 25 21  2  0  0  0
  7  2  1  0  0  0
 32 26  1  0  0  0
 13  9  1  0  0  0
 16 17  1  0  0  0
M  END
> <minimizedAffinity>
-3.70499

> <CNNscore>
0.3784875274

> <CNNaffinity>
7.1541428566

> <CNN_VS>
2.7077538967

> <CNNaffinity_variance>
0.0657584369

$$$$
[H]OC(=O)C1(C([H])([H])c2c([H])nc(OC([H])([H])C([H])([H])c3nc(-c4c([H])c([H])c([H])c(Cl)c4[H])oc3C([H])([H])[H])c([H])c2[H])OC([H])([H])C([H])([H])C1([H])[H]


 32 35  0  0  0  0  0  0  0  0999 V2000
   14.0229   21.0015   -2.3869 O   0  0  0  0  0  0  0  0  0  0  0  0
   14.5801   22.1020   -3.0146 C   0  0  0  0  0  0  0  0  0  0  0  0
   14.6425   23.3237   -2.3242 C   0  0  0  0  0  0  0  0  0  0  0  0
   15.1934   24.4388   -2.9262 C   0  0  0  0  0  0  0  0  0  0  0  0
   15.6965   24.3966   -4.2104 C   0  0  0  0  0  0  0  0  0  0  0  0
   15.6114   23.1843   -4.8397 C   0  0  0  0  0  0  0  0  0  0  0  0
   15.0758   22.1074   -4.2491 N   0  0  0  0  0  0  0  0  0  0  0  0
   16.2822   25.5781   -4.8434 C   0  0  0  0  0  0  0  0  0  0  0  0
   15.9456   26.9038   -4.2658 C   0  0  0  0  0  0  0  0  0  0  0  0
   15.8051   26.8104   -2.7538 C   0  0  0  0  0  0  0  0  0  0  0  0
   17.2648   26.7248   -2.3536 C   0  0  0  0  0  0  0  0  0  0  0  0
   17.9353   27.4925   -3.4397 C   0  0  0  0  0  0  0  0  0  0  0  0
   17.0529   27.7495   -4.4584 O   0  0  0  0  0  0  0  0  0  0  0  0
   14.7819   27.5894   -4.8648 C   0  0  0  0  0  0  0  0  0  0  0  0
   13.6794   26.9706   -5.0695 O   0  0  0  0  0  0  0  0  0  0  0  0
   14.7668   28.9190   -5.2529 O   0  0  0  0  0  0  0  0  0  0  0  0
   13.9527   29.4650   -5.0085 H   0  0  0  0  0  0  0  0  0  0  0  0
   13.5829   20.9234   -1.0658 C   0  0  0  0  0  0  0  0  0  0  0  0
   13.6311   22.3103   -0.4413 C   0  0  0  0  0  0  0  0  0  0  0  0
   11.7008   24.7102    0.2498 C   0  0  0  0  0  0  0  0  0  0  0  0
   11.7525   23.3862    0.9233 C   0  0  0  0  0  0  0  0  0  0  0  0
   11.0096   22.9917    1.9177 O   0  0  0  0  0  0  0  0  0  0  0  0
   11.3032   21.7745    2.2789 C   0  0  0  0  0  0  0  0  0  0  0  0
   12.2919   21.3577    1.4723 N   0  0  0  0  0  0  0  0  0  0  0  0
   12.6059   22.3363    0.6062 C   0  0  0  0  0  0  0  0  0  0  0  0
   10.6881   21.0021    3.3479 C   0  0  0  0  0  0  0  0  0  0  0  0
   11.2871   19.9189    3.9528 C   0  0  0  0  0  0  0  0  0  0  0  0
   10.6774   19.2084    4.9666 C   0  0  0  0  0  0  0  0  0  0  0  0
    9.4240   19.5605    5.4211 C   0  0  0  0  0  0  0  0  0  0  0  0
    8.7907   20.6455    4.8357 C   0  0  0  0  0  0  0  0  0  0  0  0
    7.1886   21.1365    5.3801 Cl  0  0  0  0  0  0  0  0  0  0  0  0
    9.4176   21.3404    3.8252 C   0  0  0  0  0  0  0  0  0  0  0  0
 20 21  1  0  0  0
 21 22  1  0  0  0
 22 23  1  0  0  0
 23 26  1  0  0  0
 26 27  2  0  0  0
 27 28  1  0  0  0
 28 29  2  0  0  0
 29 30  1  0  0  0
 30 31  1  0  0  0
 30 32  2  0  0  0
 23 24  2  0  0  0
 24 25  1  0  0  0
 25 19  1  0  0  0
 19 18  1  0  0  0
 18  1  1  0  0  0
  1  2  1  0  0  0
  2  3  2  0  0  0
  3  4  1  0  0  0
  4  5  2  0  0  0
  5  8  1  0  0  0
  8  9  1  0  0  0
  9 14  1  0  0  0
 14 15  2  0  0  0
 14 16  1  0  0  0
  9 10  1  0  0  0
 10 11  1  0  0  0
 11 12  1  0  0  0
 12 13  1  0  0  0
  5  6  1  0  0  0
  6  7  2  0  0  0
 25 21  2  0  0  0
  7  2  1  0  0  0
 32 26  1  0  0  0
 13  9  1  0  0  0
 16 17  1  0  0  0
M  END
> <minimizedAffinity>
-5.35206

> <CNNscore>
0.3765036166

> <CNNaffinity>
6.7726807594

> <CNN_VS>
2.5499389172

> <CNNaffinity_variance>
0.1058003679

$$$$
[H]OC(=O)C([H])([H])c1c([H])c([H])c(Oc2c([H])c([H])c(C(=O)N([H])C([H])(C([H])([H])[H])C([H])([H])[H])c([H])c2N([H])S(=O)(=O)c2c([H])c([H])c(Cl)c([H])c2Cl)c(OC([H])([H])[H])c1[H]


 40 42  0  0  0  0  0  0  0  0999 V2000
   11.8914   24.3245   -0.9447 C   0  0  0  0  0  0  0  0  0  0  0  0
   10.8278   23.5014   -1.1968 C   0  0  0  0  0  0  0  0  0  0  0  0
   10.4874   22.4725   -0.3405 C   0  0  0  0  0  0  0  0  0  0  0  0
   11.2275   22.2605    0.7946 C   0  0  0  0  0  0  0  0  0  0  0  0
   12.2974   23.0960    1.0381 C   0  0  0  0  0  0  0  0  0  0  0  0
   12.6679   24.1276    0.2143 C   0  0  0  0  0  0  0  0  0  0  0  0
   10.8960   21.1810    1.7330 C   0  0  0  0  0  0  0  0  0  0  0  0
   10.3421   20.1464    1.2478 O   0  0  0  0  0  0  0  0  0  0  0  0
   11.1771   21.2850    3.1001 N   0  0  0  0  0  0  0  0  0  0  0  0
   11.6262   22.1091    3.5135 H   0  0  0  0  0  0  0  0  0  0  0  0
   10.8257   20.1840    3.9838 C   0  0  0  0  0  0  0  0  0  0  0  0
   11.9519   19.1711    3.8707 C   0  0  0  0  0  0  0  0  0  0  0  0
   10.6516   20.6763    5.3883 C   0  0  0  0  0  0  0  0  0  0  0  0
   13.7745   24.9901    0.4417 N   0  0  0  0  0  0  0  0  0  0  0  0
   13.5922   25.9735    0.7852 H   0  0  0  0  0  0  0  0  0  0  0  0
   15.3651   24.4217    0.1554 S   0  0  0  0  0  0  0  0  0  0  0  0
   16.1653   24.2931    1.4467 O   0  0  0  0  0  0  0  0  0  0  0  0
   15.2548   23.0255   -0.4700 O   0  0  0  0  0  0  0  0  0  0  0  0
   16.1841   25.4670   -0.9782 C   0  0  0  0  0  0  0  0  0  0  0  0
   15.5294   26.5252   -1.5400 C   0  0  0  0  0  0  0  0  0  0  0  0
   16.2471   27.3032   -2.4590 C   0  0  0  0  0  0  0  0  0  0  0  0
   17.5474   27.0349   -2.7958 C   0  0  0  0  0  0  0  0  0  0  0  0
   18.4192   28.0176   -3.9413 Cl  0  0  0  0  0  0  0  0  0  0  0  0
   18.1561   25.9581   -2.2007 C   0  0  0  0  0  0  0  0  0  0  0  0
   17.5093   25.1645   -1.2990 C   0  0  0  0  0  0  0  0  0  0  0  0
   18.2905   23.7764   -0.5303 Cl  0  0  0  0  0  0  0  0  0  0  0  0
   12.2311   25.3552   -1.7987 O   0  0  0  0  0  0  0  0  0  0  0  0
   13.3270   26.3422   -3.7229 C   0  0  0  0  0  0  0  0  0  0  0  0
   14.2512   26.1974   -4.7456 C   0  0  0  0  0  0  0  0  0  0  0  0
   14.9964   25.0449   -4.9344 C   0  0  0  0  0  0  0  0  0  0  0  0
   14.7921   24.0052   -4.0508 C   0  0  0  0  0  0  0  0  0  0  0  0
   13.8776   24.1274   -3.0269 C   0  0  0  0  0  0  0  0  0  0  0  0
   13.1257   25.2987   -2.8419 C   0  0  0  0  0  0  0  0  0  0  0  0
   11.7291   27.9342   -4.6213 C   0  0  0  0  0  0  0  0  0  0  0  0
   12.6062   27.5304   -3.5796 O   0  0  0  0  0  0  0  0  0  0  0  0
   15.9859   24.9032   -6.0373 C   0  0  0  0  0  0  0  0  0  0  0  0
   15.7684   25.9666   -7.0498 C   0  0  0  0  0  0  0  0  0  0  0  0
   15.9096   27.1870   -6.8371 O   0  0  0  0  0  0  0  0  0  0  0  0
   15.3768   25.5444   -8.3294 O   0  0  0  0  0  0  0  0  0  0  0  0
   15.9760   24.9094   -8.8334 H   0  0  0  0  0  0  0  0  0  0  0  0
 34 35  1  0  0  0
 35 28  1  0  0  0
 28 29  2  0  0  0
 29 30  1  0  0  0
 30 36  1  0  0  0
 36 37  1  0  0  0
 37 38  2  0  0  0
 37 39  1  0  0  0
 30 31  2  0  0  0
 31 32  1  0  0  0
 32 33  2  0  0  0
 33 27  1  0  0  0
 27  1  1  0  0  0
  1  2  2  0  0  0
  2  3  1  0  0  0
  3  4  2  0  0  0
  4  7  1  0  0  0
  7  8  2  0  0  0
  7  9  1  0  0  0
  9 11  1  0  0  0
 11 12  1  0  0  0
 11 13  1  0  0  0
  4  5  1  0  0  0
  5  6  2  0  0  0
  6 14  1  0  0  0
 14 16  1  0  0  0
 16 17  2  0  0  0
 16 18  2  0  0  0
 16 19  1  0  0  0
 19 20  2  0  0  0
 20 21  1  0  0  0
 21 22  2  0  0  0
 22 23  1  0  0  0
 22 24  1  0  0  0
 24 25  2  0  0  0
 25 26  1  0  0  0
 33 28  1  0  0  0
  6  1  1  0  0  0
 25 19  1  0  0  0
 39 40  1  0  0  0
  9 10  1  0  0  0
 14 15  1  0  0  0
M  END
> <minimizedAffinity>
0.99218

> <CNNscore>
0.6882528067

> <CNNaffinity>
7.9796648026

> <CNN_VS>
5.4920268059

> <CNNaffinity_variance>
0.4725231528

$$$$
[H]OC(=O)C([H])([H])c1c([H])c([H])c(Oc2c([H])c([H])c(C(=O)N([H])C([H])(C([H])([H])[H])C([H])([H])[H])c([H])c2N([H])S(=O)(=O)c2c([H])c([H])c(Cl)c([H])c2Cl)c(OC([H])([H])[H])c1[H]


 40 42  0  0  0  0  0  0  0  0999 V2000
   12.4186   24.4659   -1.1251 C   0  0  0  0  0  0  0  0  0  0  0  0
   11.5344   23.6577   -1.7864 C   0  0  0  0  0  0  0  0  0  0  0  0
   10.3213   23.3011   -1.2304 C   0  0  0  0  0  0  0  0  0  0  0  0
    9.9836   23.7628    0.0162 C   0  0  0  0  0  0  0  0  0  0  0  0
   10.8827   24.5762    0.6733 C   0  0  0  0  0  0  0  0  0  0  0  0
   12.0957   24.9530    0.1568 C   0  0  0  0  0  0  0  0  0  0  0  0
    8.7020   23.4111    0.6404 C   0  0  0  0  0  0  0  0  0  0  0  0
    7.6591   23.9512    0.1575 O   0  0  0  0  0  0  0  0  0  0  0  0
    8.6305   22.5213    1.7184 N   0  0  0  0  0  0  0  0  0  0  0  0
    9.4587   22.0713    2.1227 H   0  0  0  0  0  0  0  0  0  0  0  0
    7.3331   22.2099    2.2981 C   0  0  0  0  0  0  0  0  0  0  0  0
    6.7237   21.1289    1.4221 C   0  0  0  0  0  0  0  0  0  0  0  0
    7.4899   21.7599    3.7188 C   0  0  0  0  0  0  0  0  0  0  0  0
   13.0404   25.7791    0.8242 N   0  0  0  0  0  0  0  0  0  0  0  0
   12.6964   26.6435    1.3270 H   0  0  0  0  0  0  0  0  0  0  0  0
   14.7012   25.3595    0.7979 S   0  0  0  0  0  0  0  0  0  0  0  0
   15.4328   26.0020   -0.3753 O   0  0  0  0  0  0  0  0  0  0  0  0
   15.3347   25.8860    2.0918 O   0  0  0  0  0  0  0  0  0  0  0  0
   14.8840   23.6234    0.7648 C   0  0  0  0  0  0  0  0  0  0  0  0
   13.7874   22.8144    0.6838 C   0  0  0  0  0  0  0  0  0  0  0  0
   14.0146   21.4311    0.6867 C   0  0  0  0  0  0  0  0  0  0  0  0
   15.2705   20.8901    0.7667 C   0  0  0  0  0  0  0  0  0  0  0  0
   15.5277   19.1662    0.7680 Cl  0  0  0  0  0  0  0  0  0  0  0  0
   16.3368   21.7506    0.8467 C   0  0  0  0  0  0  0  0  0  0  0  0
   16.1785   23.1056    0.8481 C   0  0  0  0  0  0  0  0  0  0  0  0
   17.5502   24.2175    0.9510 Cl  0  0  0  0  0  0  0  0  0  0  0  0
   13.6305   24.8251   -1.6811 O   0  0  0  0  0  0  0  0  0  0  0  0
   14.8126   24.7465   -3.7964 C   0  0  0  0  0  0  0  0  0  0  0  0
   14.9598   25.2612   -5.0749 C   0  0  0  0  0  0  0  0  0  0  0  0
   14.1780   26.2921   -5.5701 C   0  0  0  0  0  0  0  0  0  0  0  0
   13.2139   26.8157   -4.7335 C   0  0  0  0  0  0  0  0  0  0  0  0
   13.0506   26.3194   -3.4581 C   0  0  0  0  0  0  0  0  0  0  0  0
   13.8471   25.2745   -2.9630 C   0  0  0  0  0  0  0  0  0  0  0  0
   16.8336   24.0142   -2.6677 C   0  0  0  0  0  0  0  0  0  0  0  0
   15.6286   23.7031   -3.3522 O   0  0  0  0  0  0  0  0  0  0  0  0
   14.3470   26.8351   -6.9457 C   0  0  0  0  0  0  0  0  0  0  0  0
   15.7261   26.5705   -7.4265 C   0  0  0  0  0  0  0  0  0  0  0  0
   16.0264   25.7138   -8.2812 O   0  0  0  0  0  0  0  0  0  0  0  0
   16.7473   27.3521   -6.8652 O   0  0  0  0  0  0  0  0  0  0  0  0
   16.6941   28.3547   -6.9557 H   0  0  0  0  0  0  0  0  0  0  0  0
 34 35  1  0  0  0
 35 28  1  0  0  0
 28 29  2  0  0  0
 29 30  1  0  0  0
 30 36  1  0  0  0
 36 37  1  0  0  0
 37 38  2  0  0  0
 37 39  1  0  0  0
 30 31  2  0  0  0
 31 32  1  0  0  0
 32 33  2  0  0  0
 33 27  1  0  0  0
 27  1  1  0  0  0
  1  2  2  0  0  0
  2  3  1  0  0  0
  3  4  2  0  0  0
  4  7  1  0  0  0
  7  8  2  0  0  0
  7  9  1  0  0  0
  9 11  1  0  0  0
 11 12  1  0  0  0
 11 13  1  0  0  0
  4  5  1  0  0  0
  5  6  2  0  0  0
  6 14  1  0  0  0
 14 16  1  0  0  0
 16 17  2  0  0  0
 16 18  2  0  0  0
 16 19  1  0  0  0
 19 20  2  0  0  0
 20 21  1  0  0  0
 21 22  2  0  0  0
 22 23  1  0  0  0
 22 24  1  0  0  0
 24 25  2  0  0  0
 25 26  1  0  0  0
 33 28  1  0  0  0
  6  1  1  0  0  0
 25 19  1  0  0  0
 39 40  1  0  0  0
  9 10  1  0  0  0
 14 15  1  0  0  0
M  END
> <minimizedAffinity>
-0.44436

> <CNNscore>
0.6333484650

> <CNNaffinity>
7.6799378395

> <CNN_VS>
4.8640766144

> <CNNaffinity_variance>
0.3008130193

$$$$
[H]OC(=O)C([H])([H])c1c([H])c([H])c(Oc2c([H])c([H])c(C(=O)N([H])C([H])(C([H])([H])[H])C([H])([H])[H])c([H])c2N([H])S(=O)(=O)c2c([H])c([H])c(Cl)c([H])c2Cl)c(OC([H])([H])[H])c1[H]


 40 42  0  0  0  0  0  0  0  0999 V2000
   11.9238   23.9774    1.2108 C   0  0  0  0  0  0  0  0  0  0  0  0
   10.6786   24.5146    1.0288 C   0  0  0  0  0  0  0  0  0  0  0  0
    9.5311   23.7964    1.3030 C   0  0  0  0  0  0  0  0  0  0  0  0
    9.6300   22.5105    1.7699 C   0  0  0  0  0  0  0  0  0  0  0  0
   10.8901   21.9794    1.9489 C   0  0  0  0  0  0  0  0  0  0  0  0
   12.0526   22.6584    1.6889 C   0  0  0  0  0  0  0  0  0  0  0  0
    8.4350   21.7149    2.0780 C   0  0  0  0  0  0  0  0  0  0  0  0
    8.4311   21.0855    3.1809 O   0  0  0  0  0  0  0  0  0  0  0  0
    7.3484   21.6519    1.1981 N   0  0  0  0  0  0  0  0  0  0  0  0
    7.3283   22.1538    0.3039 H   0  0  0  0  0  0  0  0  0  0  0  0
    6.1905   20.8468    1.5551 C   0  0  0  0  0  0  0  0  0  0  0  0
    6.2732   19.5851    0.7133 C   0  0  0  0  0  0  0  0  0  0  0  0
    6.1966   20.5446    3.0228 C   0  0  0  0  0  0  0  0  0  0  0  0
   13.3590   22.1235    1.8546 N   0  0  0  0  0  0  0  0  0  0  0  0
   14.0142   22.5832    2.5458 H   0  0  0  0  0  0  0  0  0  0  0  0
   13.8386   20.7584    0.9374 S   0  0  0  0  0  0  0  0  0  0  0  0
   14.9980   20.0129    1.5889 O   0  0  0  0  0  0  0  0  0  0  0  0
   12.6429   19.8001    0.8692 O   0  0  0  0  0  0  0  0  0  0  0  0
   14.2492   21.2394   -0.6901 C   0  0  0  0  0  0  0  0  0  0  0  0
   15.5406   21.5370   -1.0178 C   0  0  0  0  0  0  0  0  0  0  0  0
   15.7865   21.9385   -2.3381 C   0  0  0  0  0  0  0  0  0  0  0  0
   14.7933   22.0364   -3.2764 C   0  0  0  0  0  0  0  0  0  0  0  0
   15.1241   22.5376   -4.9127 Cl  0  0  0  0  0  0  0  0  0  0  0  0
   13.5130   21.7255   -2.8915 C   0  0  0  0  0  0  0  0  0  0  0  0
   13.2122   21.3287   -1.6214 C   0  0  0  0  0  0  0  0  0  0  0  0
   11.5636   20.9272   -1.1220 Cl  0  0  0  0  0  0  0  0  0  0  0  0
   13.0717   24.6954    0.9395 O   0  0  0  0  0  0  0  0  0  0  0  0
   14.9698   25.1001   -0.5137 C   0  0  0  0  0  0  0  0  0  0  0  0
   15.4294   25.3438   -1.7983 C   0  0  0  0  0  0  0  0  0  0  0  0
   14.5907   25.4370   -2.8970 C   0  0  0  0  0  0  0  0  0  0  0  0
   13.2380   25.2765   -2.6782 C   0  0  0  0  0  0  0  0  0  0  0  0
   12.7591   25.0339   -1.4088 C   0  0  0  0  0  0  0  0  0  0  0  0
   13.6153   24.9411   -0.2999 C   0  0  0  0  0  0  0  0  0  0  0  0
   17.1144   24.3691    0.3588 C   0  0  0  0  0  0  0  0  0  0  0  0
   15.8639   25.0132    0.5563 O   0  0  0  0  0  0  0  0  0  0  0  0
   15.0983   25.6990   -4.2716 C   0  0  0  0  0  0  0  0  0  0  0  0
   14.2426   26.7104   -4.9410 C   0  0  0  0  0  0  0  0  0  0  0  0
   14.0877   26.8028   -6.1747 O   0  0  0  0  0  0  0  0  0  0  0  0
   13.5705   27.6158   -4.1058 O   0  0  0  0  0  0  0  0  0  0  0  0
   12.9404   27.2531   -3.4073 H   0  0  0  0  0  0  0  0  0  0  0  0
 34 35  1  0  0  0
 35 28  1  0  0  0
 28 29  2  0  0  0
 29 30  1  0  0  0
 30 36  1  0  0  0
 36 37  1  0  0  0
 37 38  2  0  0  0
 37 39  1  0  0  0
 30 31  2  0  0  0
 31 32  1  0  0  0
 32 33  2  0  0  0
 33 27  1  0  0  0
 27  1  1  0  0  0
  1  2  2  0  0  0
  2  3  1  0  0  0
  3  4  2  0  0  0
  4  7  1  0  0  0
  7  8  2  0  0  0
  7  9  1  0  0  0
  9 11  1  0  0  0
 11 12  1  0  0  0
 11 13  1  0  0  0
  4  5  1  0  0  0
  5  6  2  0  0  0
  6 14  1  0  0  0
 14 16  1  0  0  0
 16 17  2  0  0  0
 16 18  2  0  0  0
 16 19  1  0  0  0
 19 20  2  0  0  0
 20 21  1  0  0  0
 21 22  2  0  0  0
 22 23  1  0  0  0
 22 24  1  0  0  0
 24 25  2  0  0  0
 25 26  1  0  0  0
 33 28  1  0  0  0
  6  1  1  0  0  0
 25 19  1  0  0  0
 39 40  1  0  0  0
  9 10  1  0  0  0
 14 15  1  0  0  0
M  END
> <minimizedAffinity>
-0.37746

> <CNNscore>
0.5571889877

> <CNNaffinity>
7.7224326134

> <CNN_VS>
4.3028545380

> <CNNaffinity_variance>
0.1891525090

$$$$
[H]OC(=O)C([H])([H])c1c([H])c([H])c(Oc2c([H])c([H])c(C(=O)N([H])C([H])(C([H])([H])[H])C([H])([H])[H])c([H])c2N([H])S(=O)(=O)c2c([H])c([H])c(Cl)c([H])c2Cl)c(OC([H])([H])[H])c1[H]


 40 42  0  0  0  0  0  0  0  0999 V2000
   11.9449   24.5134   -0.0539 C   0  0  0  0  0  0  0  0  0  0  0  0
   11.0183   24.8366   -1.0075 C   0  0  0  0  0  0  0  0  0  0  0  0
   11.3752   25.4747   -2.1794 C   0  0  0  0  0  0  0  0  0  0  0  0
   12.6891   25.7980   -2.4038 C   0  0  0  0  0  0  0  0  0  0  0  0
   13.6139   25.4678   -1.4355 C   0  0  0  0  0  0  0  0  0  0  0  0
   13.3010   24.8350   -0.2601 C   0  0  0  0  0  0  0  0  0  0  0  0
   13.1106   26.4720   -3.6383 C   0  0  0  0  0  0  0  0  0  0  0  0
   12.3361   27.3668   -4.0988 O   0  0  0  0  0  0  0  0  0  0  0  0
   14.3109   26.1453   -4.2797 N   0  0  0  0  0  0  0  0  0  0  0  0
   14.9530   25.4287   -3.9246 H   0  0  0  0  0  0  0  0  0  0  0  0
   14.6777   26.8456   -5.5009 C   0  0  0  0  0  0  0  0  0  0  0  0
   15.7253   27.8719   -5.1050 C   0  0  0  0  0  0  0  0  0  0  0  0
   15.1957   25.8791   -6.5221 C   0  0  0  0  0  0  0  0  0  0  0  0
   14.2376   24.4988    0.7548 N   0  0  0  0  0  0  0  0  0  0  0  0
   14.0538   24.8209    1.7451 H   0  0  0  0  0  0  0  0  0  0  0  0
   15.6319   23.5879    0.3533 S   0  0  0  0  0  0  0  0  0  0  0  0
   16.9120   24.3962    0.5334 O   0  0  0  0  0  0  0  0  0  0  0  0
   15.6952   22.3889    1.3078 O   0  0  0  0  0  0  0  0  0  0  0  0
   15.5073   22.9827   -1.2797 C   0  0  0  0  0  0  0  0  0  0  0  0
   16.0963   23.6539   -2.3124 C   0  0  0  0  0  0  0  0  0  0  0  0
   15.9310   23.1181   -3.5971 C   0  0  0  0  0  0  0  0  0  0  0  0
   15.2151   21.9743   -3.8328 C   0  0  0  0  0  0  0  0  0  0  0  0
   15.0240   21.3272   -5.4399 Cl  0  0  0  0  0  0  0  0  0  0  0  0
   14.6439   21.3409   -2.7574 C   0  0  0  0  0  0  0  0  0  0  0  0
   14.7702   21.8142   -1.4841 C   0  0  0  0  0  0  0  0  0  0  0  0
   14.0356   21.0005   -0.0961 Cl  0  0  0  0  0  0  0  0  0  0  0  0
   11.5896   23.8731    1.1169 O   0  0  0  0  0  0  0  0  0  0  0  0
    9.4236   23.9946    2.1992 C   0  0  0  0  0  0  0  0  0  0  0  0
    8.2072   23.3816    2.4557 C   0  0  0  0  0  0  0  0  0  0  0  0
    7.8732   22.1291    1.9671 C   0  0  0  0  0  0  0  0  0  0  0  0
    8.8111   21.4798    1.1910 C   0  0  0  0  0  0  0  0  0  0  0  0
   10.0273   22.0706    0.9238 C   0  0  0  0  0  0  0  0  0  0  0  0
   10.3589   23.3404    1.4228 C   0  0  0  0  0  0  0  0  0  0  0  0
    8.8277   25.8195    3.6857 C   0  0  0  0  0  0  0  0  0  0  0  0
    9.7037   25.2617    2.7167 O   0  0  0  0  0  0  0  0  0  0  0  0
    6.5626   21.4827    2.2504 C   0  0  0  0  0  0  0  0  0  0  0  0
    6.6702   20.6353    3.4643 C   0  0  0  0  0  0  0  0  0  0  0  0
    6.9829   21.0549    4.5960 O   0  0  0  0  0  0  0  0  0  0  0  0
    6.3959   19.2687    3.3022 O   0  0  0  0  0  0  0  0  0  0  0  0
    5.4923   18.9956    2.9484 H   0  0  0  0  0  0  0  0  0  0  0  0
 34 35  1  0  0  0
 35 28  1  0  0  0
 28 29  2  0  0  0
 29 30  1  0  0  0
 30 36  1  0  0  0
 36 37  1  0  0  0
 37 38  2  0  0  0
 37 39  1  0  0  0
 30 31  2  0  0  0
 31 32  1  0  0  0
 32 33  2  0  0  0
 33 27  1  0  0  0
 27  1  1  0  0  0
  1  2  2  0  0  0
  2  3  1  0  0  0
  3  4  2  0  0  0
  4  7  1  0  0  0
  7  8  2  0  0  0
  7  9  1  0  0  0
  9 11  1  0  0  0
 11 12  1  0  0  0
 11 13  1  0  0  0
  4  5  1  0  0  0
  5  6  2  0  0  0
  6 14  1  0  0  0
 14 16  1  0  0  0
 16 17  2  0  0  0
 16 18  2  0  0  0
 16 19  1  0  0  0
 19 20  2  0  0  0
 20 21  1  0  0  0
 21 22  2  0  0  0
 22 23  1  0  0  0
 22 24  1  0  0  0
 24 25  2  0  0  0
 25 26  1  0  0  0
 33 28  1  0  0  0
  6  1  1  0  0  0
 25 19  1  0  0  0
 39 40  1  0  0  0
  9 10  1  0  0  0
 14 15  1  0  0  0
M  END
> <minimizedAffinity>
-3.68437

> <CNNscore>
0.5299013853

> <CNNaffinity>
7.7728500366

> <CNN_VS>
4.1188440323

> <CNNaffinity_variance>
0.2769384980

$$$$
[H]OC(=O)C([H])([H])c1c([H])c([H])c(Oc2c([H])c([H])c(C(=O)N([H])C([H])(C([H])([H])[H])C([H])([H])[H])c([H])c2N([H])S(=O)(=O)c2c([H])c([H])c(Cl)c([H])c2Cl)c(OC([H])([H])[H])c1[H]


 40 42  0  0  0  0  0  0  0  0999 V2000
   13.0069   25.2362   -1.2561 C   0  0  0  0  0  0  0  0  0  0  0  0
   11.8605   25.1890   -2.0017 C   0  0  0  0  0  0  0  0  0  0  0  0
   10.7102   24.5895   -1.5271 C   0  0  0  0  0  0  0  0  0  0  0  0
   10.7051   24.0233   -0.2778 C   0  0  0  0  0  0  0  0  0  0  0  0
   11.8663   24.0765    0.4643 C   0  0  0  0  0  0  0  0  0  0  0  0
   13.0278   24.6616    0.0301 C   0  0  0  0  0  0  0  0  0  0  0  0
    9.5019   23.3807    0.2655 C   0  0  0  0  0  0  0  0  0  0  0  0
    8.4770   24.1146    0.4193 O   0  0  0  0  0  0  0  0  0  0  0  0
    9.4829   22.0216    0.5990 N   0  0  0  0  0  0  0  0  0  0  0  0
   10.2972   21.4094    0.4806 H   0  0  0  0  0  0  0  0  0  0  0  0
    8.2625   21.4381    1.1344 C   0  0  0  0  0  0  0  0  0  0  0  0
    7.8389   20.3604    0.1514 C   0  0  0  0  0  0  0  0  0  0  0  0
    8.5058   20.8842    2.5053 C   0  0  0  0  0  0  0  0  0  0  0  0
   14.2373   24.7145    0.7748 N   0  0  0  0  0  0  0  0  0  0  0  0
   14.2894   25.3504    1.6181 H   0  0  0  0  0  0  0  0  0  0  0  0
   15.5724   23.7553    0.2924 S   0  0  0  0  0  0  0  0  0  0  0  0
   16.8398   24.5860    0.1247 O   0  0  0  0  0  0  0  0  0  0  0  0
   15.8291   22.7249    1.3991 O   0  0  0  0  0  0  0  0  0  0  0  0
   15.1967   22.8961   -1.1804 C   0  0  0  0  0  0  0  0  0  0  0  0
   15.6614   23.3480   -2.3819 C   0  0  0  0  0  0  0  0  0  0  0  0
   15.2970   22.6175   -3.5214 C   0  0  0  0  0  0  0  0  0  0  0  0
   14.5106   21.4976   -3.4594 C   0  0  0  0  0  0  0  0  0  0  0  0
   14.0711   20.6055   -4.8909 Cl  0  0  0  0  0  0  0  0  0  0  0  0
   14.0710   21.0889   -2.2250 C   0  0  0  0  0  0  0  0  0  0  0  0
   14.3927   21.7584   -1.0807 C   0  0  0  0  0  0  0  0  0  0  0  0
   13.8281   21.2346    0.5115 Cl  0  0  0  0  0  0  0  0  0  0  0  0
   14.1566   25.8376   -1.7285 O   0  0  0  0  0  0  0  0  0  0  0  0
   15.7268   26.4033   -3.4871 C   0  0  0  0  0  0  0  0  0  0  0  0
   15.9277   26.7003   -4.8259 C   0  0  0  0  0  0  0  0  0  0  0  0
   14.8992   26.7491   -5.7527 C   0  0  0  0  0  0  0  0  0  0  0  0
   13.6230   26.4863   -5.2989 C   0  0  0  0  0  0  0  0  0  0  0  0
   13.4004   26.1893   -3.9716 C   0  0  0  0  0  0  0  0  0  0  0  0
   14.4479   26.1420   -3.0379 C   0  0  0  0  0  0  0  0  0  0  0  0
   17.6896   27.4744   -2.5409 C   0  0  0  0  0  0  0  0  0  0  0  0
   16.8041   26.3653   -2.5983 O   0  0  0  0  0  0  0  0  0  0  0  0
   15.1295   27.0694   -7.1880 C   0  0  0  0  0  0  0  0  0  0  0  0
   15.6775   25.8809   -7.8884 C   0  0  0  0  0  0  0  0  0  0  0  0
   16.8921   25.6246   -8.0050 O   0  0  0  0  0  0  0  0  0  0  0  0
   14.7434   24.9978   -8.4509 O   0  0  0  0  0  0  0  0  0  0  0  0
   14.0551   24.5738   -7.8485 H   0  0  0  0  0  0  0  0  0  0  0  0
 34 35  1  0  0  0
 35 28  1  0  0  0
 28 29  2  0  0  0
 29 30  1  0  0  0
 30 36  1  0  0  0
 36 37  1  0  0  0
 37 38  2  0  0  0
 37 39  1  0  0  0
 30 31  2  0  0  0
 31 32  1  0  0  0
 32 33  2  0  0  0
 33 27  1  0  0  0
 27  1  1  0  0  0
  1  2  2  0  0  0
  2  3  1  0  0  0
  3  4  2  0  0  0
  4  7  1  0  0  0
  7  8  2  0  0  0
  7  9  1  0  0  0
  9 11  1  0  0  0
 11 12  1  0  0  0
 11 13  1  0  0  0
  4  5  1  0  0  0
  5  6  2  0  0  0
  6 14  1  0  0  0
 14 16  1  0  0  0
 16 17  2  0  0  0
 16 18  2  0  0  0
 16 19  1  0  0  0
 19 20  2  0  0  0
 20 21  1  0  0  0
 21 22  2  0  0  0
 22 23  1  0  0  0
 22 24  1  0  0  0
 24 25  2  0  0  0
 25 26  1  0  0  0
 33 28  1  0  0  0
  6  1  1  0  0  0
 25 19  1  0  0  0
 39 40  1  0  0  0
  9 10  1  0  0  0
 14 15  1  0  0  0
M  END
> <minimizedAffinity>
-2.43570

> <CNNscore>
0.5203332901

> <CNNaffinity>
7.9574899673

> <CNN_VS>
4.1405467987

> <CNNaffinity_variance>
0.3487225175

$$$$
[H]OC(=O)C([H])([H])c1c([H])c([H])c(Oc2c([H])c([H])c(C(=O)N([H])C([H])(C([H])([H])[H])C([H])([H])[H])c([H])c2N([H])S(=O)(=O)c2c([H])c([H])c(Cl)c([H])c2Cl)c(OC([H])([H])[H])c1[H]


 40 42  0  0  0  0  0  0  0  0999 V2000
   14.8433   24.7135   -1.5964 C   0  0  0  0  0  0  0  0  0  0  0  0
   15.9983   25.4384   -1.4827 C   0  0  0  0  0  0  0  0  0  0  0  0
   16.9410   25.1545   -0.5139 C   0  0  0  0  0  0  0  0  0  0  0  0
   16.7245   24.1218    0.3625 C   0  0  0  0  0  0  0  0  0  0  0  0
   15.5569   23.3985    0.2386 C   0  0  0  0  0  0  0  0  0  0  0  0
   14.5970   23.6479   -0.7082 C   0  0  0  0  0  0  0  0  0  0  0  0
   17.7036   23.7844    1.4034 C   0  0  0  0  0  0  0  0  0  0  0  0
   17.4754   22.7423    2.0922 O   0  0  0  0  0  0  0  0  0  0  0  0
   18.8375   24.5735    1.6277 N   0  0  0  0  0  0  0  0  0  0  0  0
   19.0436   25.4172    1.0822 H   0  0  0  0  0  0  0  0  0  0  0  0
   19.7737   24.1914    2.6736 C   0  0  0  0  0  0  0  0  0  0  0  0
   21.1572   24.2509    2.0493 C   0  0  0  0  0  0  0  0  0  0  0  0
   19.6478   25.1118    3.8494 C   0  0  0  0  0  0  0  0  0  0  0  0
   13.3822   22.9224   -0.8427 N   0  0  0  0  0  0  0  0  0  0  0  0
   13.1970   22.4008   -1.7438 H   0  0  0  0  0  0  0  0  0  0  0  0
   12.2547   22.9106    0.4470 S   0  0  0  0  0  0  0  0  0  0  0  0
   12.8463   22.3063    1.7156 O   0  0  0  0  0  0  0  0  0  0  0  0
   11.8797   24.3665    0.7508 O   0  0  0  0  0  0  0  0  0  0  0  0
   10.8059   22.0587   -0.0263 C   0  0  0  0  0  0  0  0  0  0  0  0
   10.7261   21.4576   -1.2495 C   0  0  0  0  0  0  0  0  0  0  0  0
    9.5215   20.8143   -1.5656 C   0  0  0  0  0  0  0  0  0  0  0  0
    8.4572   20.7764   -0.7042 C   0  0  0  0  0  0  0  0  0  0  0  0
    6.9693   19.9695   -1.1200 Cl  0  0  0  0  0  0  0  0  0  0  0  0
    8.5928   21.3980    0.5121 C   0  0  0  0  0  0  0  0  0  0  0  0
    9.7402   22.0398    0.8762 C   0  0  0  0  0  0  0  0  0  0  0  0
    9.9185   22.8417    2.4426 Cl  0  0  0  0  0  0  0  0  0  0  0  0
   13.9014   24.9948   -2.5662 O   0  0  0  0  0  0  0  0  0  0  0  0
   13.5970   26.3944   -4.5223 C   0  0  0  0  0  0  0  0  0  0  0  0
   13.8979   26.6240   -5.8556 C   0  0  0  0  0  0  0  0  0  0  0  0
   14.7314   25.8013   -6.5957 C   0  0  0  0  0  0  0  0  0  0  0  0
   15.2761   24.7078   -5.9546 C   0  0  0  0  0  0  0  0  0  0  0  0
   14.9900   24.4602   -4.6293 C   0  0  0  0  0  0  0  0  0  0  0  0
   14.1440   25.2985   -3.8856 C   0  0  0  0  0  0  0  0  0  0  0  0
   11.8693   28.0999   -4.5570 C   0  0  0  0  0  0  0  0  0  0  0  0
   12.7517   27.2613   -3.8252 O   0  0  0  0  0  0  0  0  0  0  0  0
   15.0460   26.0601   -8.0274 C   0  0  0  0  0  0  0  0  0  0  0  0
   16.4987   26.3207   -8.1855 C   0  0  0  0  0  0  0  0  0  0  0  0
   17.0912   27.3235   -7.7406 O   0  0  0  0  0  0  0  0  0  0  0  0
   17.2366   25.3566   -8.8889 O   0  0  0  0  0  0  0  0  0  0  0  0
   17.2407   24.4076   -8.5484 H   0  0  0  0  0  0  0  0  0  0  0  0
 34 35  1  0  0  0
 35 28  1  0  0  0
 28 29  2  0  0  0
 29 30  1  0  0  0
 30 36  1  0  0  0
 36 37  1  0  0  0
 37 38  2  0  0  0
 37 39  1  0  0  0
 30 31  2  0  0  0
 31 32  1  0  0  0
 32 33  2  0  0  0
 33 27  1  0  0  0
 27  1  1  0  0  0
  1  2  2  0  0  0
  2  3  1  0  0  0
  3  4  2  0  0  0
  4  7  1  0  0  0
  7  8  2  0  0  0
  7  9  1  0  0  0
  9 11  1  0  0  0
 11 12  1  0  0  0
 11 13  1  0  0  0
  4  5  1  0  0  0
  5  6  2  0  0  0
  6 14  1  0  0  0
 14 16  1  0  0  0
 16 17  2  0  0  0
 16 18  2  0  0  0
 16 19  1  0  0  0
 19 20  2  0  0  0
 20 21  1  0  0  0
 21 22  2  0  0  0
 22 23  1  0  0  0
 22 24  1  0  0  0
 24 25  2  0  0  0
 25 26  1  0  0  0
 33 28  1  0  0  0
  6  1  1  0  0  0
 25 19  1  0  0  0
 39 40  1  0  0  0
  9 10  1  0  0  0
 14 15  1  0  0  0
M  END
> <minimizedAffinity>
9.66072

> <CNNscore>
0.5199394226

> <CNNaffinity>
7.8963556290

> <CNN_VS>
4.1056265831

> <CNNaffinity_variance>
1.1328023672

$$$$
[H]OC(=O)C([H])([H])c1c([H])c([H])c(Oc2c([H])c([H])c(C(=O)N([H])C([H])(C([H])([H])[H])C([H])([H])[H])c([H])c2N([H])S(=O)(=O)c2c([H])c([H])c(Cl)c([H])c2Cl)c(OC([H])([H])[H])c1[H]


 40 42  0  0  0  0  0  0  0  0999 V2000
   13.0112   24.1340   -1.4125 C   0  0  0  0  0  0  0  0  0  0  0  0
   11.7300   24.4184   -1.7996 C   0  0  0  0  0  0  0  0  0  0  0  0
   11.4127   25.5945   -2.4506 C   0  0  0  0  0  0  0  0  0  0  0  0
   12.3989   26.5085   -2.7211 C   0  0  0  0  0  0  0  0  0  0  0  0
   13.6863   26.2114   -2.3258 C   0  0  0  0  0  0  0  0  0  0  0  0
   14.0424   25.0565   -1.6781 C   0  0  0  0  0  0  0  0  0  0  0  0
   12.1044   27.7683   -3.4154 C   0  0  0  0  0  0  0  0  0  0  0  0
   11.8867   27.6999   -4.6646 O   0  0  0  0  0  0  0  0  0  0  0  0
   12.0642   28.9900   -2.7336 N   0  0  0  0  0  0  0  0  0  0  0  0
   12.2337   29.0688   -1.7252 H   0  0  0  0  0  0  0  0  0  0  0  0
   11.7679   30.2072   -3.4731 C   0  0  0  0  0  0  0  0  0  0  0  0
   13.0563   30.6050   -4.1723 C   0  0  0  0  0  0  0  0  0  0  0  0
   10.6516   29.9700   -4.4442 C   0  0  0  0  0  0  0  0  0  0  0  0
   15.3605   24.7389   -1.2515 N   0  0  0  0  0  0  0  0  0  0  0  0
   15.4889   24.2023   -0.3493 H   0  0  0  0  0  0  0  0  0  0  0  0
   16.6999   25.2296   -2.2003 S   0  0  0  0  0  0  0  0  0  0  0  0
   17.2955   26.5441   -1.7085 O   0  0  0  0  0  0  0  0  0  0  0  0
   17.7804   24.1482   -2.0746 O   0  0  0  0  0  0  0  0  0  0  0  0
   16.2374   25.3501   -3.8796 C   0  0  0  0  0  0  0  0  0  0  0  0
   15.8306   24.2422   -4.5657 C   0  0  0  0  0  0  0  0  0  0  0  0
   15.4990   24.4155   -5.9166 C   0  0  0  0  0  0  0  0  0  0  0  0
   15.5719   25.6310   -6.5439 C   0  0  0  0  0  0  0  0  0  0  0  0
   15.1537   25.8215   -8.2252 Cl  0  0  0  0  0  0  0  0  0  0  0  0
   15.9879   26.7109   -5.8058 C   0  0  0  0  0  0  0  0  0  0  0  0
   16.3237   26.6044   -4.4879 C   0  0  0  0  0  0  0  0  0  0  0  0
   16.8601   27.9938   -3.5338 Cl  0  0  0  0  0  0  0  0  0  0  0  0
   13.3300   22.9573   -0.7639 O   0  0  0  0  0  0  0  0  0  0  0  0
   13.0082   21.1768    0.8498 C   0  0  0  0  0  0  0  0  0  0  0  0
   12.2295   20.6437    1.8649 C   0  0  0  0  0  0  0  0  0  0  0  0
   11.0636   21.2401    2.3169 C   0  0  0  0  0  0  0  0  0  0  0  0
   10.6790   22.4197    1.7133 C   0  0  0  0  0  0  0  0  0  0  0  0
   11.4382   22.9673    0.7016 C   0  0  0  0  0  0  0  0  0  0  0  0
   12.6186   22.3567    0.2486 C   0  0  0  0  0  0  0  0  0  0  0  0
   15.4293   21.1615    0.6674 C   0  0  0  0  0  0  0  0  0  0  0  0
   14.1770   20.5318    0.4376 O   0  0  0  0  0  0  0  0  0  0  0  0
   10.2369   20.6564    3.4083 C   0  0  0  0  0  0  0  0  0  0  0  0
   11.0742   20.4399    4.6147 C   0  0  0  0  0  0  0  0  0  0  0  0
   11.4614   21.3448    5.3801 O   0  0  0  0  0  0  0  0  0  0  0  0
   11.4436   19.1152    4.8930 O   0  0  0  0  0  0  0  0  0  0  0  0
   10.7175   18.4292    5.0291 H   0  0  0  0  0  0  0  0  0  0  0  0
 34 35  1  0  0  0
 35 28  1  0  0  0
 28 29  2  0  0  0
 29 30  1  0  0  0
 30 36  1  0  0  0
 36 37  1  0  0  0
 37 38  2  0  0  0
 37 39  1  0  0  0
 30 31  2  0  0  0
 31 32  1  0  0  0
 32 33  2  0  0  0
 33 27  1  0  0  0
 27  1  1  0  0  0
  1  2  2  0  0  0
  2  3  1  0  0  0
  3  4  2  0  0  0
  4  7  1  0  0  0
  7  8  2  0  0  0
  7  9  1  0  0  0
  9 11  1  0  0  0
 11 12  1  0  0  0
 11 13  1  0  0  0
  4  5  1  0  0  0
  5  6  2  0  0  0
  6 14  1  0  0  0
 14 16  1  0  0  0
 16 17  2  0  0  0
 16 18  2  0  0  0
 16 19  1  0  0  0
 19 20  2  0  0  0
 20 21  1  0  0  0
 21 22  2  0  0  0
 22 23  1  0  0  0
 22 24  1  0  0  0
 24 25  2  0  0  0
 25 26  1  0  0  0
 33 28  1  0  0  0
  6  1  1  0  0  0
 25 19  1  0  0  0
 39 40  1  0  0  0
  9 10  1  0  0  0
 14 15  1  0  0  0
M  END
> <minimizedAffinity>
7.24111

> <CNNscore>
0.5103750825

> <CNNaffinity>
7.4536070824

> <CNN_VS>
3.8041353226

> <CNNaffinity_variance>
0.2771667838

$$$$
[H]OC(=O)C([H])([H])c1c([H])c([H])c(Oc2c([H])c([H])c(C(=O)N([H])C([H])(C([H])([H])[H])C([H])([H])[H])c([H])c2N([H])S(=O)(=O)c2c([H])c([H])c(Cl)c([H])c2Cl)c(OC([H])([H])[H])c1[H]


 40 42  0  0  0  0  0  0  0  0999 V2000
   14.5418   22.4588   -3.1197 C   0  0  0  0  0  0  0  0  0  0  0  0
   15.3426   22.5917   -4.2212 C   0  0  0  0  0  0  0  0  0  0  0  0
   15.8009   23.8252   -4.6409 C   0  0  0  0  0  0  0  0  0  0  0  0
   15.4505   24.9532   -3.9436 C   0  0  0  0  0  0  0  0  0  0  0  0
   14.6426   24.8072   -2.8354 C   0  0  0  0  0  0  0  0  0  0  0  0
   14.1672   23.6020   -2.3863 C   0  0  0  0  0  0  0  0  0  0  0  0
   15.9203   26.2824   -4.3537 C   0  0  0  0  0  0  0  0  0  0  0  0
   15.6445   26.6506   -5.5373 O   0  0  0  0  0  0  0  0  0  0  0  0
   16.6391   27.1080   -3.4815 N   0  0  0  0  0  0  0  0  0  0  0  0
   16.8705   26.8330   -2.5210 H   0  0  0  0  0  0  0  0  0  0  0  0
   17.0803   28.4155   -3.9422 C   0  0  0  0  0  0  0  0  0  0  0  0
   18.5858   28.3187   -4.1196 C   0  0  0  0  0  0  0  0  0  0  0  0
   16.3864   28.7812   -5.2190 C   0  0  0  0  0  0  0  0  0  0  0  0
   13.3234   23.4333   -1.2551 N   0  0  0  0  0  0  0  0  0  0  0  0
   12.2891   23.2762   -1.4095 H   0  0  0  0  0  0  0  0  0  0  0  0
   13.9957   23.4891    0.3197 S   0  0  0  0  0  0  0  0  0  0  0  0
   13.3997   22.4226    1.2318 O   0  0  0  0  0  0  0  0  0  0  0  0
   15.4992   23.2129    0.1939 O   0  0  0  0  0  0  0  0  0  0  0  0
   13.7861   25.0796    1.0088 C   0  0  0  0  0  0  0  0  0  0  0  0
   14.8660   25.7906    1.4473 C   0  0  0  0  0  0  0  0  0  0  0  0
   14.6140   27.0493    2.0102 C   0  0  0  0  0  0  0  0  0  0  0  0
   13.3506   27.5655    2.1273 C   0  0  0  0  0  0  0  0  0  0  0  0
   13.0625   29.1339    2.8309 Cl  0  0  0  0  0  0  0  0  0  0  0  0
   12.3019   26.8068    1.6705 C   0  0  0  0  0  0  0  0  0  0  0  0
   12.4845   25.5752    1.1131 C   0  0  0  0  0  0  0  0  0  0  0  0
   11.1356   24.5950    0.5233 Cl  0  0  0  0  0  0  0  0  0  0  0  0
   14.0853   21.2258   -2.6977 O   0  0  0  0  0  0  0  0  0  0  0  0
   13.0625   20.1873   -0.7603 C   0  0  0  0  0  0  0  0  0  0  0  0
   11.9189   19.9988   -0.0002 C   0  0  0  0  0  0  0  0  0  0  0  0
   10.6987   20.5751   -0.3135 C   0  0  0  0  0  0  0  0  0  0  0  0
   10.6429   21.3702   -1.4397 C   0  0  0  0  0  0  0  0  0  0  0  0
   11.7679   21.5708   -2.2103 C   0  0  0  0  0  0  0  0  0  0  0  0
   13.0012   20.9830   -1.8866 C   0  0  0  0  0  0  0  0  0  0  0  0
   15.1180   20.2460    0.5306 C   0  0  0  0  0  0  0  0  0  0  0  0
   14.2673   19.5825   -0.3932 O   0  0  0  0  0  0  0  0  0  0  0  0
    9.4783   20.3641    0.5121 C   0  0  0  0  0  0  0  0  0  0  0  0
    8.2674   20.6680   -0.2908 C   0  0  0  0  0  0  0  0  0  0  0  0
    7.7380   19.8812   -1.1003 O   0  0  0  0  0  0  0  0  0  0  0  0
    7.6957   21.9365   -0.1090 O   0  0  0  0  0  0  0  0  0  0  0  0
    7.3935   22.2027    0.8153 H   0  0  0  0  0  0  0  0  0  0  0  0
 34 35  1  0  0  0
 35 28  1  0  0  0
 28 29  2  0  0  0
 29 30  1  0  0  0
 30 36  1  0  0  0
 36 37  1  0  0  0
 37 38  2  0  0  0
 37 39  1  0  0  0
 30 31  2  0  0  0
 31 32  1  0  0  0
 32 33  2  0  0  0
 33 27  1  0  0  0
 27  1  1  0  0  0
  1  2  2  0  0  0
  2  3  1  0  0  0
  3  4  2  0  0  0
  4  7  1  0  0  0
  7  8  2  0  0  0
  7  9  1  0  0  0
  9 11  1  0  0  0
 11 12  1  0  0  0
 11 13  1  0  0  0
  4  5  1  0  0  0
  5  6  2  0  0  0
  6 14  1  0  0  0
 14 16  1  0  0  0
 16 17  2  0  0  0
 16 18  2  0  0  0
 16 19  1  0  0  0
 19 20  2  0  0  0
 20 21  1  0  0  0
 21 22  2  0  0  0
 22 23  1  0  0  0
 22 24  1  0  0  0
 24 25  2  0  0  0
 25 26  1  0  0  0
 33 28  1  0  0  0
  6  1  1  0  0  0
 25 19  1  0  0  0
 39 40  1  0  0  0
  9 10  1  0  0  0
 14 15  1  0  0  0
M  END
> <minimizedAffinity>
6.04966

> <CNNscore>
0.4773455858

> <CNNaffinity>
7.4503507614

> <CNN_VS>
3.5563919544

> <CNNaffinity_variance>
0.3301143348

$$$$
[H]OC(=O)C([H])([H])c1c([H])c([H])c(Oc2c([H])c([H])c(C(=O)N([H])C([H])(C([H])([H])[H])C([H])([H])[H])c([H])c2N([H])S(=O)(=O)c2c([H])c([H])c(Cl)c([H])c2Cl)c(OC([H])([H])[H])c1[H]


 40 42  0  0  0  0  0  0  0  0999 V2000
   13.7564   24.9188   -3.0048 C   0  0  0  0  0  0  0  0  0  0  0  0
   14.0735   25.5584   -4.1722 C   0  0  0  0  0  0  0  0  0  0  0  0
   13.3728   26.6668   -4.6060 C   0  0  0  0  0  0  0  0  0  0  0  0
   12.3300   27.1476   -3.8558 C   0  0  0  0  0  0  0  0  0  0  0  0
   12.0192   26.4947   -2.6815 C   0  0  0  0  0  0  0  0  0  0  0  0
   12.6893   25.3926   -2.2162 C   0  0  0  0  0  0  0  0  0  0  0  0
   11.5631   28.3259   -4.2791 C   0  0  0  0  0  0  0  0  0  0  0  0
   12.0706   29.4630   -4.0300 O   0  0  0  0  0  0  0  0  0  0  0  0
   10.3291   28.2040   -4.9281 N   0  0  0  0  0  0  0  0  0  0  0  0
    9.9016   27.2966   -5.1421 H   0  0  0  0  0  0  0  0  0  0  0  0
    9.6125   29.4065   -5.3244 C   0  0  0  0  0  0  0  0  0  0  0  0
    8.2894   28.9411   -5.9073 C   0  0  0  0  0  0  0  0  0  0  0  0
    9.4201   30.3123   -4.1463 C   0  0  0  0  0  0  0  0  0  0  0  0
   12.3752   24.6988   -1.0161 N   0  0  0  0  0  0  0  0  0  0  0  0
   12.9262   24.9192   -0.1408 H   0  0  0  0  0  0  0  0  0  0  0  0
   11.1223   23.5305   -1.0155 S   0  0  0  0  0  0  0  0  0  0  0  0
    9.7473   24.1694   -1.1762 O   0  0  0  0  0  0  0  0  0  0  0  0
   11.3516   22.6015   -2.2142 O   0  0  0  0  0  0  0  0  0  0  0  0
   11.1922   22.5720    0.4423 C   0  0  0  0  0  0  0  0  0  0  0  0
   11.5296   21.2504    0.3849 C   0  0  0  0  0  0  0  0  0  0  0  0
   11.5401   20.5426    1.5948 C   0  0  0  0  0  0  0  0  0  0  0  0
   11.2295   21.1270    2.7941 C   0  0  0  0  0  0  0  0  0  0  0  0
   11.2502   20.2258    4.2858 Cl  0  0  0  0  0  0  0  0  0  0  0  0
   10.8971   22.4588    2.7927 C   0  0  0  0  0  0  0  0  0  0  0  0
   10.8696   23.1997    1.6475 C   0  0  0  0  0  0  0  0  0  0  0  0
   10.4418   24.9158    1.6420 Cl  0  0  0  0  0  0  0  0  0  0  0  0
   14.4579   23.8122   -2.5688 O   0  0  0  0  0  0  0  0  0  0  0  0
   15.1992   22.6174   -0.5938 C   0  0  0  0  0  0  0  0  0  0  0  0
   16.0018   22.6080    0.5362 C   0  0  0  0  0  0  0  0  0  0  0  0
   16.8368   23.6587    0.8799 C   0  0  0  0  0  0  0  0  0  0  0  0
   16.8538   24.7556    0.0432 C   0  0  0  0  0  0  0  0  0  0  0  0
   16.0635   24.7862   -1.0855 C   0  0  0  0  0  0  0  0  0  0  0  0
   15.2193   23.7176   -1.4273 C   0  0  0  0  0  0  0  0  0  0  0  0
   14.7038   20.2526   -0.3537 C   0  0  0  0  0  0  0  0  0  0  0  0
   14.3788   21.5264   -0.8916 O   0  0  0  0  0  0  0  0  0  0  0  0
   17.6937   23.6351    2.0968 C   0  0  0  0  0  0  0  0  0  0  0  0
   19.0149   24.2407    1.7952 C   0  0  0  0  0  0  0  0  0  0  0  0
   19.6109   24.1343    0.7053 O   0  0  0  0  0  0  0  0  0  0  0  0
   19.6160   24.9805    2.8249 O   0  0  0  0  0  0  0  0  0  0  0  0
   19.1183   25.7693    3.2075 H   0  0  0  0  0  0  0  0  0  0  0  0
 34 35  1  0  0  0
 35 28  1  0  0  0
 28 29  2  0  0  0
 29 30  1  0  0  0
 30 36  1  0  0  0
 36 37  1  0  0  0
 37 38  2  0  0  0
 37 39  1  0  0  0
 30 31  2  0  0  0
 31 32  1  0  0  0
 32 33  2  0  0  0
 33 27  1  0  0  0
 27  1  1  0  0  0
  1  2  2  0  0  0
  2  3  1  0  0  0
  3  4  2  0  0  0
  4  7  1  0  0  0
  7  8  2  0  0  0
  7  9  1  0  0  0
  9 11  1  0  0  0
 11 12  1  0  0  0
 11 13  1  0  0  0
  4  5  1  0  0  0
  5  6  2  0  0  0
  6 14  1  0  0  0
 14 16  1  0  0  0
 16 17  2  0  0  0
 16 18  2  0  0  0
 16 19  1  0  0  0
 19 20  2  0  0  0
 20 21  1  0  0  0
 21 22  2  0  0  0
 22 23  1  0  0  0
 22 24  1  0  0  0
 24 25  2  0  0  0
 25 26  1  0  0  0
 33 28  1  0  0  0
  6  1  1  0  0  0
 25 19  1  0  0  0
 39 40  1  0  0  0
  9 10  1  0  0  0
 14 15  1  0  0  0
M  END
> <minimizedAffinity>
8.89975

> <CNNscore>
0.4680528641

> <CNNaffinity>
7.2962045670

> <CNN_VS>
3.4150094986

> <CNNaffinity_variance>
0.9000474215

$$$$
[H]c1c([H])c([H])c(N([H])c2nc3c([H])nc(N([H])c4c([H])c([H])c(OC([H])([H])[H])c([H])c4[H])nc3n2C([H])(C([H])([H])[H])C([H])([H])[H])c(F)c1[H]


 31 34  0  0  0  0  0  0  0  0999 V2000
   12.8163   28.0227   -4.0515 C   0  0  0  0  0  0  0  0  0  0  0  0
   13.9068   27.7398   -4.7631 N   0  0  0  0  0  0  0  0  0  0  0  0
   14.6128   26.6121   -4.7055 C   0  0  0  0  0  0  0  0  0  0  0  0
   14.1967   25.6259   -3.8337 C   0  0  0  0  0  0  0  0  0  0  0  0
   14.6409   24.4050   -3.5168 N   0  0  0  0  0  0  0  0  0  0  0  0
   13.8332   23.8786   -2.5859 C   0  0  0  0  0  0  0  0  0  0  0  0
   12.8462   24.7700   -2.2904 N   0  0  0  0  0  0  0  0  0  0  0  0
   13.0787   25.8524   -3.0692 C   0  0  0  0  0  0  0  0  0  0  0  0
   12.4311   27.0155   -3.1926 N   0  0  0  0  0  0  0  0  0  0  0  0
   11.7553   24.6181   -1.3397 C   0  0  0  0  0  0  0  0  0  0  0  0
   12.1676   25.0256    0.0615 C   0  0  0  0  0  0  0  0  0  0  0  0
   11.1467   23.2492   -1.3814 C   0  0  0  0  0  0  0  0  0  0  0  0
   12.0766   29.2042   -4.1121 N   0  0  0  0  0  0  0  0  0  0  0  0
   12.5716   30.1057   -3.8291 H   0  0  0  0  0  0  0  0  0  0  0  0
    8.0390   29.3511   -5.3785 C   0  0  0  0  0  0  0  0  0  0  0  0
    8.5643   30.3461   -4.5912 C   0  0  0  0  0  0  0  0  0  0  0  0
    9.8904   30.3270   -4.1671 C   0  0  0  0  0  0  0  0  0  0  0  0
   10.7376   29.3228   -4.5077 C   0  0  0  0  0  0  0  0  0  0  0  0
   10.1789   28.3006   -5.3232 C   0  0  0  0  0  0  0  0  0  0  0  0
    8.8893   28.3343   -5.7268 C   0  0  0  0  0  0  0  0  0  0  0  0
    6.0714   28.1798   -6.1366 C   0  0  0  0  0  0  0  0  0  0  0  0
    6.7164   29.3835   -5.7934 O   0  0  0  0  0  0  0  0  0  0  0  0
   13.9571   22.6060   -1.9860 N   0  0  0  0  0  0  0  0  0  0  0  0
   13.4322   21.8188   -2.4988 H   0  0  0  0  0  0  0  0  0  0  0  0
   14.6583   22.2320   -0.8332 C   0  0  0  0  0  0  0  0  0  0  0  0
   15.4554   23.0616   -0.0830 C   0  0  0  0  0  0  0  0  0  0  0  0
   16.1101   22.5693    1.0571 C   0  0  0  0  0  0  0  0  0  0  0  0
   15.9742   21.2585    1.4510 C   0  0  0  0  0  0  0  0  0  0  0  0
   15.1787   20.4106    0.7112 C   0  0  0  0  0  0  0  0  0  0  0  0
   14.5562   20.9019   -0.3833 C   0  0  0  0  0  0  0  0  0  0  0  0
   13.7748   20.0274   -1.0916 F   0  0  0  0  0  0  0  0  0  0  0  0
 21 22  1  0  0  0
 22 15  1  0  0  0
 15 16  2  0  0  0
 16 17  1  0  0  0
 17 18  2  0  0  0
 18 13  1  0  0  0
 13  1  1  0  0  0
  1  2  2  0  0  0
  2  3  1  0  0  0
  3  4  2  0  0  0
  4  5  1  0  0  0
  5  6  2  0  0  0
  6 23  1  0  0  0
 23 25  1  0  0  0
 25 26  2  0  0  0
 26 27  1  0  0  0
 27 28  2  0  0  0
 28 29  1  0  0  0
 29 30  2  0  0  0
 30 31  1  0  0  0
  6  7  1  0  0  0
  7 10  1  0  0  0
 10 11  1  0  0  0
 10 12  1  0  0  0
  7  8  1  0  0  0
  8  9  2  0  0  0
 18 19  1  0  0  0
 19 20  2  0  0  0
 20 15  1  0  0  0
  9  1  1  0  0  0
  8  4  1  0  0  0
 30 25  1  0  0  0
 13 14  1  0  0  0
 23 24  1  0  0  0
M  END
> <minimizedAffinity>
8.83931

> <CNNscore>
0.5630185604

> <CNNaffinity>
7.2469635010

> <CNN_VS>
4.0801749229

> <CNNaffinity_variance>
0.6893385053

$$$$
[H]c1c([H])c([H])c(N([H])c2nc3c([H])nc(N([H])c4c([H])c([H])c(OC([H])([H])[H])c([H])c4[H])nc3n2C([H])(C([H])([H])[H])C([H])([H])[H])c(F)c1[H]


 31 34  0  0  0  0  0  0  0  0999 V2000
   16.1953   24.8346   -0.9706 C   0  0  0  0  0  0  0  0  0  0  0  0
   16.8027   24.2552    0.0644 N   0  0  0  0  0  0  0  0  0  0  0  0
   16.2591   23.3752    0.9033 C   0  0  0  0  0  0  0  0  0  0  0  0
   14.9424   23.0115    0.7040 C   0  0  0  0  0  0  0  0  0  0  0  0
   14.0932   22.1846    1.3232 N   0  0  0  0  0  0  0  0  0  0  0  0
   12.9136   22.2204    0.6882 C   0  0  0  0  0  0  0  0  0  0  0  0
   12.9939   23.0844   -0.3620 N   0  0  0  0  0  0  0  0  0  0  0  0
   14.2567   23.5716   -0.3457 C   0  0  0  0  0  0  0  0  0  0  0  0
   14.8829   24.4475   -1.1382 N   0  0  0  0  0  0  0  0  0  0  0  0
   11.9550   23.4316   -1.3197 C   0  0  0  0  0  0  0  0  0  0  0  0
   11.3989   24.8200   -1.0695 C   0  0  0  0  0  0  0  0  0  0  0  0
   10.8798   22.3907   -1.3997 C   0  0  0  0  0  0  0  0  0  0  0  0
   16.7651   25.7564   -1.8495 N   0  0  0  0  0  0  0  0  0  0  0  0
   17.5926   26.3261   -1.4913 H   0  0  0  0  0  0  0  0  0  0  0  0
   15.4371   26.3167   -5.8308 C   0  0  0  0  0  0  0  0  0  0  0  0
   15.8431   27.3850   -5.0693 C   0  0  0  0  0  0  0  0  0  0  0  0
   16.2917   27.2285   -3.7605 C   0  0  0  0  0  0  0  0  0  0  0  0
   16.3518   26.0109   -3.1640 C   0  0  0  0  0  0  0  0  0  0  0  0
   15.9285   24.9151   -3.9654 C   0  0  0  0  0  0  0  0  0  0  0  0
   15.4961   25.0840   -5.2349 C   0  0  0  0  0  0  0  0  0  0  0  0
   15.5503   25.7032   -8.1608 C   0  0  0  0  0  0  0  0  0  0  0  0
   14.9928   26.4878   -7.1330 O   0  0  0  0  0  0  0  0  0  0  0  0
   11.7523   21.4916    1.0276 N   0  0  0  0  0  0  0  0  0  0  0  0
   11.3676   20.8726    0.2358 H   0  0  0  0  0  0  0  0  0  0  0  0
   11.0427   21.4631    2.2342 C   0  0  0  0  0  0  0  0  0  0  0  0
   11.0413   20.4235    3.1318 C   0  0  0  0  0  0  0  0  0  0  0  0
   10.2868   20.5118    4.3123 C   0  0  0  0  0  0  0  0  0  0  0  0
    9.5365   21.6279    4.6009 C   0  0  0  0  0  0  0  0  0  0  0  0
    9.5251   22.6814    3.7128 C   0  0  0  0  0  0  0  0  0  0  0  0
   10.2573   22.5788    2.5814 C   0  0  0  0  0  0  0  0  0  0  0  0
   10.2194   23.6471    1.7245 F   0  0  0  0  0  0  0  0  0  0  0  0
 21 22  1  0  0  0
 22 15  1  0  0  0
 15 16  2  0  0  0
 16 17  1  0  0  0
 17 18  2  0  0  0
 18 13  1  0  0  0
 13  1  1  0  0  0
  1  2  2  0  0  0
  2  3  1  0  0  0
  3  4  2  0  0  0
  4  5  1  0  0  0
  5  6  2  0  0  0
  6 23  1  0  0  0
 23 25  1  0  0  0
 25 26  2  0  0  0
 26 27  1  0  0  0
 27 28  2  0  0  0
 28 29  1  0  0  0
 29 30  2  0  0  0
 30 31  1  0  0  0
  6  7  1  0  0  0
  7 10  1  0  0  0
 10 11  1  0  0  0
 10 12  1  0  0  0
  7  8  1  0  0  0
  8  9  2  0  0  0
 18 19  1  0  0  0
 19 20  2  0  0  0
 20 15  1  0  0  0
  9  1  1  0  0  0
  8  4  1  0  0  0
 30 25  1  0  0  0
 13 14  1  0  0  0
 23 24  1  0  0  0
M  END
> <minimizedAffinity>
-7.31298

> <CNNscore>
0.5098636746

> <CNNaffinity>
7.9097375870

> <CNN_VS>
4.0328879356

> <CNNaffinity_variance>
0.2459627688

$$$$
[H]c1c([H])c([H])c(N([H])c2nc3c([H])nc(N([H])c4c([H])c([H])c(OC([H])([H])[H])c([H])c4[H])nc3n2C([H])(C([H])([H])[H])C([H])([H])[H])c(F)c1[H]


 31 34  0  0  0  0  0  0  0  0999 V2000
   15.6750   23.9939   -0.4209 C   0  0  0  0  0  0  0  0  0  0  0  0
   16.1793   22.9455    0.2290 N   0  0  0  0  0  0  0  0  0  0  0  0
   15.4851   22.0259    0.8968 C   0  0  0  0  0  0  0  0  0  0  0  0
   14.1104   22.1469    0.9350 C   0  0  0  0  0  0  0  0  0  0  0  0
   13.1209   21.4381    1.4888 N   0  0  0  0  0  0  0  0  0  0  0  0
   11.9522   22.0269    1.2000 C   0  0  0  0  0  0  0  0  0  0  0  0
   12.1824   23.1378    0.4457 N   0  0  0  0  0  0  0  0  0  0  0  0
   13.5248   23.2056    0.2854 C   0  0  0  0  0  0  0  0  0  0  0  0
   14.3006   24.0819   -0.3608 N   0  0  0  0  0  0  0  0  0  0  0  0
   11.2080   24.0757   -0.0907 C   0  0  0  0  0  0  0  0  0  0  0  0
   10.5099   23.5231   -1.3182 C   0  0  0  0  0  0  0  0  0  0  0  0
   11.7931   25.4348   -0.3288 C   0  0  0  0  0  0  0  0  0  0  0  0
   16.4026   24.9571   -1.1206 N   0  0  0  0  0  0  0  0  0  0  0  0
   17.2403   25.3927   -0.6244 H   0  0  0  0  0  0  0  0  0  0  0  0
   15.4738   26.1548   -5.0742 C   0  0  0  0  0  0  0  0  0  0  0  0
   16.0771   27.0256   -4.2004 C   0  0  0  0  0  0  0  0  0  0  0  0
   16.4007   26.6558   -2.8976 C   0  0  0  0  0  0  0  0  0  0  0  0
   16.1368   25.4137   -2.4184 C   0  0  0  0  0  0  0  0  0  0  0  0
   15.5125   24.5238   -3.3352 C   0  0  0  0  0  0  0  0  0  0  0  0
   15.2053   24.8984   -4.5971 C   0  0  0  0  0  0  0  0  0  0  0  0
   15.5880   25.7413   -7.4478 C   0  0  0  0  0  0  0  0  0  0  0  0
   15.1574   26.5371   -6.3689 O   0  0  0  0  0  0  0  0  0  0  0  0
   10.6690   21.5915    1.5983 N   0  0  0  0  0  0  0  0  0  0  0  0
   10.5300   21.5310    2.6637 H   0  0  0  0  0  0  0  0  0  0  0  0
    9.5686   21.2330    0.8103 C   0  0  0  0  0  0  0  0  0  0  0  0
    8.3044   21.7578    0.9237 C   0  0  0  0  0  0  0  0  0  0  0  0
    7.2786   21.3167    0.0729 C   0  0  0  0  0  0  0  0  0  0  0  0
    7.5067   20.3581   -0.8868 C   0  0  0  0  0  0  0  0  0  0  0  0
    8.7684   19.8195   -1.0160 C   0  0  0  0  0  0  0  0  0  0  0  0
    9.7436   20.2561   -0.1883 C   0  0  0  0  0  0  0  0  0  0  0  0
   10.9837   19.6961   -0.3486 F   0  0  0  0  0  0  0  0  0  0  0  0
 21 22  1  0  0  0
 22 15  1  0  0  0
 15 16  2  0  0  0
 16 17  1  0  0  0
 17 18  2  0  0  0
 18 13  1  0  0  0
 13  1  1  0  0  0
  1  2  2  0  0  0
  2  3  1  0  0  0
  3  4  2  0  0  0
  4  5  1  0  0  0
  5  6  2  0  0  0
  6 23  1  0  0  0
 23 25  1  0  0  0
 25 26  2  0  0  0
 26 27  1  0  0  0
 27 28  2  0  0  0
 28 29  1  0  0  0
 29 30  2  0  0  0
 30 31  1  0  0  0
  6  7  1  0  0  0
  7 10  1  0  0  0
 10 11  1  0  0  0
 10 12  1  0  0  0
  7  8  1  0  0  0
  8  9  2  0  0  0
 18 19  1  0  0  0
 19 20  2  0  0  0
 20 15  1  0  0  0
  9  1  1  0  0  0
  8  4  1  0  0  0
 30 25  1  0  0  0
 13 14  1  0  0  0
 23 24  1  0  0  0
M  END
> <minimizedAffinity>
-6.91660

> <CNNscore>
0.3936202526

> <CNNaffinity>
7.6068181992

> <CNN_VS>
2.9941976070

> <CNNaffinity_variance>
0.1428357959

$$$$
[H]c1c([H])c([H])c(N([H])c2nc3c([H])nc(N([H])c4c([H])c([H])c(OC([H])([H])[H])c([H])c4[H])nc3n2C([H])(C([H])([H])[H])C([H])([H])[H])c(F)c1[H]


 31 34  0  0  0  0  0  0  0  0999 V2000
   13.2593   24.6048   -2.0122 C   0  0  0  0  0  0  0  0  0  0  0  0
   12.4229   25.4109   -1.3594 N   0  0  0  0  0  0  0  0  0  0  0  0
   11.8285   25.1522   -0.1961 C   0  0  0  0  0  0  0  0  0  0  0  0
   12.0864   23.9403    0.4128 C   0  0  0  0  0  0  0  0  0  0  0  0
   11.6839   23.3548    1.5457 N   0  0  0  0  0  0  0  0  0  0  0  0
   12.2622   22.1494    1.6392 C   0  0  0  0  0  0  0  0  0  0  0  0
   13.0547   21.9449    0.5502 N   0  0  0  0  0  0  0  0  0  0  0  0
   12.9404   23.0613   -0.2067 C   0  0  0  0  0  0  0  0  0  0  0  0
   13.4928   23.4050   -1.3746 N   0  0  0  0  0  0  0  0  0  0  0  0
   13.8672   20.7789    0.2381 C   0  0  0  0  0  0  0  0  0  0  0  0
   15.3202   20.9857    0.6196 C   0  0  0  0  0  0  0  0  0  0  0  0
   13.7070   20.3342   -1.1840 C   0  0  0  0  0  0  0  0  0  0  0  0
   13.8821   24.8761   -3.2309 N   0  0  0  0  0  0  0  0  0  0  0  0
   13.5923   24.2850   -4.0701 H   0  0  0  0  0  0  0  0  0  0  0  0
   16.9689   27.7213   -3.7827 C   0  0  0  0  0  0  0  0  0  0  0  0
   15.8818   27.6935   -4.6213 C   0  0  0  0  0  0  0  0  0  0  0  0
   14.8489   26.7741   -4.4581 C   0  0  0  0  0  0  0  0  0  0  0  0
   14.8597   25.8533   -3.4611 C   0  0  0  0  0  0  0  0  0  0  0  0
   15.9915   25.8952   -2.6012 C   0  0  0  0  0  0  0  0  0  0  0  0
   16.9858   26.7947   -2.7731 C   0  0  0  0  0  0  0  0  0  0  0  0
   19.3273   28.2020   -3.9414 C   0  0  0  0  0  0  0  0  0  0  0  0
   17.9901   28.6428   -3.9574 O   0  0  0  0  0  0  0  0  0  0  0  0
   12.0977   21.2158    2.6861 N   0  0  0  0  0  0  0  0  0  0  0  0
   12.9642   20.6082    2.8814 H   0  0  0  0  0  0  0  0  0  0  0  0
   10.9795   20.9746    3.4935 C   0  0  0  0  0  0  0  0  0  0  0  0
    9.8359   21.7350    3.5160 C   0  0  0  0  0  0  0  0  0  0  0  0
    8.7775   21.3919    4.3720 C   0  0  0  0  0  0  0  0  0  0  0  0
    8.8538   20.2982    5.2025 C   0  0  0  0  0  0  0  0  0  0  0  0
    9.9930   19.5229    5.1943 C   0  0  0  0  0  0  0  0  0  0  0  0
   11.0018   19.8683    4.3639 C   0  0  0  0  0  0  0  0  0  0  0  0
   12.1168   19.0724    4.3855 F   0  0  0  0  0  0  0  0  0  0  0  0
 21 22  1  0  0  0
 22 15  1  0  0  0
 15 16  2  0  0  0
 16 17  1  0  0  0
 17 18  2  0  0  0
 18 13  1  0  0  0
 13  1  1  0  0  0
  1  2  2  0  0  0
  2  3  1  0  0  0
  3  4  2  0  0  0
  4  5  1  0  0  0
  5  6  2  0  0  0
  6 23  1  0  0  0
 23 25  1  0  0  0
 25 26  2  0  0  0
 26 27  1  0  0  0
 27 28  2  0  0  0
 28 29  1  0  0  0
 29 30  2  0  0  0
 30 31  1  0  0  0
  6  7  1  0  0  0
  7 10  1  0  0  0
 10 11  1  0  0  0
 10 12  1  0  0  0
  7  8  1  0  0  0
  8  9  2  0  0  0
 18 19  1  0  0  0
 19 20  2  0  0  0
 20 15  1  0  0  0
  9  1  1  0  0  0
  8  4  1  0  0  0
 30 25  1  0  0  0
 13 14  1  0  0  0
 23 24  1  0  0  0
M  END
> <minimizedAffinity>
-8.29408

> <CNNscore>
0.3895199895

> <CNNaffinity>
7.4292640686

> <CNN_VS>
2.8938467503

> <CNNaffinity_variance>
0.2722075582

$$$$
[H]c1c([H])c([H])c(N([H])c2nc3c([H])nc(N([H])c4c([H])c([H])c(OC([H])([H])[H])c([H])c4[H])nc3n2C([H])(C([H])([H])[H])C([H])([H])[H])c(F)c1[H]


 31 34  0  0  0  0  0  0  0  0999 V2000
   13.1150   21.0424    1.2145 C   0  0  0  0  0  0  0  0  0  0  0  0
   14.0596   20.3357    0.5948 N   0  0  0  0  0  0  0  0  0  0  0  0
   14.6811   20.6730   -0.5336 C   0  0  0  0  0  0  0  0  0  0  0  0
   14.3323   21.8634   -1.1396 C   0  0  0  0  0  0  0  0  0  0  0  0
   14.7286   22.5060   -2.2433 N   0  0  0  0  0  0  0  0  0  0  0  0
   14.0367   23.6487   -2.3510 C   0  0  0  0  0  0  0  0  0  0  0  0
   13.1750   23.7536   -1.3010 N   0  0  0  0  0  0  0  0  0  0  0  0
   13.3644   22.6413   -0.5532 C   0  0  0  0  0  0  0  0  0  0  0  0
   12.7930   22.2236    0.5809 N   0  0  0  0  0  0  0  0  0  0  0  0
   12.2345   24.8265   -1.0160 C   0  0  0  0  0  0  0  0  0  0  0  0
   12.5241   25.4910    0.3159 C   0  0  0  0  0  0  0  0  0  0  0  0
   10.8079   24.3835   -1.1359 C   0  0  0  0  0  0  0  0  0  0  0  0
   12.4640   20.6888    2.3969 N   0  0  0  0  0  0  0  0  0  0  0  0
   12.7533   19.7718    2.8586 H   0  0  0  0  0  0  0  0  0  0  0  0
    9.4816   22.8066    4.5295 C   0  0  0  0  0  0  0  0  0  0  0  0
    9.8279   23.1763    3.2531 C   0  0  0  0  0  0  0  0  0  0  0  0
   10.7993   22.4930    2.5263 C   0  0  0  0  0  0  0  0  0  0  0  0
   11.4587   21.4235    3.0396 C   0  0  0  0  0  0  0  0  0  0  0  0
   11.0887   21.0530    4.3617 C   0  0  0  0  0  0  0  0  0  0  0  0
   10.1431   21.7268    5.0537 C   0  0  0  0  0  0  0  0  0  0  0  0
    8.5220   24.9046    5.2335 C   0  0  0  0  0  0  0  0  0  0  0  0
    8.5122   23.4966    5.2414 O   0  0  0  0  0  0  0  0  0  0  0  0
   14.1571   24.6123   -3.3766 N   0  0  0  0  0  0  0  0  0  0  0  0
   13.4118   24.5361   -4.1491 H   0  0  0  0  0  0  0  0  0  0  0  0
   15.0982   25.6383   -3.5252 C   0  0  0  0  0  0  0  0  0  0  0  0
   16.2055   25.8225   -2.7337 C   0  0  0  0  0  0  0  0  0  0  0  0
   17.0798   26.8924   -2.9819 C   0  0  0  0  0  0  0  0  0  0  0  0
   16.8559   27.7762   -4.0119 C   0  0  0  0  0  0  0  0  0  0  0  0
   15.7502   27.6080   -4.8169 C   0  0  0  0  0  0  0  0  0  0  0  0
   14.9195   26.5725   -4.5631 C   0  0  0  0  0  0  0  0  0  0  0  0
   13.8320   26.4397   -5.3858 F   0  0  0  0  0  0  0  0  0  0  0  0
 21 22  1  0  0  0
 22 15  1  0  0  0
 15 16  2  0  0  0
 16 17  1  0  0  0
 17 18  2  0  0  0
 18 13  1  0  0  0
 13  1  1  0  0  0
  1  2  2  0  0  0
  2  3  1  0  0  0
  3  4  2  0  0  0
  4  5  1  0  0  0
  5  6  2  0  0  0
  6 23  1  0  0  0
 23 25  1  0  0  0
 25 26  2  0  0  0
 26 27  1  0  0  0
 27 28  2  0  0  0
 28 29  1  0  0  0
 29 30  2  0  0  0
 30 31  1  0  0  0
  6  7  1  0  0  0
  7 10  1  0  0  0
 10 11  1  0  0  0
 10 12  1  0  0  0
  7  8  1  0  0  0
  8  9  2  0  0  0
 18 19  1  0  0  0
 19 20  2  0  0  0
 20 15  1  0  0  0
  9  1  1  0  0  0
  8  4  1  0  0  0
 30 25  1  0  0  0
 13 14  1  0  0  0
 23 24  1  0  0  0
M  END
> <minimizedAffinity>
-9.30216

> <CNNscore>
0.3403402269

> <CNNaffinity>
7.2299752235

> <CNN_VS>
2.4606513977

> <CNNaffinity_variance>
0.2927592397

$$$$
[H]c1c([H])c([H])c(N([H])c2nc3c([H])nc(N([H])c4c([H])c([H])c(OC([H])([H])[H])c([H])c4[H])nc3n2C([H])(C([H])([H])[H])C([H])([H])[H])c(F)c1[H]


 31 34  0  0  0  0  0  0  0  0999 V2000
   14.2816   21.8530   -1.5707 C   0  0  0  0  0  0  0  0  0  0  0  0
   14.7510   20.7923   -0.9147 N   0  0  0  0  0  0  0  0  0  0  0  0
   14.3467   20.3642    0.2798 C   0  0  0  0  0  0  0  0  0  0  0  0
   13.3475   21.0684    0.9212 C   0  0  0  0  0  0  0  0  0  0  0  0
   12.7098   20.9392    2.0895 N   0  0  0  0  0  0  0  0  0  0  0  0
   11.8105   21.9263    2.2034 C   0  0  0  0  0  0  0  0  0  0  0  0
   11.8621   22.7124    1.0919 N   0  0  0  0  0  0  0  0  0  0  0  0
   12.8188   22.1733    0.3004 C   0  0  0  0  0  0  0  0  0  0  0  0
   13.2860   22.5308   -0.9001 N   0  0  0  0  0  0  0  0  0  0  0  0
   11.0665   23.8927    0.7901 C   0  0  0  0  0  0  0  0  0  0  0  0
   10.0131   23.6083   -0.2629 C   0  0  0  0  0  0  0  0  0  0  0  0
   11.9132   25.0805    0.4460 C   0  0  0  0  0  0  0  0  0  0  0  0
   14.7052   22.3013   -2.8222 N   0  0  0  0  0  0  0  0  0  0  0  0
   15.0874   21.5710   -3.4992 H   0  0  0  0  0  0  0  0  0  0  0  0
   14.7382   26.2364   -4.3850 C   0  0  0  0  0  0  0  0  0  0  0  0
   13.9634   25.9200   -3.2962 C   0  0  0  0  0  0  0  0  0  0  0  0
   13.9395   24.6364   -2.7571 C   0  0  0  0  0  0  0  0  0  0  0  0
   14.6805   23.6259   -3.2786 C   0  0  0  0  0  0  0  0  0  0  0  0
   15.4775   23.9694   -4.4051 C   0  0  0  0  0  0  0  0  0  0  0  0
   15.4896   25.2208   -4.9162 C   0  0  0  0  0  0  0  0  0  0  0  0
   15.9734   28.0793   -5.3315 C   0  0  0  0  0  0  0  0  0  0  0  0
   14.7519   27.5191   -4.9110 O   0  0  0  0  0  0  0  0  0  0  0  0
   10.9339   22.1454    3.2889 N   0  0  0  0  0  0  0  0  0  0  0  0
   11.3150   22.8140    4.0412 H   0  0  0  0  0  0  0  0  0  0  0  0
    9.6562   21.6210    3.5185 C   0  0  0  0  0  0  0  0  0  0  0  0
    8.5447   21.8696    2.7508 C   0  0  0  0  0  0  0  0  0  0  0  0
    7.3129   21.2836    3.0825 C   0  0  0  0  0  0  0  0  0  0  0  0
    7.1847   20.4540    4.1720 C   0  0  0  0  0  0  0  0  0  0  0  0
    8.2885   20.1925    4.9545 C   0  0  0  0  0  0  0  0  0  0  0  0
    9.4661   20.7653    4.6202 C   0  0  0  0  0  0  0  0  0  0  0  0
   10.5391   20.4804    5.4230 F   0  0  0  0  0  0  0  0  0  0  0  0
 21 22  1  0  0  0
 22 15  1  0  0  0
 15 16  2  0  0  0
 16 17  1  0  0  0
 17 18  2  0  0  0
 18 13  1  0  0  0
 13  1  1  0  0  0
  1  2  2  0  0  0
  2  3  1  0  0  0
  3  4  2  0  0  0
  4  5  1  0  0  0
  5  6  2  0  0  0
  6 23  1  0  0  0
 23 25  1  0  0  0
 25 26  2  0  0  0
 26 27  1  0  0  0
 27 28  2  0  0  0
 28 29  1  0  0  0
 29 30  2  0  0  0
 30 31  1  0  0  0
  6  7  1  0  0  0
  7 10  1  0  0  0
 10 11  1  0  0  0
 10 12  1  0  0  0
  7  8  1  0  0  0
  8  9  2  0  0  0
 18 19  1  0  0  0
 19 20  2  0  0  0
 20 15  1  0  0  0
  9  1  1  0  0  0
  8  4  1  0  0  0
 30 25  1  0  0  0
 13 14  1  0  0  0
 23 24  1  0  0  0
M  END
> <minimizedAffinity>
-9.11719

> <CNNscore>
0.3271081746

> <CNNaffinity>
7.1336240768

> <CNN_VS>
2.3334667683

> <CNNaffinity_variance>
0.1053742021

$$$$
[H]c1c([H])c([H])c(N([H])c2nc3c([H])nc(N([H])c4c([H])c([H])c(OC([H])([H])[H])c([H])c4[H])nc3n2C([H])(C([H])([H])[H])C([H])([H])[H])c(F)c1[H]


 31 34  0  0  0  0  0  0  0  0999 V2000
   13.4644   20.6625    1.5997 C   0  0  0  0  0  0  0  0  0  0  0  0
   14.7563   20.5525    1.2922 N   0  0  0  0  0  0  0  0  0  0  0  0
   15.4488   21.3699    0.5010 C   0  0  0  0  0  0  0  0  0  0  0  0
   14.7891   22.4412   -0.0673 C   0  0  0  0  0  0  0  0  0  0  0  0
   15.1467   23.4367   -0.8855 N   0  0  0  0  0  0  0  0  0  0  0  0
   14.0778   24.2105   -1.1190 C   0  0  0  0  0  0  0  0  0  0  0  0
   13.0053   23.7123   -0.4425 N   0  0  0  0  0  0  0  0  0  0  0  0
   13.4549   22.6138    0.2082 C   0  0  0  0  0  0  0  0  0  0  0  0
   12.8394   21.7429    1.0145 N   0  0  0  0  0  0  0  0  0  0  0  0
   11.6466   24.2315   -0.4074 C   0  0  0  0  0  0  0  0  0  0  0  0
   11.2032   24.7427   -1.7645 C   0  0  0  0  0  0  0  0  0  0  0  0
   11.4497   25.2459    0.6781 C   0  0  0  0  0  0  0  0  0  0  0  0
   12.7391   19.8061    2.4287 N   0  0  0  0  0  0  0  0  0  0  0  0
   13.1131   18.8151    2.5546 H   0  0  0  0  0  0  0  0  0  0  0  0
    9.2501   20.6470    4.6754 C   0  0  0  0  0  0  0  0  0  0  0  0
    9.4949   21.2955    3.4900 C   0  0  0  0  0  0  0  0  0  0  0  0
   10.6298   21.0329    2.7273 C   0  0  0  0  0  0  0  0  0  0  0  0
   11.5582   20.1214    3.1139 C   0  0  0  0  0  0  0  0  0  0  0  0
   11.2902   19.4582    4.3430 C   0  0  0  0  0  0  0  0  0  0  0  0
   10.1831   19.7246    5.0714 C   0  0  0  0  0  0  0  0  0  0  0  0
    7.4450   22.1436    5.2412 C   0  0  0  0  0  0  0  0  0  0  0  0
    8.1153   20.9189    5.4243 O   0  0  0  0  0  0  0  0  0  0  0  0
   14.0355   25.3650   -1.9314 N   0  0  0  0  0  0  0  0  0  0  0  0
   13.6405   26.2390   -1.4433 H   0  0  0  0  0  0  0  0  0  0  0  0
   14.4307   25.5277   -3.2648 C   0  0  0  0  0  0  0  0  0  0  0  0
   14.2761   26.6736   -4.0060 C   0  0  0  0  0  0  0  0  0  0  0  0
   14.7139   26.7158   -5.3391 C   0  0  0  0  0  0  0  0  0  0  0  0
   15.3031   25.6247   -5.9343 C   0  0  0  0  0  0  0  0  0  0  0  0
   15.4670   24.4658   -5.2070 C   0  0  0  0  0  0  0  0  0  0  0  0
   15.0394   24.4434   -3.9250 C   0  0  0  0  0  0  0  0  0  0  0  0
   15.2205   23.2731   -3.2360 F   0  0  0  0  0  0  0  0  0  0  0  0
 21 22  1  0  0  0
 22 15  1  0  0  0
 15 16  2  0  0  0
 16 17  1  0  0  0
 17 18  2  0  0  0
 18 13  1  0  0  0
 13  1  1  0  0  0
  1  2  2  0  0  0
  2  3  1  0  0  0
  3  4  2  0  0  0
  4  5  1  0  0  0
  5  6  2  0  0  0
  6 23  1  0  0  0
 23 25  1  0  0  0
 25 26  2  0  0  0
 26 27  1  0  0  0
 27 28  2  0  0  0
 28 29  1  0  0  0
 29 30  2  0  0  0
 30 31  1  0  0  0
  6  7  1  0  0  0
  7 10  1  0  0  0
 10 11  1  0  0  0
 10 12  1  0  0  0
  7  8  1  0  0  0
  8  9  2  0  0  0
 18 19  1  0  0  0
 19 20  2  0  0  0
 20 15  1  0  0  0
  9  1  1  0  0  0
  8  4  1  0  0  0
 30 25  1  0  0  0
 13 14  1  0  0  0
 23 24  1  0  0  0
M  END
> <minimizedAffinity>
-7.10217

> <CNNscore>
0.3251883686

> <CNNaffinity>
7.2579002380

> <CNN_VS>
2.3601846695

> <CNNaffinity_variance>
0.0417707190

$$$$
[H]c1c([H])c([H])c(N([H])c2nc3c([H])nc(N([H])c4c([H])c([H])c(OC([H])([H])[H])c([H])c4[H])nc3n2C([H])(C([H])([H])[H])C([H])([H])[H])c(F)c1[H]


 31 34  0  0  0  0  0  0  0  0999 V2000
   14.2583   21.8474   -1.5540 C   0  0  0  0  0  0  0  0  0  0  0  0
   14.7232   20.7821   -0.9024 N   0  0  0  0  0  0  0  0  0  0  0  0
   14.3190   20.3523    0.2916 C   0  0  0  0  0  0  0  0  0  0  0  0
   13.3249   21.0598    0.9372 C   0  0  0  0  0  0  0  0  0  0  0  0
   12.6888   20.9303    2.1064 N   0  0  0  0  0  0  0  0  0  0  0  0
   11.7951   21.9219    2.2253 C   0  0  0  0  0  0  0  0  0  0  0  0
   11.8487   22.7112    1.1162 N   0  0  0  0  0  0  0  0  0  0  0  0
   12.8009   22.1696    0.3210 C   0  0  0  0  0  0  0  0  0  0  0  0
   13.2676   22.5284   -0.8793 N   0  0  0  0  0  0  0  0  0  0  0  0
   11.0589   23.8967    0.8197 C   0  0  0  0  0  0  0  0  0  0  0  0
   10.0133   23.6259   -0.2446 C   0  0  0  0  0  0  0  0  0  0  0  0
   11.9116   25.0855    0.4944 C   0  0  0  0  0  0  0  0  0  0  0  0
   14.6817   22.2974   -2.8050 N   0  0  0  0  0  0  0  0  0  0  0  0
   15.0521   21.5662   -3.4877 H   0  0  0  0  0  0  0  0  0  0  0  0
   14.7592   26.2410   -4.3446 C   0  0  0  0  0  0  0  0  0  0  0  0
   13.9679   25.9231   -3.2681 C   0  0  0  0  0  0  0  0  0  0  0  0
   13.9292   24.6367   -2.7368 C   0  0  0  0  0  0  0  0  0  0  0  0
   14.6711   23.6247   -3.2541 C   0  0  0  0  0  0  0  0  0  0  0  0
   15.4852   23.9698   -4.3677 C   0  0  0  0  0  0  0  0  0  0  0  0
   15.5117   25.2239   -4.8714 C   0  0  0  0  0  0  0  0  0  0  0  0
   15.9159   27.9525   -5.5899 C   0  0  0  0  0  0  0  0  0  0  0  0
   14.7877   27.5266   -4.8630 O   0  0  0  0  0  0  0  0  0  0  0  0
   10.9219   22.1422    3.3132 N   0  0  0  0  0  0  0  0  0  0  0  0
   11.2311   21.6783    4.2336 H   0  0  0  0  0  0  0  0  0  0  0  0
    9.7268   22.8704    3.3595 C   0  0  0  0  0  0  0  0  0  0  0  0
    9.6006   24.1643    3.8026 C   0  0  0  0  0  0  0  0  0  0  0  0
    8.3443   24.7909    3.8013 C   0  0  0  0  0  0  0  0  0  0  0  0
    7.2177   24.1357    3.3618 C   0  0  0  0  0  0  0  0  0  0  0  0
    7.3241   22.8370    2.9133 C   0  0  0  0  0  0  0  0  0  0  0  0
    8.5414   22.2498    2.9219 C   0  0  0  0  0  0  0  0  0  0  0  0
    8.6051   20.9585    2.4684 F   0  0  0  0  0  0  0  0  0  0  0  0
 21 22  1  0  0  0
 22 15  1  0  0  0
 15 16  2  0  0  0
 16 17  1  0  0  0
 17 18  2  0  0  0
 18 13  1  0  0  0
 13  1  1  0  0  0
  1  2  2  0  0  0
  2  3  1  0  0  0
  3  4  2  0  0  0
  4  5  1  0  0  0
  5  6  2  0  0  0
  6 23  1  0  0  0
 23 25  1  0  0  0
 25 26  2  0  0  0
 26 27  1  0  0  0
 27 28  2  0  0  0
 28 29  1  0  0  0
 29 30  2  0  0  0
 30 31  1  0  0  0
  6  7  1  0  0  0
  7 10  1  0  0  0
 10 11  1  0  0  0
 10 12  1  0  0  0
  7  8  1  0  0  0
  8  9  2  0  0  0
 18 19  1  0  0  0
 19 20  2  0  0  0
 20 15  1  0  0  0
  9  1  1  0  0  0
  8  4  1  0  0  0
 30 25  1  0  0  0
 13 14  1  0  0  0
 23 24  1  0  0  0
M  END
> <minimizedAffinity>
-9.02188

> <CNNscore>
0.3230932951

> <CNNaffinity>
7.2198724747

> <CNN_VS>
2.3326923847

> <CNNaffinity_variance>
0.0797450989

$$$$
[H]c1c([H])c([H])c(N([H])c2nc3c([H])nc(N([H])c4c([H])c([H])c(OC([H])([H])[H])c([H])c4[H])nc3n2C([H])(C([H])([H])[H])C([H])([H])[H])c(F)c1[H]


 31 34  0  0  0  0  0  0  0  0999 V2000
   14.6180   23.0519    0.2494 C   0  0  0  0  0  0  0  0  0  0  0  0
   14.9228   21.7985    0.5834 N   0  0  0  0  0  0  0  0  0  0  0  0
   14.0568   20.8278    0.8687 C   0  0  0  0  0  0  0  0  0  0  0  0
   12.7088   21.1217    0.8212 C   0  0  0  0  0  0  0  0  0  0  0  0
   11.5881   20.4250    1.0380 N   0  0  0  0  0  0  0  0  0  0  0  0
   10.5339   21.2294    0.8444 C   0  0  0  0  0  0  0  0  0  0  0  0
   10.9733   22.4710    0.4958 N   0  0  0  0  0  0  0  0  0  0  0  0
   12.3248   22.3962    0.4835 C   0  0  0  0  0  0  0  0  0  0  0  0
   13.2640   23.3082    0.2124 N   0  0  0  0  0  0  0  0  0  0  0  0
   10.1787   23.6517    0.1934 C   0  0  0  0  0  0  0  0  0  0  0  0
   10.6226   24.3149   -1.0960 C   0  0  0  0  0  0  0  0  0  0  0  0
   10.1234   24.6134    1.3415 C   0  0  0  0  0  0  0  0  0  0  0  0
   15.5255   24.0687   -0.0496 N   0  0  0  0  0  0  0  0  0  0  0  0
   16.2368   24.3256    0.7026 H   0  0  0  0  0  0  0  0  0  0  0  0
   15.5065   26.2296   -3.6908 C   0  0  0  0  0  0  0  0  0  0  0  0
   16.6172   26.2247   -2.8833 C   0  0  0  0  0  0  0  0  0  0  0  0
   16.6536   25.5166   -1.6849 C   0  0  0  0  0  0  0  0  0  0  0  0
   15.5923   24.7922   -1.2477 C   0  0  0  0  0  0  0  0  0  0  0  0
   14.4503   24.8071   -2.0949 C   0  0  0  0  0  0  0  0  0  0  0  0
   14.4314   25.4995   -3.2556 C   0  0  0  0  0  0  0  0  0  0  0  0
   15.2934   26.2482   -6.0934 C   0  0  0  0  0  0  0  0  0  0  0  0
   15.4848   26.9394   -4.8816 O   0  0  0  0  0  0  0  0  0  0  0  0
    9.1720   20.8781    0.9730 N   0  0  0  0  0  0  0  0  0  0  0  0
    8.8300   20.7851    1.9891 H   0  0  0  0  0  0  0  0  0  0  0  0
    8.2189   20.6375   -0.0240 C   0  0  0  0  0  0  0  0  0  0  0  0
    8.4563   19.9894   -1.2115 C   0  0  0  0  0  0  0  0  0  0  0  0
    7.4159   19.8076   -2.1362 C   0  0  0  0  0  0  0  0  0  0  0  0
    6.1445   20.2675   -1.8833 C   0  0  0  0  0  0  0  0  0  0  0  0
    5.8865   20.9203   -0.6975 C   0  0  0  0  0  0  0  0  0  0  0  0
    6.9003   21.0863    0.1808 C   0  0  0  0  0  0  0  0  0  0  0  0
    6.6031   21.7400    1.3476 F   0  0  0  0  0  0  0  0  0  0  0  0
 21 22  1  0  0  0
 22 15  1  0  0  0
 15 16  2  0  0  0
 16 17  1  0  0  0
 17 18  2  0  0  0
 18 13  1  0  0  0
 13  1  1  0  0  0
  1  2  2  0  0  0
  2  3  1  0  0  0
  3  4  2  0  0  0
  4  5  1  0  0  0
  5  6  2  0  0  0
  6 23  1  0  0  0
 23 25  1  0  0  0
 25 26  2  0  0  0
 26 27  1  0  0  0
 27 28  2  0  0  0
 28 29  1  0  0  0
 29 30  2  0  0  0
 30 31  1  0  0  0
  6  7  1  0  0  0
  7 10  1  0  0  0
 10 11  1  0  0  0
 10 12  1  0  0  0
  7  8  1  0  0  0
  8  9  2  0  0  0
 18 19  1  0  0  0
 19 20  2  0  0  0
 20 15  1  0  0  0
  9  1  1  0  0  0
  8  4  1  0  0  0
 30 25  1  0  0  0
 13 14  1  0  0  0
 23 24  1  0  0  0
M  END
> <minimizedAffinity>
-8.39487

> <CNNscore>
0.3013463318

> <CNNaffinity>
7.1445975304

> <CNN_VS>
2.1529982090

> <CNNaffinity_variance>
0.0353033617

$$$$
[H]c1nc(-c2c([H])c([H])c(OC([H])([H])C([H])([H])C([H])([H])N3C([H])([H])C([H])([H])C([H])(C([H])([H])c4c([H])nc([H])n4[H])C([H])([H])C3([H])[H])c([H])c2[H])nc([H])c1[H]


 29 32  0  0  0  0  0  0  0  0999 V2000
   12.7650   21.2373    1.4059 C   0  0  0  0  0  0  0  0  0  0  0  0
   14.0954   21.0603    0.6982 C   0  0  0  0  0  0  0  0  0  0  0  0
   14.7493   22.2918    0.7206 O   0  0  0  0  0  0  0  0  0  0  0  0
   15.2465   24.7201   -2.7007 C   0  0  0  0  0  0  0  0  0  0  0  0
   15.7142   25.1136   -1.4657 C   0  0  0  0  0  0  0  0  0  0  0  0
   15.5515   24.3148   -0.3355 C   0  0  0  0  0  0  0  0  0  0  0  0
   14.9137   23.0960   -0.4132 C   0  0  0  0  0  0  0  0  0  0  0  0
   14.4479   22.7068   -1.6511 C   0  0  0  0  0  0  0  0  0  0  0  0
   14.6085   23.5015   -2.7806 C   0  0  0  0  0  0  0  0  0  0  0  0
   15.7651   27.1938   -6.0629 C   0  0  0  0  0  0  0  0  0  0  0  0
   15.9827   27.6686   -4.7881 C   0  0  0  0  0  0  0  0  0  0  0  0
   15.8052   26.8436   -3.7413 N   0  0  0  0  0  0  0  0  0  0  0  0
   15.4214   25.5633   -3.8782 C   0  0  0  0  0  0  0  0  0  0  0  0
   15.2113   25.1066   -5.1196 N   0  0  0  0  0  0  0  0  0  0  0  0
   15.3731   25.8886   -6.2176 C   0  0  0  0  0  0  0  0  0  0  0  0
   11.6591   21.0143    0.3995 C   0  0  0  0  0  0  0  0  0  0  0  0
   10.9018   22.2241    0.1365 N   0  0  0  0  0  0  0  0  0  0  0  0
    9.5346   21.9715    0.5509 C   0  0  0  0  0  0  0  0  0  0  0  0
    9.3925   22.3490    2.0309 C   0  0  0  0  0  0  0  0  0  0  0  0
    9.3795   23.8558    2.0735 C   0  0  0  0  0  0  0  0  0  0  0  0
   10.5200   24.3713    1.2632 C   0  0  0  0  0  0  0  0  0  0  0  0
   11.5119   23.2904    0.9024 C   0  0  0  0  0  0  0  0  0  0  0  0
    9.3704   24.3844    3.4884 C   0  0  0  0  0  0  0  0  0  0  0  0
    8.6055   25.6470    3.5096 C   0  0  0  0  0  0  0  0  0  0  0  0
    8.9971   26.8731    3.9773 C   0  0  0  0  0  0  0  0  0  0  0  0
    8.0007   27.7384    3.8057 N   0  0  0  0  0  0  0  0  0  0  0  0
    6.9814   27.0862    3.2371 C   0  0  0  0  0  0  0  0  0  0  0  0
    7.3553   25.8135    3.0593 N   0  0  0  0  0  0  0  0  0  0  0  0
    6.7496   25.0599    2.6279 H   0  0  0  0  0  0  0  0  0  0  0  0
 10 11  2  0  0  0
 11 12  1  0  0  0
 12 13  2  0  0  0
 13  4  1  0  0  0
  4  5  2  0  0  0
  5  6  1  0  0  0
  6  7  2  0  0  0
  7  3  1  0  0  0
  3  2  1  0  0  0
  2  1  1  0  0  0
  1 16  1  0  0  0
 16 17  1  0  0  0
 17 18  1  0  0  0
 18 19  1  0  0  0
 19 20  1  0  0  0
 20 23  1  0  0  0
 23 24  1  0  0  0
 24 25  2  0  0  0
 25 26  1  0  0  0
 26 27  2  0  0  0
 27 28  1  0  0  0
 20 21  1  0  0  0
 21 22  1  0  0  0
  7  8  1  0  0  0
  8  9  2  0  0  0
 13 14  1  0  0  0
 14 15  2  0  0  0
 15 10  1  0  0  0
  9  4  1  0  0  0
 22 17  1  0  0  0
 28 24  1  0  0  0
 28 29  1  0  0  0
M  END
> <minimizedAffinity>
-8.34237

> <CNNscore>
0.4499087334

> <CNNaffinity>
7.1112189293

> <CNN_VS>
3.1993994713

> <CNNaffinity_variance>
0.1024004966

$$$$
[H]c1nc(-c2c([H])c([H])c(OC([H])([H])C([H])([H])C([H])([H])N3C([H])([H])C([H])([H])C([H])(C([H])([H])c4c([H])nc([H])n4[H])C([H])([H])C3([H])[H])c([H])c2[H])nc([H])c1[H]


 29 32  0  0  0  0  0  0  0  0999 V2000
   14.6140   21.6143   -2.0138 C   0  0  0  0  0  0  0  0  0  0  0  0
   15.0848   23.0540   -2.1019 C   0  0  0  0  0  0  0  0  0  0  0  0
   14.5957   23.5826   -3.2960 O   0  0  0  0  0  0  0  0  0  0  0  0
   13.2858   27.5789   -3.7005 C   0  0  0  0  0  0  0  0  0  0  0  0
   12.5341   26.6406   -3.0272 C   0  0  0  0  0  0  0  0  0  0  0  0
   12.9635   25.3218   -2.8923 C   0  0  0  0  0  0  0  0  0  0  0  0
   14.1621   24.9068   -3.4303 C   0  0  0  0  0  0  0  0  0  0  0  0
   14.9105   25.8493   -4.1029 C   0  0  0  0  0  0  0  0  0  0  0  0
   14.4848   27.1659   -4.2393 C   0  0  0  0  0  0  0  0  0  0  0  0
   12.0177   31.5695   -4.0997 C   0  0  0  0  0  0  0  0  0  0  0  0
   13.3521   31.2349   -4.1718 C   0  0  0  0  0  0  0  0  0  0  0  0
   13.7139   29.9467   -4.0389 N   0  0  0  0  0  0  0  0  0  0  0  0
   12.8277   28.9572   -3.8367 C   0  0  0  0  0  0  0  0  0  0  0  0
   11.5318   29.2878   -3.7674 N   0  0  0  0  0  0  0  0  0  0  0  0
   11.1020   30.5695   -3.8937 C   0  0  0  0  0  0  0  0  0  0  0  0
   13.3659   21.5748   -1.1615 C   0  0  0  0  0  0  0  0  0  0  0  0
   12.6691   22.8477   -1.1461 N   0  0  0  0  0  0  0  0  0  0  0  0
   11.2657   22.5702   -1.3871 C   0  0  0  0  0  0  0  0  0  0  0  0
   10.5774   22.3145   -0.0403 C   0  0  0  0  0  0  0  0  0  0  0  0
   10.4433   23.6640    0.6179 C   0  0  0  0  0  0  0  0  0  0  0  0
   11.7586   24.3636    0.5565 C   0  0  0  0  0  0  0  0  0  0  0  0
   12.8878   23.4438    0.1550 C   0  0  0  0  0  0  0  0  0  0  0  0
    9.8915   23.5604    2.0201 C   0  0  0  0  0  0  0  0  0  0  0  0
   10.3410   22.2814    2.6048 C   0  0  0  0  0  0  0  0  0  0  0  0
    9.6320   21.4025    3.3796 C   0  0  0  0  0  0  0  0  0  0  0  0
   10.4168   20.3748    3.6941 N   0  0  0  0  0  0  0  0  0  0  0  0
   11.6129   20.5828    3.1340 C   0  0  0  0  0  0  0  0  0  0  0  0
   11.5608   21.7448    2.4722 N   0  0  0  0  0  0  0  0  0  0  0  0
   12.3652   22.1682    1.9293 H   0  0  0  0  0  0  0  0  0  0  0  0
 10 11  2  0  0  0
 11 12  1  0  0  0
 12 13  2  0  0  0
 13  4  1  0  0  0
  4  5  2  0  0  0
  5  6  1  0  0  0
  6  7  2  0  0  0
  7  3  1  0  0  0
  3  2  1  0  0  0
  2  1  1  0  0  0
  1 16  1  0  0  0
 16 17  1  0  0  0
 17 18  1  0  0  0
 18 19  1  0  0  0
 19 20  1  0  0  0
 20 23  1  0  0  0
 23 24  1  0  0  0
 24 25  2  0  0  0
 25 26  1  0  0  0
 26 27  2  0  0  0
 27 28  1  0  0  0
 20 21  1  0  0  0
 21 22  1  0  0  0
  7  8  1  0  0  0
  8  9  2  0  0  0
 13 14  1  0  0  0
 14 15  2  0  0  0
 15 10  1  0  0  0
  9  4  1  0  0  0
 22 17  1  0  0  0
 28 24  1  0  0  0
 28 29  1  0  0  0
M  END
> <minimizedAffinity>
5.23156

> <CNNscore>
0.4176605642

> <CNNaffinity>
6.8665761948

> <CNN_VS>
2.8678979874

> <CNNaffinity_variance>
0.5978479981

$$$$
[H]c1nc(-c2c([H])c([H])c(OC([H])([H])C([H])([H])C([H])([H])N3C([H])([H])C([H])([H])C([H])(C([H])([H])c4c([H])nc([H])n4[H])C([H])([H])C3([H])[H])c([H])c2[H])nc([H])c1[H]


 29 32  0  0  0  0  0  0  0  0999 V2000
   11.9612   21.2531    2.3231 C   0  0  0  0  0  0  0  0  0  0  0  0
   10.4445   21.2874    2.2993 C   0  0  0  0  0  0  0  0  0  0  0  0
   10.0216   21.9372    3.4584 O   0  0  0  0  0  0  0  0  0  0  0  0
    7.6615   25.4412    3.4252 C   0  0  0  0  0  0  0  0  0  0  0  0
    8.9770   25.4566    3.0152 C   0  0  0  0  0  0  0  0  0  0  0  0
    9.7579   24.3024    3.0252 C   0  0  0  0  0  0  0  0  0  0  0  0
    9.2393   23.0979    3.4476 C   0  0  0  0  0  0  0  0  0  0  0  0
    7.9227   23.0878    3.8566 C   0  0  0  0  0  0  0  0  0  0  0  0
    7.1409   24.2376    3.8479 C   0  0  0  0  0  0  0  0  0  0  0  0
    5.3730   28.9700    3.3747 C   0  0  0  0  0  0  0  0  0  0  0  0
    6.7334   28.9994    3.1596 C   0  0  0  0  0  0  0  0  0  0  0  0
    7.4269   27.8477    3.1843 N   0  0  0  0  0  0  0  0  0  0  0  0
    6.8520   26.6547    3.4113 C   0  0  0  0  0  0  0  0  0  0  0  0
    5.5292   26.6316    3.6198 N   0  0  0  0  0  0  0  0  0  0  0  0
    4.7728   27.7590    3.6076 C   0  0  0  0  0  0  0  0  0  0  0  0
   12.4606   21.3642    0.9005 C   0  0  0  0  0  0  0  0  0  0  0  0
   13.4464   22.4176    0.7436 N   0  0  0  0  0  0  0  0  0  0  0  0
   14.0123   22.2793   -0.5851 C   0  0  0  0  0  0  0  0  0  0  0  0
   13.1624   23.0945   -1.5680 C   0  0  0  0  0  0  0  0  0  0  0  0
   13.5066   24.5396   -1.3120 C   0  0  0  0  0  0  0  0  0  0  0  0
   13.4339   24.8005    0.1542 C   0  0  0  0  0  0  0  0  0  0  0  0
   12.7589   23.6806    0.9108 C   0  0  0  0  0  0  0  0  0  0  0  0
   12.6496   25.4808   -2.1251 C   0  0  0  0  0  0  0  0  0  0  0  0
   13.4155   25.8971   -3.3167 C   0  0  0  0  0  0  0  0  0  0  0  0
   13.1401   26.9104   -4.1958 C   0  0  0  0  0  0  0  0  0  0  0  0
   14.0892   26.9422   -5.1282 N   0  0  0  0  0  0  0  0  0  0  0  0
   14.9643   25.9678   -4.8592 C   0  0  0  0  0  0  0  0  0  0  0  0
   14.5491   25.3350   -3.7555 N   0  0  0  0  0  0  0  0  0  0  0  0
   15.0463   24.5162   -3.3046 H   0  0  0  0  0  0  0  0  0  0  0  0
 10 11  2  0  0  0
 11 12  1  0  0  0
 12 13  2  0  0  0
 13  4  1  0  0  0
  4  5  2  0  0  0
  5  6  1  0  0  0
  6  7  2  0  0  0
  7  3  1  0  0  0
  3  2  1  0  0  0
  2  1  1  0  0  0
  1 16  1  0  0  0
 16 17  1  0  0  0
 17 18  1  0  0  0
 18 19  1  0  0  0
 19 20  1  0  0  0
 20 23  1  0  0  0
 23 24  1  0  0  0
 24 25  2  0  0  0
 25 26  1  0  0  0
 26 27  2  0  0  0
 27 28  1  0  0  0
 20 21  1  0  0  0
 21 22  1  0  0  0
  7  8  1  0  0  0
  8  9  2  0  0  0
 13 14  1  0  0  0
 14 15  2  0  0  0
 15 10  1  0  0  0
  9  4  1  0  0  0
 22 17  1  0  0  0
 28 24  1  0  0  0
 28 29  1  0  0  0
M  END
> <minimizedAffinity>
-8.12616

> <CNNscore>
0.3735982776

> <CNNaffinity>
6.7195410728

> <CNN_VS>
2.5104088783

> <CNNaffinity_variance>
0.1045261174

$$$$
[H]c1nc(-c2c([H])c([H])c(OC([H])([H])C([H])([H])C([H])([H])N3C([H])([H])C([H])([H])C([H])(C([H])([H])c4c([H])nc([H])n4[H])C([H])([H])C3([H])[H])c([H])c2[H])nc([H])c1[H]


 29 32  0  0  0  0  0  0  0  0999 V2000
   12.0895   22.3127    1.4755 C   0  0  0  0  0  0  0  0  0  0  0  0
   10.7682   21.6152    1.7395 C   0  0  0  0  0  0  0  0  0  0  0  0
   10.2797   22.0891    2.9566 O   0  0  0  0  0  0  0  0  0  0  0  0
    7.7956   25.4895    3.2959 C   0  0  0  0  0  0  0  0  0  0  0  0
    7.3375   24.2298    3.6155 C   0  0  0  0  0  0  0  0  0  0  0  0
    8.1546   23.1064    3.5045 C   0  0  0  0  0  0  0  0  0  0  0  0
    9.4571   23.2160    3.0689 C   0  0  0  0  0  0  0  0  0  0  0  0
    9.9105   24.4785    2.7505 C   0  0  0  0  0  0  0  0  0  0  0  0
    9.0979   25.6013    2.8601 C   0  0  0  0  0  0  0  0  0  0  0  0
    5.2643   28.8300    3.6508 C   0  0  0  0  0  0  0  0  0  0  0  0
    4.7837   27.5502    3.8208 C   0  0  0  0  0  0  0  0  0  0  0  0
    5.6277   26.5106    3.6985 N   0  0  0  0  0  0  0  0  0  0  0  0
    6.9326   26.6597    3.4153 C   0  0  0  0  0  0  0  0  0  0  0  0
    7.3947   27.9059    3.2510 N   0  0  0  0  0  0  0  0  0  0  0  0
    6.5944   28.9971    3.3613 C   0  0  0  0  0  0  0  0  0  0  0  0
   12.1630   22.6482    0.0032 C   0  0  0  0  0  0  0  0  0  0  0  0
   12.6563   23.9927   -0.2312 N   0  0  0  0  0  0  0  0  0  0  0  0
   14.1048   23.9179   -0.2602 C   0  0  0  0  0  0  0  0  0  0  0  0
   14.5530   23.6326   -1.6992 C   0  0  0  0  0  0  0  0  0  0  0  0
   14.3665   24.9243   -2.4538 C   0  0  0  0  0  0  0  0  0  0  0  0
   13.0013   25.4541   -2.1732 C   0  0  0  0  0  0  0  0  0  0  0  0
   12.1114   24.4380   -1.4964 C   0  0  0  0  0  0  0  0  0  0  0  0
   14.6500   24.7670   -3.9290 C   0  0  0  0  0  0  0  0  0  0  0  0
   15.2268   26.0302   -4.4303 C   0  0  0  0  0  0  0  0  0  0  0  0
   14.9830   26.6662   -5.6183 C   0  0  0  0  0  0  0  0  0  0  0  0
   15.7130   27.7778   -5.6699 N   0  0  0  0  0  0  0  0  0  0  0  0
   16.4174   27.8616   -4.5367 C   0  0  0  0  0  0  0  0  0  0  0  0
   16.1175   26.7951   -3.7859 N   0  0  0  0  0  0  0  0  0  0  0  0
   16.5259   26.5942   -2.8301 H   0  0  0  0  0  0  0  0  0  0  0  0
 10 11  2  0  0  0
 11 12  1  0  0  0
 12 13  2  0  0  0
 13  4  1  0  0  0
  4  5  2  0  0  0
  5  6  1  0  0  0
  6  7  2  0  0  0
  7  3  1  0  0  0
  3  2  1  0  0  0
  2  1  1  0  0  0
  1 16  1  0  0  0
 16 17  1  0  0  0
 17 18  1  0  0  0
 18 19  1  0  0  0
 19 20  1  0  0  0
 20 23  1  0  0  0
 23 24  1  0  0  0
 24 25  2  0  0  0
 25 26  1  0  0  0
 26 27  2  0  0  0
 27 28  1  0  0  0
 20 21  1  0  0  0
 21 22  1  0  0  0
  7  8  1  0  0  0
  8  9  2  0  0  0
 13 14  1  0  0  0
 14 15  2  0  0  0
 15 10  1  0  0  0
  9  4  1  0  0  0
 22 17  1  0  0  0
 28 24  1  0  0  0
 28 29  1  0  0  0
M  END
> <minimizedAffinity>
-8.03946

> <CNNscore>
0.3112482131

> <CNNaffinity>
6.6366028786

> <CNN_VS>
2.0656306744

> <CNNaffinity_variance>
0.0533493161

$$$$
[H]c1nc(-c2c([H])c([H])c(OC([H])([H])C([H])([H])C([H])([H])N3C([H])([H])C([H])([H])C([H])(C([H])([H])c4c([H])nc([H])n4[H])C([H])([H])C3([H])[H])c([H])c2[H])nc([H])c1[H]


 29 32  0  0  0  0  0  0  0  0999 V2000
   13.2074   21.0062    0.6327 C   0  0  0  0  0  0  0  0  0  0  0  0
   14.7169   21.1481    0.6908 C   0  0  0  0  0  0  0  0  0  0  0  0
   15.0090   22.5114    0.7197 O   0  0  0  0  0  0  0  0  0  0  0  0
   15.4067   24.8758   -2.7588 C   0  0  0  0  0  0  0  0  0  0  0  0
   15.8852   25.3043   -1.5398 C   0  0  0  0  0  0  0  0  0  0  0  0
   15.7554   24.5266   -0.3907 C   0  0  0  0  0  0  0  0  0  0  0  0
   15.1405   23.2944   -0.4330 C   0  0  0  0  0  0  0  0  0  0  0  0
   14.6635   22.8703   -1.6551 C   0  0  0  0  0  0  0  0  0  0  0  0
   14.7914   23.6438   -2.8034 C   0  0  0  0  0  0  0  0  0  0  0  0
   15.7953   27.2009   -6.2424 C   0  0  0  0  0  0  0  0  0  0  0  0
   15.3788   25.8893   -6.3036 C   0  0  0  0  0  0  0  0  0  0  0  0
   15.2681   25.1819   -5.1654 N   0  0  0  0  0  0  0  0  0  0  0  0
   15.5471   25.6972   -3.9563 C   0  0  0  0  0  0  0  0  0  0  0  0
   15.9517   26.9727   -3.9023 N   0  0  0  0  0  0  0  0  0  0  0  0
   16.0835   27.7400   -5.0146 C   0  0  0  0  0  0  0  0  0  0  0  0
   12.7460   20.3234    1.9002 C   0  0  0  0  0  0  0  0  0  0  0  0
   11.3021   20.1907    1.9598 N   0  0  0  0  0  0  0  0  0  0  0  0
   10.8421   21.0133    3.0628 C   0  0  0  0  0  0  0  0  0  0  0  0
   10.5692   22.4290    2.5390 C   0  0  0  0  0  0  0  0  0  0  0  0
    9.2836   22.3394    1.7569 C   0  0  0  0  0  0  0  0  0  0  0  0
    9.3696   21.1844    0.8180 C   0  0  0  0  0  0  0  0  0  0  0  0
   10.7741   20.6429    0.6899 C   0  0  0  0  0  0  0  0  0  0  0  0
    8.9457   23.6402    1.0676 C   0  0  0  0  0  0  0  0  0  0  0  0
   10.1606   24.1408    0.3946 C   0  0  0  0  0  0  0  0  0  0  0  0
   10.5289   23.9979   -0.9166 C   0  0  0  0  0  0  0  0  0  0  0  0
   11.6994   24.6028   -1.1041 N   0  0  0  0  0  0  0  0  0  0  0  0
   12.0836   25.1285    0.0636 C   0  0  0  0  0  0  0  0  0  0  0  0
   11.1431   24.8441    0.9722 N   0  0  0  0  0  0  0  0  0  0  0  0
   11.1778   25.1344    1.9898 H   0  0  0  0  0  0  0  0  0  0  0  0
 10 11  2  0  0  0
 11 12  1  0  0  0
 12 13  2  0  0  0
 13  4  1  0  0  0
  4  5  2  0  0  0
  5  6  1  0  0  0
  6  7  2  0  0  0
  7  3  1  0  0  0
  3  2  1  0  0  0
  2  1  1  0  0  0
  1 16  1  0  0  0
 16 17  1  0  0  0
 17 18  1  0  0  0
 18 19  1  0  0  0
 19 20  1  0  0  0
 20 23  1  0  0  0
 23 24  1  0  0  0
 24 25  2  0  0  0
 25 26  1  0  0  0
 26 27  2  0  0  0
 27 28  1  0  0  0
 20 21  1  0  0  0
 21 22  1  0  0  0
  7  8  1  0  0  0
  8  9  2  0  0  0
 13 14  1  0  0  0
 14 15  2  0  0  0
 15 10  1  0  0  0
  9  4  1  0  0  0
 22 17  1  0  0  0
 28 24  1  0  0  0
 28 29  1  0  0  0
M  END
> <minimizedAffinity>
-7.83196

> <CNNscore>
0.3059392273

> <CNNaffinity>
7.3782968521

> <CNN_VS>
2.2573103905

> <CNNaffinity_variance>
0.0663959011

$$$$
[H]c1nc(-c2c([H])c([H])c(OC([H])([H])C([H])([H])C([H])([H])N3C([H])([H])C([H])([H])C([H])(C([H])([H])c4c([H])nc([H])n4[H])C([H])([H])C3([H])[H])c([H])c2[H])nc([H])c1[H]


 29 32  0  0  0  0  0  0  0  0999 V2000
   13.0609   25.0646    0.4460 C   0  0  0  0  0  0  0  0  0  0  0  0
   13.8410   23.9395    1.0998 C   0  0  0  0  0  0  0  0  0  0  0  0
   14.9164   23.6353    0.2658 O   0  0  0  0  0  0  0  0  0  0  0  0
   15.4293   25.3278   -3.5710 C   0  0  0  0  0  0  0  0  0  0  0  0
   14.4959   24.3408   -3.3396 C   0  0  0  0  0  0  0  0  0  0  0  0
   14.3246   23.7807   -2.0751 C   0  0  0  0  0  0  0  0  0  0  0  0
   15.0867   24.1963   -1.0052 C   0  0  0  0  0  0  0  0  0  0  0  0
   16.0190   25.1841   -1.2420 C   0  0  0  0  0  0  0  0  0  0  0  0
   16.1924   25.7450   -2.5023 C   0  0  0  0  0  0  0  0  0  0  0  0
   15.9163   26.9511   -7.4207 C   0  0  0  0  0  0  0  0  0  0  0  0
   15.6347   25.6146   -7.2410 C   0  0  0  0  0  0  0  0  0  0  0  0
   15.4868   25.1371   -5.9927 N   0  0  0  0  0  0  0  0  0  0  0  0
   15.6014   25.9081   -4.8984 C   0  0  0  0  0  0  0  0  0  0  0  0
   15.8752   27.2067   -5.0785 N   0  0  0  0  0  0  0  0  0  0  0  0
   16.0360   27.7500   -6.3124 C   0  0  0  0  0  0  0  0  0  0  0  0
   11.6490   24.5829    0.2008 C   0  0  0  0  0  0  0  0  0  0  0  0
   11.2745   23.4995    1.0908 N   0  0  0  0  0  0  0  0  0  0  0  0
    9.8983   23.7288    1.4884 C   0  0  0  0  0  0  0  0  0  0  0  0
    8.9734   23.0503    0.4699 C   0  0  0  0  0  0  0  0  0  0  0  0
    9.0598   21.5724    0.7537 C   0  0  0  0  0  0  0  0  0  0  0  0
   10.4957   21.1835    0.8544 C   0  0  0  0  0  0  0  0  0  0  0  0
   11.4265   22.2629    0.3534 C   0  0  0  0  0  0  0  0  0  0  0  0
    8.2932   20.7534   -0.2578 C   0  0  0  0  0  0  0  0  0  0  0  0
    6.8495   20.9469   -0.0165 C   0  0  0  0  0  0  0  0  0  0  0  0
    6.1493   20.7744    1.1476 C   0  0  0  0  0  0  0  0  0  0  0  0
    4.8678   21.0570    0.9259 N   0  0  0  0  0  0  0  0  0  0  0  0
    4.7388   21.4063   -0.3582 C   0  0  0  0  0  0  0  0  0  0  0  0
    5.9483   21.3374   -0.9269 N   0  0  0  0  0  0  0  0  0  0  0  0
    6.1530   21.5594   -1.9416 H   0  0  0  0  0  0  0  0  0  0  0  0
 10 11  2  0  0  0
 11 12  1  0  0  0
 12 13  2  0  0  0
 13  4  1  0  0  0
  4  5  2  0  0  0
  5  6  1  0  0  0
  6  7  2  0  0  0
  7  3  1  0  0  0
  3  2  1  0  0  0
  2  1  1  0  0  0
  1 16  1  0  0  0
 16 17  1  0  0  0
 17 18  1  0  0  0
 18 19  1  0  0  0
 19 20  1  0  0  0
 20 23  1  0  0  0
 23 24  1  0  0  0
 24 25  2  0  0  0
 25 26  1  0  0  0
 26 27  2  0  0  0
 27 28  1  0  0  0
 20 21  1  0  0  0
 21 22  1  0  0  0
  7  8  1  0  0  0
  8  9  2  0  0  0
 13 14  1  0  0  0
 14 15  2  0  0  0
 15 10  1  0  0  0
  9  4  1  0  0  0
 22 17  1  0  0  0
 28 24  1  0  0  0
 28 29  1  0  0  0
M  END
> <minimizedAffinity>
-6.78526

> <CNNscore>
0.2403604537

> <CNNaffinity>
6.7674779892

> <CNN_VS>
1.6266341209

> <CNNaffinity_variance>
0.0429535843

$$$$
[H]c1nc(-c2c([H])c([H])c(OC([H])([H])C([H])([H])C([H])([H])N3C([H])([H])C([H])([H])C([H])(C([H])([H])c4c([H])nc([H])n4[H])C([H])([H])C3([H])[H])c([H])c2[H])nc([H])c1[H]


 29 32  0  0  0  0  0  0  0  0999 V2000
    9.8115   22.9978    1.1898 C   0  0  0  0  0  0  0  0  0  0  0  0
   10.7522   24.1555    0.9124 C   0  0  0  0  0  0  0  0  0  0  0  0
   11.8984   23.6306    0.3162 O   0  0  0  0  0  0  0  0  0  0  0  0
   13.9761   25.5569   -2.8177 C   0  0  0  0  0  0  0  0  0  0  0  0
   14.6095   24.6715   -1.9730 C   0  0  0  0  0  0  0  0  0  0  0  0
   13.9268   24.0347   -0.9384 C   0  0  0  0  0  0  0  0  0  0  0  0
   12.5864   24.2691   -0.7222 C   0  0  0  0  0  0  0  0  0  0  0  0
   11.9574   25.1557   -1.5702 C   0  0  0  0  0  0  0  0  0  0  0  0
   12.6356   25.7927   -2.6033 C   0  0  0  0  0  0  0  0  0  0  0  0
   16.0273   27.4416   -5.9694 C   0  0  0  0  0  0  0  0  0  0  0  0
   14.9508   26.6170   -6.2117 C   0  0  0  0  0  0  0  0  0  0  0  0
   14.3237   26.0344   -5.1748 N   0  0  0  0  0  0  0  0  0  0  0  0
   14.6994   26.2188   -3.8980 C   0  0  0  0  0  0  0  0  0  0  0  0
   15.7465   27.0215   -3.6678 N   0  0  0  0  0  0  0  0  0  0  0  0
   16.4218   27.6391   -4.6707 C   0  0  0  0  0  0  0  0  0  0  0  0
    8.3912   23.5057    1.0874 C   0  0  0  0  0  0  0  0  0  0  0  0
    7.7213   23.5309    2.3745 N   0  0  0  0  0  0  0  0  0  0  0  0
    7.4376   22.1548    2.7361 C   0  0  0  0  0  0  0  0  0  0  0  0
    8.6381   21.5926    3.5079 C   0  0  0  0  0  0  0  0  0  0  0  0
    8.5767   22.2163    4.8789 C   0  0  0  0  0  0  0  0  0  0  0  0
    8.3889   23.6880    4.7315 C   0  0  0  0  0  0  0  0  0  0  0  0
    8.6197   24.1644    3.3165 C   0  0  0  0  0  0  0  0  0  0  0  0
    9.7754   21.8529    5.7230 C   0  0  0  0  0  0  0  0  0  0  0  0
   10.5910   20.8736    4.9778 C   0  0  0  0  0  0  0  0  0  0  0  0
   11.4756   21.1017    3.9576 C   0  0  0  0  0  0  0  0  0  0  0  0
   11.9961   19.9397    3.5703 N   0  0  0  0  0  0  0  0  0  0  0  0
   11.4593   18.9755    4.3250 C   0  0  0  0  0  0  0  0  0  0  0  0
   10.6047   19.5498    5.1800 N   0  0  0  0  0  0  0  0  0  0  0  0
   10.0312   19.0302    5.9025 H   0  0  0  0  0  0  0  0  0  0  0  0
 10 11  2  0  0  0
 11 12  1  0  0  0
 12 13  2  0  0  0
 13  4  1  0  0  0
  4  5  2  0  0  0
  5  6  1  0  0  0
  6  7  2  0  0  0
  7  3  1  0  0  0
  3  2  1  0  0  0
  2  1  1  0  0  0
  1 16  1  0  0  0
 16 17  1  0  0  0
 17 18  1  0  0  0
 18 19  1  0  0  0
 19 20  1  0  0  0
 20 23  1  0  0  0
 23 24  1  0  0  0
 24 25  2  0  0  0
 25 26  1  0  0  0
 26 27  2  0  0  0
 27 28  1  0  0  0
 20 21  1  0  0  0
 21 22  1  0  0  0
  7  8  1  0  0  0
  8  9  2  0  0  0
 13 14  1  0  0  0
 14 15  2  0  0  0
 15 10  1  0  0  0
  9  4  1  0  0  0
 22 17  1  0  0  0
 28 24  1  0  0  0
 28 29  1  0  0  0
M  END
> <minimizedAffinity>
-7.83382

> <CNNscore>
0.2325246632

> <CNNaffinity>
6.1907815933

> <CNN_VS>
1.4395093918

> <CNNaffinity_variance>
0.4958634377

$$$$
[H]c1nc(-c2c([H])c([H])c(OC([H])([H])C([H])([H])C([H])([H])N3C([H])([H])C([H])([H])C([H])(C([H])([H])c4c([H])nc([H])n4[H])C([H])([H])C3([H])[H])c([H])c2[H])nc([H])c1[H]


 29 32  0  0  0  0  0  0  0  0999 V2000
   11.8919   21.2258    1.0471 C   0  0  0  0  0  0  0  0  0  0  0  0
   13.3213   21.3048    0.5445 C   0  0  0  0  0  0  0  0  0  0  0  0
   13.7519   22.6208    0.7107 O   0  0  0  0  0  0  0  0  0  0  0  0
   14.8898   25.1151   -2.5037 C   0  0  0  0  0  0  0  0  0  0  0  0
   15.6401   25.0417   -1.3503 C   0  0  0  0  0  0  0  0  0  0  0  0
   15.2672   24.2199   -0.2884 C   0  0  0  0  0  0  0  0  0  0  0  0
   14.1285   23.4471   -0.3546 C   0  0  0  0  0  0  0  0  0  0  0  0
   13.3814   23.5241   -1.5107 C   0  0  0  0  0  0  0  0  0  0  0  0
   13.7507   24.3430   -2.5719 C   0  0  0  0  0  0  0  0  0  0  0  0
   16.0033   27.5775   -5.7269 C   0  0  0  0  0  0  0  0  0  0  0  0
   15.0622   26.5834   -5.8812 C   0  0  0  0  0  0  0  0  0  0  0  0
   14.7355   25.8190   -4.8243 N   0  0  0  0  0  0  0  0  0  0  0  0
   15.2882   25.9785   -3.6101 C   0  0  0  0  0  0  0  0  0  0  0  0
   16.2025   26.9464   -3.4654 N   0  0  0  0  0  0  0  0  0  0  0  0
   16.5757   27.7517   -4.4928 C   0  0  0  0  0  0  0  0  0  0  0  0
   11.9006   20.5454    2.3971 C   0  0  0  0  0  0  0  0  0  0  0  0
   11.5497   21.4533    3.4736 N   0  0  0  0  0  0  0  0  0  0  0  0
   10.5288   22.3484    2.9626 C   0  0  0  0  0  0  0  0  0  0  0  0
    9.1532   21.7162    3.2099 C   0  0  0  0  0  0  0  0  0  0  0  0
    8.8872   21.8699    4.6857 C   0  0  0  0  0  0  0  0  0  0  0  0
   10.0848   21.4056    5.4427 C   0  0  0  0  0  0  0  0  0  0  0  0
   11.0635   20.6494    4.5751 C   0  0  0  0  0  0  0  0  0  0  0  0
    7.6130   21.1779    5.1088 C   0  0  0  0  0  0  0  0  0  0  0  0
    6.5865   22.2073    5.3663 C   0  0  0  0  0  0  0  0  0  0  0  0
    6.6493   23.5533    5.1220 C   0  0  0  0  0  0  0  0  0  0  0  0
    5.5047   24.1147    5.5042 N   0  0  0  0  0  0  0  0  0  0  0  0
    4.7139   23.1510    5.9874 C   0  0  0  0  0  0  0  0  0  0  0  0
    5.3777   21.9921    5.9010 N   0  0  0  0  0  0  0  0  0  0  0  0
    4.9982   21.0533    6.2101 H   0  0  0  0  0  0  0  0  0  0  0  0
 10 11  2  0  0  0
 11 12  1  0  0  0
 12 13  2  0  0  0
 13  4  1  0  0  0
  4  5  2  0  0  0
  5  6  1  0  0  0
  6  7  2  0  0  0
  7  3  1  0  0  0
  3  2  1  0  0  0
  2  1  1  0  0  0
  1 16  1  0  0  0
 16 17  1  0  0  0
 17 18  1  0  0  0
 18 19  1  0  0  0
 19 20  1  0  0  0
 20 23  1  0  0  0
 23 24  1  0  0  0
 24 25  2  0  0  0
 25 26  1  0  0  0
 26 27  2  0  0  0
 27 28  1  0  0  0
 20 21  1  0  0  0
 21 22  1  0  0  0
  7  8  1  0  0  0
  8  9  2  0  0  0
 13 14  1  0  0  0
 14 15  2  0  0  0
 15 10  1  0  0  0
  9  4  1  0  0  0
 22 17  1  0  0  0
 28 24  1  0  0  0
 28 29  1  0  0  0
M  END
> <minimizedAffinity>
-7.00908

> <CNNscore>
0.2245912552

> <CNNaffinity>
6.4575729370

> <CNN_VS>
1.4503144026

> <CNNaffinity_variance>
0.1281763315

$$$$
[H]c1nc(-c2c([H])c([H])c(OC([H])([H])C([H])([H])C([H])([H])N3C([H])([H])C([H])([H])C([H])(C([H])([H])c4c([H])nc([H])n4[H])C([H])([H])C3([H])[H])c([H])c2[H])nc([H])c1[H]


 29 32  0  0  0  0  0  0  0  0999 V2000
    7.5279   19.6858   -0.2093 C   0  0  0  0  0  0  0  0  0  0  0  0
    8.8274   19.9464   -0.9479 C   0  0  0  0  0  0  0  0  0  0  0  0
    9.1394   21.2956   -0.7840 O   0  0  0  0  0  0  0  0  0  0  0  0
   13.0616   22.7043   -0.0902 C   0  0  0  0  0  0  0  0  0  0  0  0
   12.2934   23.1959   -1.1231 C   0  0  0  0  0  0  0  0  0  0  0  0
   10.9994   22.7331   -1.3544 C   0  0  0  0  0  0  0  0  0  0  0  0
   10.4390   21.7620   -0.5537 C   0  0  0  0  0  0  0  0  0  0  0  0
   11.2116   21.2736    0.4784 C   0  0  0  0  0  0  0  0  0  0  0  0
   12.5029   21.7332    0.7118 C   0  0  0  0  0  0  0  0  0  0  0  0
   16.9528   24.1649    0.5558 C   0  0  0  0  0  0  0  0  0  0  0  0
   16.0316   24.8874   -0.1702 C   0  0  0  0  0  0  0  0  0  0  0  0
   14.7985   24.3832   -0.3527 N   0  0  0  0  0  0  0  0  0  0  0  0
   14.4153   23.1950    0.1440 C   0  0  0  0  0  0  0  0  0  0  0  0
   15.3146   22.4966    0.8490 N   0  0  0  0  0  0  0  0  0  0  0  0
   16.5753   22.9503    1.0688 C   0  0  0  0  0  0  0  0  0  0  0  0
    6.6201   20.8777   -0.4116 C   0  0  0  0  0  0  0  0  0  0  0  0
    6.2125   21.4788    0.8449 N   0  0  0  0  0  0  0  0  0  0  0  0
    6.5386   20.5342    1.8966 C   0  0  0  0  0  0  0  0  0  0  0  0
    7.9719   20.8041    2.3718 C   0  0  0  0  0  0  0  0  0  0  0  0
    7.9034   22.0641    3.1965 C   0  0  0  0  0  0  0  0  0  0  0  0
    7.1471   23.0989    2.4347 C   0  0  0  0  0  0  0  0  0  0  0  0
    6.9430   22.7206    0.9864 C   0  0  0  0  0  0  0  0  0  0  0  0
    9.2711   22.5318    3.6348 C   0  0  0  0  0  0  0  0  0  0  0  0
    9.1719   23.9477    4.0409 C   0  0  0  0  0  0  0  0  0  0  0  0
    8.6847   24.4667    5.2108 C   0  0  0  0  0  0  0  0  0  0  0  0
    8.7793   25.7934    5.1663 N   0  0  0  0  0  0  0  0  0  0  0  0
    9.3180   26.1292    3.9896 C   0  0  0  0  0  0  0  0  0  0  0  0
    9.5548   25.0017    3.3088 N   0  0  0  0  0  0  0  0  0  0  0  0
    9.9801   24.9581    2.3402 H   0  0  0  0  0  0  0  0  0  0  0  0
 10 11  2  0  0  0
 11 12  1  0  0  0
 12 13  2  0  0  0
 13  4  1  0  0  0
  4  5  2  0  0  0
  5  6  1  0  0  0
  6  7  2  0  0  0
  7  3  1  0  0  0
  3  2  1  0  0  0
  2  1  1  0  0  0
  1 16  1  0  0  0
 16 17  1  0  0  0
 17 18  1  0  0  0
 18 19  1  0  0  0
 19 20  1  0  0  0
 20 23  1  0  0  0
 23 24  1  0  0  0
 24 25  2  0  0  0
 25 26  1  0  0  0
 26 27  2  0  0  0
 27 28  1  0  0  0
 20 21  1  0  0  0
 21 22  1  0  0  0
  7  8  1  0  0  0
  8  9  2  0  0  0
 13 14  1  0  0  0
 14 15  2  0  0  0
 15 10  1  0  0  0
  9  4  1  0  0  0
 22 17  1  0  0  0
 28 24  1  0  0  0
 28 29  1  0  0  0
M  END
> <minimizedAffinity>
-3.77257

> <CNNscore>
0.2230944633

> <CNNaffinity>
6.3801527023

> <CNN_VS>
1.4233767986

> <CNNaffinity_variance>
0.3779488504

$$$$
[H]OC(=O)[C@]1([H])N([H])[C@@]([H])(C([H])([H])C([H])([H])c2c([H])c([H])c([H])c([H])c2[H])C(=O)N([H])[C@]([H])(C(=O)N([H])C([H])([H])[H])C([H])([H])C([H])([H])C(=O)OC([H])([H])C([H])([H])N([H])C(=O)C([H])([H])C1([H])[H]


 39 40  0  0  0  0  0  0  0  0999 V2000
   10.6608   22.3394   -0.4543 C   0  0  0  0  0  0  0  0  0  0  0  0
   11.4705   21.5732   -1.4478 C   0  0  0  0  0  0  0  0  0  0  0  0
   11.3981   20.0879   -1.3860 C   0  0  0  0  0  0  0  0  0  0  0  0
   12.7708   19.4968   -1.5936 C   0  0  0  0  0  0  0  0  0  0  0  0
   13.4128   19.1848   -0.5330 O   0  0  0  0  0  0  0  0  0  0  0  0
   13.3369   19.2881   -2.8177 O   0  0  0  0  0  0  0  0  0  0  0  0
   13.4873   20.1588   -3.8833 C   0  0  0  0  0  0  0  0  0  0  0  0
   14.8284   20.8926   -3.9090 C   0  0  0  0  0  0  0  0  0  0  0  0
   14.6945   22.0427   -4.7599 N   0  0  0  0  0  0  0  0  0  0  0  0
   15.4208   23.2513   -4.6733 C   0  0  0  0  0  0  0  0  0  0  0  0
   15.9261   23.7810   -5.7230 O   0  0  0  0  0  0  0  0  0  0  0  0
   15.6630   24.0022   -3.4033 C   0  0  0  0  0  0  0  0  0  0  0  0
   14.4640   23.9956   -2.5125 C   0  0  0  0  0  0  0  0  0  0  0  0
   13.4901   25.1351   -2.7253 C   0  0  0  0  0  0  0  0  0  0  0  0
   12.4380   25.0056   -1.7597 N   0  0  0  0  0  0  0  0  0  0  0  0
   12.7101   25.0964   -0.3932 C   0  0  0  0  0  0  0  0  0  0  0  0
   12.5639   23.8505    0.4097 C   0  0  0  0  0  0  0  0  0  0  0  0
   13.6112   23.5159    1.0680 O   0  0  0  0  0  0  0  0  0  0  0  0
   11.4725   23.0119    0.5492 N   0  0  0  0  0  0  0  0  0  0  0  0
   13.9784   21.9875   -5.5420 H   0  0  0  0  0  0  0  0  0  0  0  0
   11.5718   25.3792   -2.1406 H   0  0  0  0  0  0  0  0  0  0  0  0
   11.1457   22.8022    1.5518 H   0  0  0  0  0  0  0  0  0  0  0  0
    7.3177   20.5181    0.0244 C   0  0  0  0  0  0  0  0  0  0  0  0
    8.3756   21.3233   -0.5310 N   0  0  0  0  0  0  0  0  0  0  0  0
    9.5950   21.5118    0.1349 C   0  0  0  0  0  0  0  0  0  0  0  0
    9.7754   20.9714    1.2381 O   0  0  0  0  0  0  0  0  0  0  0  0
    8.2275   21.7789   -1.4555 H   0  0  0  0  0  0  0  0  0  0  0  0
   14.1443   26.4390   -2.8083 C   0  0  0  0  0  0  0  0  0  0  0  0
   15.2656   26.7482   -2.3444 O   0  0  0  0  0  0  0  0  0  0  0  0
   13.4384   27.4558   -3.4774 O   0  0  0  0  0  0  0  0  0  0  0  0
   12.9136   28.0794   -2.8789 H   0  0  0  0  0  0  0  0  0  0  0  0
   11.9640   26.2396    0.3048 C   0  0  0  0  0  0  0  0  0  0  0  0
   12.8079   26.8935    1.3450 C   0  0  0  0  0  0  0  0  0  0  0  0
   14.2335   26.4421    1.2666 C   0  0  0  0  0  0  0  0  0  0  0  0
   14.6285   25.3569    0.5460 C   0  0  0  0  0  0  0  0  0  0  0  0
   15.9816   25.0397    0.5489 C   0  0  0  0  0  0  0  0  0  0  0  0
   16.9093   25.7849    1.2508 C   0  0  0  0  0  0  0  0  0  0  0  0
   16.4959   26.8788    1.9748 C   0  0  0  0  0  0  0  0  0  0  0  0
   15.1552   27.1870    1.9674 C   0  0  0  0  0  0  0  0  0  0  0  0
 23 24  1  0  0  0
 24 25  1  0  0  0
 25 26  2  0  0  0
 25  1  1  0  0  0
  1  2  1  0  0  0
  2  3  1  0  0  0
  3  4  1  0  0  0
  4  5  2  0  0  0
  4  6  1  0  0  0
  6  7  1  0  0  0
  7  8  1  0  0  0
  8  9  1  0  0  0
  9 10  1  0  0  0
 10 11  2  0  0  0
 10 12  1  0  0  0
 12 13  1  0  0  0
 13 14  1  0  0  0
 14 28  1  0  0  0
 28 29  2  0  0  0
 28 30  1  0  0  0
 14 15  1  0  0  0
 15 16  1  0  0  0
 16 32  1  0  0  0
 32 33  1  0  0  0
 33 34  1  0  0  0
 34 35  2  0  0  0
 35 36  1  0  0  0
 36 37  2  0  0  0
 37 38  1  0  0  0
 38 39  2  0  0  0
 16 17  1  0  0  0
 17 18  2  0  0  0
 17 19  1  0  0  0
 19  1  1  0  0  0
 39 34  1  0  0  0
 24 27  1  0  0  0
  9 20  1  0  0  0
 30 31  1  0  0  0
 15 21  1  0  0  0
 19 22  1  0  0  0
M  END
> <minimizedAffinity>
19.68815

> <CNNscore>
0.5319514275

> <CNNaffinity>
7.0110650063

> <CNN_VS>
3.7295460701

> <CNNaffinity_variance>
1.5520061255

$$$$
[H]OC(=O)[C@]1([H])N([H])[C@@]([H])(C([H])([H])C([H])([H])c2c([H])c([H])c([H])c([H])c2[H])C(=O)N([H])[C@]([H])(C(=O)N([H])C([H])([H])[H])C([H])([H])C([H])([H])C(=O)OC([H])([H])C([H])([H])N([H])C(=O)C([H])([H])C1([H])[H]


 39 40  0  0  0  0  0  0  0  0999 V2000
   15.4614   25.4749   -2.0933 C   0  0  0  0  0  0  0  0  0  0  0  0
   15.3424   24.0795   -2.6113 C   0  0  0  0  0  0  0  0  0  0  0  0
   16.1066   23.7421   -3.8432 C   0  0  0  0  0  0  0  0  0  0  0  0
   15.2631   22.8827   -4.7526 C   0  0  0  0  0  0  0  0  0  0  0  0
   14.6499   23.4952   -5.6923 O   0  0  0  0  0  0  0  0  0  0  0  0
   15.1305   21.5309   -4.6215 O   0  0  0  0  0  0  0  0  0  0  0  0
   14.8002   20.7778   -3.5079 C   0  0  0  0  0  0  0  0  0  0  0  0
   13.3090   20.4647   -3.3824 C   0  0  0  0  0  0  0  0  0  0  0  0
   13.0428   20.0859   -2.0221 N   0  0  0  0  0  0  0  0  0  0  0  0
   11.8243   20.2342   -1.3230 C   0  0  0  0  0  0  0  0  0  0  0  0
   11.3525   19.2673   -0.6298 O   0  0  0  0  0  0  0  0  0  0  0  0
   10.9976   21.4799   -1.3210 C   0  0  0  0  0  0  0  0  0  0  0  0
   11.8414   22.7108   -1.2579 C   0  0  0  0  0  0  0  0  0  0  0  0
   12.1665   23.2050    0.1358 C   0  0  0  0  0  0  0  0  0  0  0  0
   12.9291   24.4130    0.0114 N   0  0  0  0  0  0  0  0  0  0  0  0
   12.3748   25.5469   -0.5859 C   0  0  0  0  0  0  0  0  0  0  0  0
   12.9357   25.9601   -1.9024 C   0  0  0  0  0  0  0  0  0  0  0  0
   12.0697   26.0600   -2.8418 O   0  0  0  0  0  0  0  0  0  0  0  0
   14.2413   26.2517   -2.2547 N   0  0  0  0  0  0  0  0  0  0  0  0
   13.8393   19.6438   -1.4764 H   0  0  0  0  0  0  0  0  0  0  0  0
   13.5653   24.5024    0.8002 H   0  0  0  0  0  0  0  0  0  0  0  0
   14.4166   27.2008   -2.7283 H   0  0  0  0  0  0  0  0  0  0  0  0
   17.6677   27.8706   -4.1222 C   0  0  0  0  0  0  0  0  0  0  0  0
   16.5220   27.1870   -3.5782 N   0  0  0  0  0  0  0  0  0  0  0  0
   16.6484   26.1580   -2.6343 C   0  0  0  0  0  0  0  0  0  0  0  0
   17.7801   25.8199   -2.2511 O   0  0  0  0  0  0  0  0  0  0  0  0
   15.5714   27.4671   -3.8979 H   0  0  0  0  0  0  0  0  0  0  0  0
   10.9981   23.2568    1.0116 C   0  0  0  0  0  0  0  0  0  0  0  0
    9.9656   23.9463    0.8474 O   0  0  0  0  0  0  0  0  0  0  0  0
   11.0384   22.4491    2.1630 O   0  0  0  0  0  0  0  0  0  0  0  0
   11.3329   22.9203    3.0078 H   0  0  0  0  0  0  0  0  0  0  0  0
   12.3184   26.7635    0.3453 C   0  0  0  0  0  0  0  0  0  0  0  0
   13.1300   26.5517    1.5774 C   0  0  0  0  0  0  0  0  0  0  0  0
   14.3668   25.7556    1.2965 C   0  0  0  0  0  0  0  0  0  0  0  0
   14.3587   24.4029    1.1448 C   0  0  0  0  0  0  0  0  0  0  0  0
   15.5718   23.7770    0.8837 C   0  0  0  0  0  0  0  0  0  0  0  0
   16.7548   24.4826    0.7781 C   0  0  0  0  0  0  0  0  0  0  0  0
   16.7481   25.8491    0.9339 C   0  0  0  0  0  0  0  0  0  0  0  0
   15.5439   26.4621    1.1921 C   0  0  0  0  0  0  0  0  0  0  0  0
 23 24  1  0  0  0
 24 25  1  0  0  0
 25 26  2  0  0  0
 25  1  1  0  0  0
  1  2  1  0  0  0
  2  3  1  0  0  0
  3  4  1  0  0  0
  4  5  2  0  0  0
  4  6  1  0  0  0
  6  7  1  0  0  0
  7  8  1  0  0  0
  8  9  1  0  0  0
  9 10  1  0  0  0
 10 11  2  0  0  0
 10 12  1  0  0  0
 12 13  1  0  0  0
 13 14  1  0  0  0
 14 28  1  0  0  0
 28 29  2  0  0  0
 28 30  1  0  0  0
 14 15  1  0  0  0
 15 16  1  0  0  0
 16 32  1  0  0  0
 32 33  1  0  0  0
 33 34  1  0  0  0
 34 35  2  0  0  0
 35 36  1  0  0  0
 36 37  2  0  0  0
 37 38  1  0  0  0
 38 39  2  0  0  0
 16 17  1  0  0  0
 17 18  2  0  0  0
 17 19  1  0  0  0
 19  1  1  0  0  0
 39 34  1  0  0  0
 24 27  1  0  0  0
  9 20  1  0  0  0
 30 31  1  0  0  0
 15 21  1  0  0  0
 19 22  1  0  0  0
M  END
> <minimizedAffinity>
13.04098

> <CNNscore>
0.5169100165

> <CNNaffinity>
6.7829284668

> <CNN_VS>
3.5061635971

> <CNNaffinity_variance>
0.5046874881

$$$$
[H]OC(=O)[C@]1([H])N([H])[C@@]([H])(C([H])([H])C([H])([H])c2c([H])c([H])c([H])c([H])c2[H])C(=O)N([H])[C@]([H])(C(=O)N([H])C([H])([H])[H])C([H])([H])C([H])([H])C(=O)OC([H])([H])C([H])([H])N([H])C(=O)C([H])([H])C1([H])[H]


 39 40  0  0  0  0  0  0  0  0999 V2000
   11.8498   21.5836   -1.3226 C   0  0  0  0  0  0  0  0  0  0  0  0
   13.0720   20.9453   -0.7493 C   0  0  0  0  0  0  0  0  0  0  0  0
   12.9362   19.5572   -0.2296 C   0  0  0  0  0  0  0  0  0  0  0  0
   13.7046   19.4136    1.0610 C   0  0  0  0  0  0  0  0  0  0  0  0
   13.0228   19.5351    2.1356 O   0  0  0  0  0  0  0  0  0  0  0  0
   15.0454   19.1690    1.1301 O   0  0  0  0  0  0  0  0  0  0  0  0
   16.0971   19.8207    0.5091 C   0  0  0  0  0  0  0  0  0  0  0  0
   16.7315   20.9295    1.3492 C   0  0  0  0  0  0  0  0  0  0  0  0
   17.4749   21.7892    0.4700 N   0  0  0  0  0  0  0  0  0  0  0  0
   17.7546   23.1606    0.6611 C   0  0  0  0  0  0  0  0  0  0  0  0
   18.9363   23.6141    0.4716 O   0  0  0  0  0  0  0  0  0  0  0  0
   16.7443   24.1779    1.0851 C   0  0  0  0  0  0  0  0  0  0  0  0
   15.4186   23.9544    0.4340 C   0  0  0  0  0  0  0  0  0  0  0  0
   15.2206   24.6548   -0.8936 C   0  0  0  0  0  0  0  0  0  0  0  0
   13.8880   24.3793   -1.3459 N   0  0  0  0  0  0  0  0  0  0  0  0
   12.7824   24.8130   -0.6114 C   0  0  0  0  0  0  0  0  0  0  0  0
   11.9564   23.7646    0.0496 C   0  0  0  0  0  0  0  0  0  0  0  0
   11.8127   23.9192    1.3137 O   0  0  0  0  0  0  0  0  0  0  0  0
   11.3257   22.6613   -0.4967 N   0  0  0  0  0  0  0  0  0  0  0  0
   17.8620   21.3568   -0.4192 H   0  0  0  0  0  0  0  0  0  0  0  0
   13.8631   24.3726   -2.3629 H   0  0  0  0  0  0  0  0  0  0  0  0
   10.2750   22.5531   -0.2961 H   0  0  0  0  0  0  0  0  0  0  0  0
    8.6715   19.9867   -2.7617 C   0  0  0  0  0  0  0  0  0  0  0  0
    9.6864   20.9454   -2.4055 N   0  0  0  0  0  0  0  0  0  0  0  0
   10.8267   20.5847   -1.6739 C   0  0  0  0  0  0  0  0  0  0  0  0
   10.9726   19.4041   -1.3180 O   0  0  0  0  0  0  0  0  0  0  0  0
    9.5669   21.9366   -2.7014 H   0  0  0  0  0  0  0  0  0  0  0  0
   15.6242   26.0588   -0.8657 C   0  0  0  0  0  0  0  0  0  0  0  0
   15.8299   26.7618    0.1501 O   0  0  0  0  0  0  0  0  0  0  0  0
   15.7969   26.6888   -2.1120 O   0  0  0  0  0  0  0  0  0  0  0  0
   15.0021   27.2230   -2.4368 H   0  0  0  0  0  0  0  0  0  0  0  0
   11.8660   25.7646   -1.3893 C   0  0  0  0  0  0  0  0  0  0  0  0
   11.6195   25.2797   -2.7770 C   0  0  0  0  0  0  0  0  0  0  0  0
   12.6478   25.7956   -3.7355 C   0  0  0  0  0  0  0  0  0  0  0  0
   12.5368   26.9973   -4.3653 C   0  0  0  0  0  0  0  0  0  0  0  0
   13.5591   27.3675   -5.2309 C   0  0  0  0  0  0  0  0  0  0  0  0
   14.6571   26.5605   -5.4586 C   0  0  0  0  0  0  0  0  0  0  0  0
   14.7560   25.3489   -4.8154 C   0  0  0  0  0  0  0  0  0  0  0  0
   13.7406   24.9889   -3.9601 C   0  0  0  0  0  0  0  0  0  0  0  0
 23 24  1  0  0  0
 24 25  1  0  0  0
 25 26  2  0  0  0
 25  1  1  0  0  0
  1  2  1  0  0  0
  2  3  1  0  0  0
  3  4  1  0  0  0
  4  5  2  0  0  0
  4  6  1  0  0  0
  6  7  1  0  0  0
  7  8  1  0  0  0
  8  9  1  0  0  0
  9 10  1  0  0  0
 10 11  2  0  0  0
 10 12  1  0  0  0
 12 13  1  0  0  0
 13 14  1  0  0  0
 14 28  1  0  0  0
 28 29  2  0  0  0
 28 30  1  0  0  0
 14 15  1  0  0  0
 15 16  1  0  0  0
 16 32  1  0  0  0
 32 33  1  0  0  0
 33 34  1  0  0  0
 34 35  2  0  0  0
 35 36  1  0  0  0
 36 37  2  0  0  0
 37 38  1  0  0  0
 38 39  2  0  0  0
 16 17  1  0  0  0
 17 18  2  0  0  0
 17 19  1  0  0  0
 19  1  1  0  0  0
 39 34  1  0  0  0
 24 27  1  0  0  0
  9 20  1  0  0  0
 30 31  1  0  0  0
 15 21  1  0  0  0
 19 22  1  0  0  0
M  END
> <minimizedAffinity>
19.43931

> <CNNscore>
0.5056269169

> <CNNaffinity>
6.7034635544

> <CNN_VS>
3.3894515038

> <CNNaffinity_variance>
0.9907226562

$$$$
[H]OC(=O)[C@]1([H])N([H])[C@@]([H])(C([H])([H])C([H])([H])c2c([H])c([H])c([H])c([H])c2[H])C(=O)N([H])[C@]([H])(C(=O)N([H])C([H])([H])[H])C([H])([H])C([H])([H])C(=O)OC([H])([H])C([H])([H])N([H])C(=O)C([H])([H])C1([H])[H]


 39 40  0  0  0  0  0  0  0  0999 V2000
   11.9819   22.8374    0.1232 C   0  0  0  0  0  0  0  0  0  0  0  0
   12.2717   22.0910   -1.1372 C   0  0  0  0  0  0  0  0  0  0  0  0
   11.7785   20.6897   -1.2285 C   0  0  0  0  0  0  0  0  0  0  0  0
   12.8254   19.8169   -1.8758 C   0  0  0  0  0  0  0  0  0  0  0  0
   13.5755   19.1566   -1.0784 O   0  0  0  0  0  0  0  0  0  0  0  0
   13.0011   19.7050   -3.2244 O   0  0  0  0  0  0  0  0  0  0  0  0
   13.1494   20.6931   -4.1827 C   0  0  0  0  0  0  0  0  0  0  0  0
   14.6027   21.0501   -4.4956 C   0  0  0  0  0  0  0  0  0  0  0  0
   14.6208   22.3353   -5.1380 N   0  0  0  0  0  0  0  0  0  0  0  0
   15.6720   23.2787   -5.1185 C   0  0  0  0  0  0  0  0  0  0  0  0
   16.0513   23.8496   -6.1993 O   0  0  0  0  0  0  0  0  0  0  0  0
   16.4163   23.6891   -3.8884 C   0  0  0  0  0  0  0  0  0  0  0  0
   15.5127   23.8218   -2.7064 C   0  0  0  0  0  0  0  0  0  0  0  0
   14.8993   25.1917   -2.5081 C   0  0  0  0  0  0  0  0  0  0  0  0
   14.1127   25.1561   -1.3096 N   0  0  0  0  0  0  0  0  0  0  0  0
   14.7115   24.9148   -0.0715 C   0  0  0  0  0  0  0  0  0  0  0  0
   14.3943   23.6195    0.5919 C   0  0  0  0  0  0  0  0  0  0  0  0
   15.4188   22.9099    0.8904 O   0  0  0  0  0  0  0  0  0  0  0  0
   13.1678   23.0777    0.9320 N   0  0  0  0  0  0  0  0  0  0  0  0
   13.7584   22.6139   -5.6912 H   0  0  0  0  0  0  0  0  0  0  0  0
   13.3325   25.8041   -1.3894 H   0  0  0  0  0  0  0  0  0  0  0  0
   13.0376   22.7734    1.9549 H   0  0  0  0  0  0  0  0  0  0  0  0
    8.7405   22.3962    2.1286 C   0  0  0  0  0  0  0  0  0  0  0  0
    9.8229   22.9821    1.3796 N   0  0  0  0  0  0  0  0  0  0  0  0
   10.8874   22.2145    0.8864 C   0  0  0  0  0  0  0  0  0  0  0  0
   10.9045   20.9912    1.0984 O   0  0  0  0  0  0  0  0  0  0  0  0
    9.8125   24.0079    1.2008 H   0  0  0  0  0  0  0  0  0  0  0  0
   15.8724   26.2760   -2.6193 C   0  0  0  0  0  0  0  0  0  0  0  0
   16.9380   26.3989   -1.9730 O   0  0  0  0  0  0  0  0  0  0  0  0
   15.5799   27.2911   -3.5487 O   0  0  0  0  0  0  0  0  0  0  0  0
   15.1389   28.1142   -3.1607 H   0  0  0  0  0  0  0  0  0  0  0  0
   14.5232   26.0580    0.9326 C   0  0  0  0  0  0  0  0  0  0  0  0
   15.8301   26.6136    1.3855 C   0  0  0  0  0  0  0  0  0  0  0  0
   16.9461   25.6344    1.1910 C   0  0  0  0  0  0  0  0  0  0  0  0
   17.0396   24.8244    0.1009 C   0  0  0  0  0  0  0  0  0  0  0  0
   18.1248   23.9589    0.0330 C   0  0  0  0  0  0  0  0  0  0  0  0
   19.0853   23.9059    1.0246 C   0  0  0  0  0  0  0  0  0  0  0  0
   18.9781   24.7300    2.1204 C   0  0  0  0  0  0  0  0  0  0  0  0
   17.9015   25.5843    2.1811 C   0  0  0  0  0  0  0  0  0  0  0  0
 23 24  1  0  0  0
 24 25  1  0  0  0
 25 26  2  0  0  0
 25  1  1  0  0  0
  1  2  1  0  0  0
  2  3  1  0  0  0
  3  4  1  0  0  0
  4  5  2  0  0  0
  4  6  1  0  0  0
  6  7  1  0  0  0
  7  8  1  0  0  0
  8  9  1  0  0  0
  9 10  1  0  0  0
 10 11  2  0  0  0
 10 12  1  0  0  0
 12 13  1  0  0  0
 13 14  1  0  0  0
 14 28  1  0  0  0
 28 29  2  0  0  0
 28 30  1  0  0  0
 14 15  1  0  0  0
 15 16  1  0  0  0
 16 32  1  0  0  0
 32 33  1  0  0  0
 33 34  1  0  0  0
 34 35  2  0  0  0
 35 36  1  0  0  0
 36 37  2  0  0  0
 37 38  1  0  0  0
 38 39  2  0  0  0
 16 17  1  0  0  0
 17 18  2  0  0  0
 17 19  1  0  0  0
 19  1  1  0  0  0
 39 34  1  0  0  0
 24 27  1  0  0  0
  9 20  1  0  0  0
 30 31  1  0  0  0
 15 21  1  0  0  0
 19 22  1  0  0  0
M  END
> <minimizedAffinity>
22.11145

> <CNNscore>
0.4999845028

> <CNNaffinity>
7.1090421677

> <CNN_VS>
3.5544109344

> <CNNaffinity_variance>
2.0278806686

$$$$
[H]OC(=O)[C@]1([H])N([H])[C@@]([H])(C([H])([H])C([H])([H])c2c([H])c([H])c([H])c([H])c2[H])C(=O)N([H])[C@]([H])(C(=O)N([H])C([H])([H])[H])C([H])([H])C([H])([H])C(=O)OC([H])([H])C([H])([H])N([H])C(=O)C([H])([H])C1([H])[H]


 39 40  0  0  0  0  0  0  0  0999 V2000
   15.5015   24.1553   -0.0708 C   0  0  0  0  0  0  0  0  0  0  0  0
   15.0007   22.9119    0.5870 C   0  0  0  0  0  0  0  0  0  0  0  0
   16.0120   21.8911    0.9749 C   0  0  0  0  0  0  0  0  0  0  0  0
   15.4948   20.5089    0.6603 C   0  0  0  0  0  0  0  0  0  0  0  0
   15.8857   20.0029   -0.4468 O   0  0  0  0  0  0  0  0  0  0  0  0
   14.6592   19.8010    1.4744 O   0  0  0  0  0  0  0  0  0  0  0  0
   13.4621   20.1790    2.0579 C   0  0  0  0  0  0  0  0  0  0  0  0
   12.2225   19.8061    1.2444 C   0  0  0  0  0  0  0  0  0  0  0  0
   11.1241   20.6090    1.7064 N   0  0  0  0  0  0  0  0  0  0  0  0
    9.9938   21.0104    0.9602 C   0  0  0  0  0  0  0  0  0  0  0  0
    8.8185   20.9045    1.4556 O   0  0  0  0  0  0  0  0  0  0  0  0
   10.0516   21.5751   -0.4230 C   0  0  0  0  0  0  0  0  0  0  0  0
   11.2075   22.5045   -0.5996 C   0  0  0  0  0  0  0  0  0  0  0  0
   10.9300   23.9562   -0.2713 C   0  0  0  0  0  0  0  0  0  0  0  0
   12.1195   24.7084   -0.5466 N   0  0  0  0  0  0  0  0  0  0  0  0
   12.6278   24.7875   -1.8447 C   0  0  0  0  0  0  0  0  0  0  0  0
   13.9208   24.0966   -2.1077 C   0  0  0  0  0  0  0  0  0  0  0  0
   13.8833   23.2438   -3.0636 O   0  0  0  0  0  0  0  0  0  0  0  0
   15.1445   24.2417   -1.4791 N   0  0  0  0  0  0  0  0  0  0  0  0
   11.1540   20.9383    2.7155 H   0  0  0  0  0  0  0  0  0  0  0  0
   12.1755   25.5075    0.0805 H   0  0  0  0  0  0  0  0  0  0  0  0
   15.9914   24.4532   -2.1067 H   0  0  0  0  0  0  0  0  0  0  0  0
   18.9085   24.3159    1.6869 C   0  0  0  0  0  0  0  0  0  0  0  0
   17.5034   24.1271    1.4299 N   0  0  0  0  0  0  0  0  0  0  0  0
   16.9409   24.3558    0.1662 C   0  0  0  0  0  0  0  0  0  0  0  0
   17.6704   24.7334   -0.7649 O   0  0  0  0  0  0  0  0  0  0  0  0
   16.8883   23.8115    2.2086 H   0  0  0  0  0  0  0  0  0  0  0  0
    9.6912   24.4510   -0.8674 C   0  0  0  0  0  0  0  0  0  0  0  0
    8.5912   24.6112   -0.2907 O   0  0  0  0  0  0  0  0  0  0  0  0
    9.7380   24.7793   -2.2349 O   0  0  0  0  0  0  0  0  0  0  0  0
    9.4114   24.0559   -2.8614 H   0  0  0  0  0  0  0  0  0  0  0  0
   12.6986   26.2194   -2.3880 C   0  0  0  0  0  0  0  0  0  0  0  0
   12.7797   26.2401   -3.8762 C   0  0  0  0  0  0  0  0  0  0  0  0
   14.1329   26.6703   -4.3517 C   0  0  0  0  0  0  0  0  0  0  0  0
   15.1228   27.0696   -3.5069 C   0  0  0  0  0  0  0  0  0  0  0  0
   16.3376   27.4430   -4.0693 C   0  0  0  0  0  0  0  0  0  0  0  0
   16.5543   27.4175   -5.4335 C   0  0  0  0  0  0  0  0  0  0  0  0
   15.5451   27.0120   -6.2751 C   0  0  0  0  0  0  0  0  0  0  0  0
   14.3453   26.6438   -5.7118 C   0  0  0  0  0  0  0  0  0  0  0  0
 23 24  1  0  0  0
 24 25  1  0  0  0
 25 26  2  0  0  0
 25  1  1  0  0  0
  1  2  1  0  0  0
  2  3  1  0  0  0
  3  4  1  0  0  0
  4  5  2  0  0  0
  4  6  1  0  0  0
  6  7  1  0  0  0
  7  8  1  0  0  0
  8  9  1  0  0  0
  9 10  1  0  0  0
 10 11  2  0  0  0
 10 12  1  0  0  0
 12 13  1  0  0  0
 13 14  1  0  0  0
 14 28  1  0  0  0
 28 29  2  0  0  0
 28 30  1  0  0  0
 14 15  1  0  0  0
 15 16  1  0  0  0
 16 32  1  0  0  0
 32 33  1  0  0  0
 33 34  1  0  0  0
 34 35  2  0  0  0
 35 36  1  0  0  0
 36 37  2  0  0  0
 37 38  1  0  0  0
 38 39  2  0  0  0
 16 17  1  0  0  0
 17 18  2  0  0  0
 17 19  1  0  0  0
 19  1  1  0  0  0
 39 34  1  0  0  0
 24 27  1  0  0  0
  9 20  1  0  0  0
 30 31  1  0  0  0
 15 21  1  0  0  0
 19 22  1  0  0  0
M  END
> <minimizedAffinity>
1.93939

> <CNNscore>
0.4970400333

> <CNNaffinity>
7.0648794174

> <CNN_VS>
3.5115280151

> <CNNaffinity_variance>
0.6578003168

$$$$
[H]OC(=O)[C@]1([H])N([H])[C@@]([H])(C([H])([H])C([H])([H])c2c([H])c([H])c([H])c([H])c2[H])C(=O)N([H])[C@]([H])(C(=O)N([H])C([H])([H])[H])C([H])([H])C([H])([H])C(=O)OC([H])([H])C([H])([H])N([H])C(=O)C([H])([H])C1([H])[H]


 39 40  0  0  0  0  0  0  0  0999 V2000
   13.5322   22.3786   -0.0627 C   0  0  0  0  0  0  0  0  0  0  0  0
   14.9194   22.8718   -0.3119 C   0  0  0  0  0  0  0  0  0  0  0  0
   15.9780   22.4402    0.6412 C   0  0  0  0  0  0  0  0  0  0  0  0
   16.8981   23.5965    0.9464 C   0  0  0  0  0  0  0  0  0  0  0  0
   16.6492   24.2421    2.0214 O   0  0  0  0  0  0  0  0  0  0  0  0
   17.9454   23.9703    0.1554 O   0  0  0  0  0  0  0  0  0  0  0  0
   17.9801   24.2265   -1.2046 C   0  0  0  0  0  0  0  0  0  0  0  0
   17.7870   25.6983   -1.5706 C   0  0  0  0  0  0  0  0  0  0  0  0
   17.4085   25.7706   -2.9549 N   0  0  0  0  0  0  0  0  0  0  0  0
   16.6339   26.7785   -3.5711 C   0  0  0  0  0  0  0  0  0  0  0  0
   17.0052   27.2937   -4.6822 O   0  0  0  0  0  0  0  0  0  0  0  0
   15.3577   27.3225   -3.0137 C   0  0  0  0  0  0  0  0  0  0  0  0
   14.5138   26.2526   -2.4018 C   0  0  0  0  0  0  0  0  0  0  0  0
   13.5402   25.5753   -3.3428 C   0  0  0  0  0  0  0  0  0  0  0  0
   12.7804   24.6238   -2.5854 N   0  0  0  0  0  0  0  0  0  0  0  0
   11.9483   25.0427   -1.5452 C   0  0  0  0  0  0  0  0  0  0  0  0
   12.3565   24.6719   -0.1617 C   0  0  0  0  0  0  0  0  0  0  0  0
   12.4732   25.6631    0.6422 O   0  0  0  0  0  0  0  0  0  0  0  0
   12.6226   23.4260    0.3774 N   0  0  0  0  0  0  0  0  0  0  0  0
   17.7443   24.9900   -3.5916 H   0  0  0  0  0  0  0  0  0  0  0  0
   12.5114   23.8442   -3.1810 H   0  0  0  0  0  0  0  0  0  0  0  0
   12.0853   23.1574    1.2691 H   0  0  0  0  0  0  0  0  0  0  0  0
   12.4757   19.8857    2.6562 C   0  0  0  0  0  0  0  0  0  0  0  0
   12.5076   21.0262    1.7762 N   0  0  0  0  0  0  0  0  0  0  0  0
   13.5224   21.2041    0.8254 C   0  0  0  0  0  0  0  0  0  0  0  0
   14.4253   20.3567    0.7336 O   0  0  0  0  0  0  0  0  0  0  0  0
   11.7527   21.7394    1.8510 H   0  0  0  0  0  0  0  0  0  0  0  0
   12.7789   26.5207   -4.1563 C   0  0  0  0  0  0  0  0  0  0  0  0
   11.6691   27.0291   -3.8770 O   0  0  0  0  0  0  0  0  0  0  0  0
   13.3519   26.8973   -5.3850 O   0  0  0  0  0  0  0  0  0  0  0  0
   13.0198   26.3822   -6.1893 H   0  0  0  0  0  0  0  0  0  0  0  0
   10.4746   24.6752   -1.7545 C   0  0  0  0  0  0  0  0  0  0  0  0
   10.2353   23.2191   -1.5447 C   0  0  0  0  0  0  0  0  0  0  0  0
    9.4720   22.9588   -0.2830 C   0  0  0  0  0  0  0  0  0  0  0  0
    8.8925   23.9487    0.4500 C   0  0  0  0  0  0  0  0  0  0  0  0
    8.2076   23.5804    1.6017 C   0  0  0  0  0  0  0  0  0  0  0  0
    8.1062   22.2635    2.0068 C   0  0  0  0  0  0  0  0  0  0  0  0
    8.6968   21.2737    1.2564 C   0  0  0  0  0  0  0  0  0  0  0  0
    9.3731   21.6453    0.1176 C   0  0  0  0  0  0  0  0  0  0  0  0
 23 24  1  0  0  0
 24 25  1  0  0  0
 25 26  2  0  0  0
 25  1  1  0  0  0
  1  2  1  0  0  0
  2  3  1  0  0  0
  3  4  1  0  0  0
  4  5  2  0  0  0
  4  6  1  0  0  0
  6  7  1  0  0  0
  7  8  1  0  0  0
  8  9  1  0  0  0
  9 10  1  0  0  0
 10 11  2  0  0  0
 10 12  1  0  0  0
 12 13  1  0  0  0
 13 14  1  0  0  0
 14 28  1  0  0  0
 28 29  2  0  0  0
 28 30  1  0  0  0
 14 15  1  0  0  0
 15 16  1  0  0  0
 16 32  1  0  0  0
 32 33  1  0  0  0
 33 34  1  0  0  0
 34 35  2  0  0  0
 35 36  1  0  0  0
 36 37  2  0  0  0
 37 38  1  0  0  0
 38 39  2  0  0  0
 16 17  1  0  0  0
 17 18  2  0  0  0
 17 19  1  0  0  0
 19  1  1  0  0  0
 39 34  1  0  0  0
 24 27  1  0  0  0
  9 20  1  0  0  0
 30 31  1  0  0  0
 15 21  1  0  0  0
 19 22  1  0  0  0
M  END
> <minimizedAffinity>
6.03301

> <CNNscore>
0.4932059050

> <CNNaffinity>
6.9445505142

> <CNN_VS>
3.4250934124

> <CNNaffinity_variance>
0.6689027548

$$$$
[H]OC(=O)[C@]1([H])N([H])[C@@]([H])(C([H])([H])C([H])([H])c2c([H])c([H])c([H])c([H])c2[H])C(=O)N([H])[C@]([H])(C(=O)N([H])C([H])([H])[H])C([H])([H])C([H])([H])C(=O)OC([H])([H])C([H])([H])N([H])C(=O)C([H])([H])C1([H])[H]


 39 40  0  0  0  0  0  0  0  0999 V2000
   14.0813   21.4825    0.2831 C   0  0  0  0  0  0  0  0  0  0  0  0
   14.8966   22.4801   -0.4719 C   0  0  0  0  0  0  0  0  0  0  0  0
   16.3458   22.5646   -0.1436 C   0  0  0  0  0  0  0  0  0  0  0  0
   16.7823   24.0087   -0.1095 C   0  0  0  0  0  0  0  0  0  0  0  0
   16.8217   24.5550    1.0456 O   0  0  0  0  0  0  0  0  0  0  0  0
   17.1241   24.7309   -1.2157 O   0  0  0  0  0  0  0  0  0  0  0  0
   16.4379   24.9062   -2.4052 C   0  0  0  0  0  0  0  0  0  0  0  0
   15.5532   26.1526   -2.4410 C   0  0  0  0  0  0  0  0  0  0  0  0
   14.5938   25.9918   -3.4985 N   0  0  0  0  0  0  0  0  0  0  0  0
   13.3051   26.5662   -3.5695 C   0  0  0  0  0  0  0  0  0  0  0  0
   12.9036   27.1273   -4.6473 O   0  0  0  0  0  0  0  0  0  0  0  0
   12.3218   26.5770   -2.4433 C   0  0  0  0  0  0  0  0  0  0  0  0
   12.3291   25.2917   -1.6822 C   0  0  0  0  0  0  0  0  0  0  0  0
   11.3782   24.2295   -2.1918 C   0  0  0  0  0  0  0  0  0  0  0  0
   11.4738   23.0941   -1.3212 N   0  0  0  0  0  0  0  0  0  0  0  0
   11.1146   23.1959    0.0243 C   0  0  0  0  0  0  0  0  0  0  0  0
   12.2120   23.0962    1.0264 C   0  0  0  0  0  0  0  0  0  0  0  0
   12.2906   24.0914    1.8300 O   0  0  0  0  0  0  0  0  0  0  0  0
   13.1473   22.0948    1.2162 N   0  0  0  0  0  0  0  0  0  0  0  0
   14.8745   25.3806   -4.3202 H   0  0  0  0  0  0  0  0  0  0  0  0
   11.2859   22.2416   -1.8437 H   0  0  0  0  0  0  0  0  0  0  0  0
   13.2215   21.6801    2.2054 H   0  0  0  0  0  0  0  0  0  0  0  0
   17.0203   19.1145    0.9745 C   0  0  0  0  0  0  0  0  0  0  0  0
   16.1762   20.1174    0.3765 N   0  0  0  0  0  0  0  0  0  0  0  0
   14.9253   20.4535    0.9131 C   0  0  0  0  0  0  0  0  0  0  0  0
   14.5260   19.8723    1.9352 O   0  0  0  0  0  0  0  0  0  0  0  0
   16.5073   20.6061   -0.4813 H   0  0  0  0  0  0  0  0  0  0  0  0
   10.0349   24.7417   -2.4530 C   0  0  0  0  0  0  0  0  0  0  0  0
    9.6679   25.4207   -3.4392 O   0  0  0  0  0  0  0  0  0  0  0  0
    9.0500   24.4432   -1.4935 O   0  0  0  0  0  0  0  0  0  0  0  0
    8.8816   25.1699   -0.8108 H   0  0  0  0  0  0  0  0  0  0  0  0
    9.9740   22.2537    0.4263 C   0  0  0  0  0  0  0  0  0  0  0  0
    9.9573   22.0052    1.8959 C   0  0  0  0  0  0  0  0  0  0  0  0
    9.1949   23.0653    2.6288 C   0  0  0  0  0  0  0  0  0  0  0  0
    8.5514   24.0854    1.9976 C   0  0  0  0  0  0  0  0  0  0  0  0
    7.8747   25.0068    2.7879 C   0  0  0  0  0  0  0  0  0  0  0  0
    7.8435   24.9101    4.1657 C   0  0  0  0  0  0  0  0  0  0  0  0
    8.4983   23.8742    4.7900 C   0  0  0  0  0  0  0  0  0  0  0  0
    9.1660   22.9659    4.0017 C   0  0  0  0  0  0  0  0  0  0  0  0
 23 24  1  0  0  0
 24 25  1  0  0  0
 25 26  2  0  0  0
 25  1  1  0  0  0
  1  2  1  0  0  0
  2  3  1  0  0  0
  3  4  1  0  0  0
  4  5  2  0  0  0
  4  6  1  0  0  0
  6  7  1  0  0  0
  7  8  1  0  0  0
  8  9  1  0  0  0
  9 10  1  0  0  0
 10 11  2  0  0  0
 10 12  1  0  0  0
 12 13  1  0  0  0
 13 14  1  0  0  0
 14 28  1  0  0  0
 28 29  2  0  0  0
 28 30  1  0  0  0
 14 15  1  0  0  0
 15 16  1  0  0  0
 16 32  1  0  0  0
 32 33  1  0  0  0
 33 34  1  0  0  0
 34 35  2  0  0  0
 35 36  1  0  0  0
 36 37  2  0  0  0
 37 38  1  0  0  0
 38 39  2  0  0  0
 16 17  1  0  0  0
 17 18  2  0  0  0
 17 19  1  0  0  0
 19  1  1  0  0  0
 39 34  1  0  0  0
 24 27  1  0  0  0
  9 20  1  0  0  0
 30 31  1  0  0  0
 15 21  1  0  0  0
 19 22  1  0  0  0
M  END
> <minimizedAffinity>
16.48414

> <CNNscore>
0.4890933931

> <CNNaffinity>
6.8475904465

> <CNN_VS>
3.3491113186

> <CNNaffinity_variance>
0.5981327891

$$$$
[H]OC(=O)[C@]1([H])N([H])[C@@]([H])(C([H])([H])C([H])([H])c2c([H])c([H])c([H])c([H])c2[H])C(=O)N([H])[C@]([H])(C(=O)N([H])C([H])([H])[H])C([H])([H])C([H])([H])C(=O)OC([H])([H])C([H])([H])N([H])C(=O)C([H])([H])C1([H])[H]


 39 40  0  0  0  0  0  0  0  0999 V2000
   12.6921   24.2796   -0.5646 C   0  0  0  0  0  0  0  0  0  0  0  0
   13.1583   25.2322   -1.6158 C   0  0  0  0  0  0  0  0  0  0  0  0
   12.5843   26.6053   -1.5945 C   0  0  0  0  0  0  0  0  0  0  0  0
   12.2828   27.0588   -3.0017 C   0  0  0  0  0  0  0  0  0  0  0  0
   11.0742   26.9109   -3.3913 O   0  0  0  0  0  0  0  0  0  0  0  0
   13.2084   27.5996   -3.8461 O   0  0  0  0  0  0  0  0  0  0  0  0
   14.4610   27.1309   -4.2037 C   0  0  0  0  0  0  0  0  0  0  0  0
   14.4751   26.2910   -5.4811 C   0  0  0  0  0  0  0  0  0  0  0  0
   15.6898   25.5237   -5.5004 N   0  0  0  0  0  0  0  0  0  0  0  0
   15.8966   24.2782   -6.1341 C   0  0  0  0  0  0  0  0  0  0  0  0
   16.9404   24.0787   -6.8472 O   0  0  0  0  0  0  0  0  0  0  0  0
   14.9594   23.1170   -6.0410 C   0  0  0  0  0  0  0  0  0  0  0  0
   14.3888   22.9677   -4.6686 C   0  0  0  0  0  0  0  0  0  0  0  0
   15.1889   22.0967   -3.7235 C   0  0  0  0  0  0  0  0  0  0  0  0
   14.4762   22.0186   -2.4816 N   0  0  0  0  0  0  0  0  0  0  0  0
   13.2083   21.4365   -2.4233 C   0  0  0  0  0  0  0  0  0  0  0  0
   12.0599   22.3438   -2.1472 C   0  0  0  0  0  0  0  0  0  0  0  0
   11.1274   22.3040   -3.0253 O   0  0  0  0  0  0  0  0  0  0  0  0
   11.8538   23.2123   -1.0903 N   0  0  0  0  0  0  0  0  0  0  0  0
   16.5281   25.9285   -4.9896 H   0  0  0  0  0  0  0  0  0  0  0  0
   15.1332   21.9056   -1.7131 H   0  0  0  0  0  0  0  0  0  0  0  0
   10.9315   23.1075   -0.5478 H   0  0  0  0  0  0  0  0  0  0  0  0
   10.2646   25.1830    2.2663 C   0  0  0  0  0  0  0  0  0  0  0  0
   10.8875   24.5137    1.1528 N   0  0  0  0  0  0  0  0  0  0  0  0
   12.0750   24.9821    0.5729 C   0  0  0  0  0  0  0  0  0  0  0  0
   12.6115   26.0053    1.0277 O   0  0  0  0  0  0  0  0  0  0  0  0
   10.4399   23.6559    0.7681 H   0  0  0  0  0  0  0  0  0  0  0  0
   15.5990   20.8286   -4.3226 C   0  0  0  0  0  0  0  0  0  0  0  0
   16.6338   20.1736   -4.0611 O   0  0  0  0  0  0  0  0  0  0  0  0
   14.7423   20.2877   -5.2990 O   0  0  0  0  0  0  0  0  0  0  0  0
   14.9990   20.4914   -6.2557 H   0  0  0  0  0  0  0  0  0  0  0  0
   13.1336   20.2249   -1.4868 C   0  0  0  0  0  0  0  0  0  0  0  0
   13.0517   20.6385   -0.0571 C   0  0  0  0  0  0  0  0  0  0  0  0
   14.3712   21.1276    0.4549 C   0  0  0  0  0  0  0  0  0  0  0  0
   15.4029   20.2937    0.7598 C   0  0  0  0  0  0  0  0  0  0  0  0
   16.5799   20.8685    1.2242 C   0  0  0  0  0  0  0  0  0  0  0  0
   16.7194   22.2343    1.3786 C   0  0  0  0  0  0  0  0  0  0  0  0
   15.6685   23.0649    1.0667 C   0  0  0  0  0  0  0  0  0  0  0  0
   14.5066   22.4892    0.6076 C   0  0  0  0  0  0  0  0  0  0  0  0
 23 24  1  0  0  0
 24 25  1  0  0  0
 25 26  2  0  0  0
 25  1  1  0  0  0
  1  2  1  0  0  0
  2  3  1  0  0  0
  3  4  1  0  0  0
  4  5  2  0  0  0
  4  6  1  0  0  0
  6  7  1  0  0  0
  7  8  1  0  0  0
  8  9  1  0  0  0
  9 10  1  0  0  0
 10 11  2  0  0  0
 10 12  1  0  0  0
 12 13  1  0  0  0
 13 14  1  0  0  0
 14 28  1  0  0  0
 28 29  2  0  0  0
 28 30  1  0  0  0
 14 15  1  0  0  0
 15 16  1  0  0  0
 16 32  1  0  0  0
 32 33  1  0  0  0
 33 34  1  0  0  0
 34 35  2  0  0  0
 35 36  1  0  0  0
 36 37  2  0  0  0
 37 38  1  0  0  0
 38 39  2  0  0  0
 16 17  1  0  0  0
 17 18  2  0  0  0
 17 19  1  0  0  0
 19  1  1  0  0  0
 39 34  1  0  0  0
 24 27  1  0  0  0
  9 20  1  0  0  0
 30 31  1  0  0  0
 15 21  1  0  0  0
 19 22  1  0  0  0
M  END
> <minimizedAffinity>
22.84327

> <CNNscore>
0.4813183248

> <CNNaffinity>
6.4407806396

> <CNN_VS>
3.1000657082

> <CNNaffinity_variance>
0.5539576411

$$$$
[H]OC(=O)[C@]1([H])N([H])[C@@]([H])(C([H])([H])C([H])([H])c2c([H])c([H])c([H])c([H])c2[H])C(=O)N([H])[C@]([H])(C(=O)N([H])C([H])([H])[H])C([H])([H])C([H])([H])C(=O)OC([H])([H])C([H])([H])N([H])C(=O)C([H])([H])C1([H])[H]


 39 40  0  0  0  0  0  0  0  0999 V2000
   12.9884   25.7572   -2.6801 C   0  0  0  0  0  0  0  0  0  0  0  0
   12.2614   25.5456   -1.3931 C   0  0  0  0  0  0  0  0  0  0  0  0
   11.7978   26.7580   -0.6647 C   0  0  0  0  0  0  0  0  0  0  0  0
   12.0330   26.5897    0.8163 C   0  0  0  0  0  0  0  0  0  0  0  0
   13.1014   27.1189    1.2777 O   0  0  0  0  0  0  0  0  0  0  0  0
   11.1876   25.9224    1.6543 O   0  0  0  0  0  0  0  0  0  0  0  0
   10.6442   24.6545    1.5378 C   0  0  0  0  0  0  0  0  0  0  0  0
   11.4492   23.5604    2.2395 C   0  0  0  0  0  0  0  0  0  0  0  0
   11.0522   22.2915    1.6945 N   0  0  0  0  0  0  0  0  0  0  0  0
   11.8365   21.1193    1.6154 C   0  0  0  0  0  0  0  0  0  0  0  0
   11.3509   19.9890    1.9681 O   0  0  0  0  0  0  0  0  0  0  0  0
   13.2511   21.0802    1.1330 C   0  0  0  0  0  0  0  0  0  0  0  0
   13.4699   21.9890   -0.0320 C   0  0  0  0  0  0  0  0  0  0  0  0
   13.2358   21.3685   -1.3930 C   0  0  0  0  0  0  0  0  0  0  0  0
   13.5416   22.3543   -2.3885 N   0  0  0  0  0  0  0  0  0  0  0  0
   14.8354   22.8650   -2.5115 C   0  0  0  0  0  0  0  0  0  0  0  0
   15.0382   24.2910   -2.1325 C   0  0  0  0  0  0  0  0  0  0  0  0
   15.9399   24.4816   -1.2419 O   0  0  0  0  0  0  0  0  0  0  0  0
   14.4039   25.4284   -2.5989 N   0  0  0  0  0  0  0  0  0  0  0  0
   10.0652   22.2154    1.3104 H   0  0  0  0  0  0  0  0  0  0  0  0
   12.9645   22.2034   -3.2126 H   0  0  0  0  0  0  0  0  0  0  0  0
   15.0323   26.2185   -2.9688 H   0  0  0  0  0  0  0  0  0  0  0  0
   12.4378   29.5480   -2.9021 C   0  0  0  0  0  0  0  0  0  0  0  0
   12.6742   28.2224   -2.3894 N   0  0  0  0  0  0  0  0  0  0  0  0
   12.7455   27.1018   -3.2289 C   0  0  0  0  0  0  0  0  0  0  0  0
   12.6007   27.2489   -4.4533 O   0  0  0  0  0  0  0  0  0  0  0  0
   12.7951   28.0950   -1.3630 H   0  0  0  0  0  0  0  0  0  0  0  0
   13.8776   20.0647   -1.5456 C   0  0  0  0  0  0  0  0  0  0  0  0
   13.4901   19.1158   -2.2650 O   0  0  0  0  0  0  0  0  0  0  0  0
   15.0537   19.8515   -0.8031 O   0  0  0  0  0  0  0  0  0  0  0  0
   14.9255   19.3636    0.0733 H   0  0  0  0  0  0  0  0  0  0  0  0
   15.4654   22.6113   -3.8860 C   0  0  0  0  0  0  0  0  0  0  0  0
   16.5738   23.5671   -4.1684 C   0  0  0  0  0  0  0  0  0  0  0  0
   16.1131   24.7176   -5.0088 C   0  0  0  0  0  0  0  0  0  0  0  0
   15.4881   24.5562   -6.2073 C   0  0  0  0  0  0  0  0  0  0  0  0
   15.1050   25.7025   -6.8933 C   0  0  0  0  0  0  0  0  0  0  0  0
   15.3403   26.9696   -6.3955 C   0  0  0  0  0  0  0  0  0  0  0  0
   15.9730   27.1177   -5.1834 C   0  0  0  0  0  0  0  0  0  0  0  0
   16.3493   25.9788   -4.5098 C   0  0  0  0  0  0  0  0  0  0  0  0
 23 24  1  0  0  0
 24 25  1  0  0  0
 25 26  2  0  0  0
 25  1  1  0  0  0
  1  2  1  0  0  0
  2  3  1  0  0  0
  3  4  1  0  0  0
  4  5  2  0  0  0
  4  6  1  0  0  0
  6  7  1  0  0  0
  7  8  1  0  0  0
  8  9  1  0  0  0
  9 10  1  0  0  0
 10 11  2  0  0  0
 10 12  1  0  0  0
 12 13  1  0  0  0
 13 14  1  0  0  0
 14 28  1  0  0  0
 28 29  2  0  0  0
 28 30  1  0  0  0
 14 15  1  0  0  0
 15 16  1  0  0  0
 16 32  1  0  0  0
 32 33  1  0  0  0
 33 34  1  0  0  0
 34 35  2  0  0  0
 35 36  1  0  0  0
 36 37  2  0  0  0
 37 38  1  0  0  0
 38 39  2  0  0  0
 16 17  1  0  0  0
 17 18  2  0  0  0
 17 19  1  0  0  0
 19  1  1  0  0  0
 39 34  1  0  0  0
 24 27  1  0  0  0
  9 20  1  0  0  0
 30 31  1  0  0  0
 15 21  1  0  0  0
 19 22  1  0  0  0
M  END
> <minimizedAffinity>
14.80839

> <CNNscore>
0.4785538316

> <CNNaffinity>
6.8205080032

> <CNN_VS>
3.2639801502

> <CNNaffinity_variance>
1.0675634146

$$$$
[H]c1nc2n(n1)C([H])(c1sc([H])c([H])c1[H])C([H])([H])C([H])(c1c([H])c([H])c(Cl)c(Cl)c1[H])N2[H]


 23 26  0  0  0  0  0  0  0  0999 V2000
   14.9496   24.6321   -0.3643 C   0  0  0  0  0  0  0  0  0  0  0  0
   14.9906   23.8082   -1.6042 C   0  0  0  0  0  0  0  0  0  0  0  0
   13.7563   23.9486   -2.4171 C   0  0  0  0  0  0  0  0  0  0  0  0
   12.5487   24.0637   -1.6626 N   0  0  0  0  0  0  0  0  0  0  0  0
   11.2917   24.0703   -2.0560 N   0  0  0  0  0  0  0  0  0  0  0  0
   10.4657   24.1978   -1.0099 C   0  0  0  0  0  0  0  0  0  0  0  0
   11.2686   24.2714    0.0658 N   0  0  0  0  0  0  0  0  0  0  0  0
   12.5557   24.1919   -0.3023 C   0  0  0  0  0  0  0  0  0  0  0  0
   13.7910   24.2163    0.4014 N   0  0  0  0  0  0  0  0  0  0  0  0
   13.7853   23.9409    1.3970 H   0  0  0  0  0  0  0  0  0  0  0  0
   19.9934   24.5554    2.8765 Cl  0  0  0  0  0  0  0  0  0  0  0  0
   18.5257   24.5597    1.9281 C   0  0  0  0  0  0  0  0  0  0  0  0
   18.1091   23.4030    1.3117 C   0  0  0  0  0  0  0  0  0  0  0  0
   16.9288   23.4361    0.5581 C   0  0  0  0  0  0  0  0  0  0  0  0
   16.1907   24.5795    0.4234 C   0  0  0  0  0  0  0  0  0  0  0  0
   16.6275   25.7254    1.0498 C   0  0  0  0  0  0  0  0  0  0  0  0
   17.8038   25.7281    1.8117 C   0  0  0  0  0  0  0  0  0  0  0  0
   18.3715   27.1768    2.6134 Cl  0  0  0  0  0  0  0  0  0  0  0  0
   13.8325   25.1069   -3.3832 C   0  0  0  0  0  0  0  0  0  0  0  0
   14.6929   25.2588   -4.4328 C   0  0  0  0  0  0  0  0  0  0  0  0
   14.5876   26.3733   -5.1654 C   0  0  0  0  0  0  0  0  0  0  0  0
   13.6206   27.2746   -4.8008 C   0  0  0  0  0  0  0  0  0  0  0  0
   12.8957   26.5315   -3.4491 S   0  0  0  0  0  0  0  0  0  0  0  0
 11 12  1  0  0  0
 12 13  2  0  0  0
 13 14  1  0  0  0
 14 15  2  0  0  0
 15  1  1  0  0  0
  1  2  1  0  0  0
  2  3  1  0  0  0
  3 19  1  0  0  0
 19 20  2  0  0  0
 20 21  1  0  0  0
 21 22  2  0  0  0
 22 23  1  0  0  0
  3  4  1  0  0  0
  4  5  1  0  0  0
  5  6  2  0  0  0
  6  7  1  0  0  0
  7  8  2  0  0  0
  8  9  1  0  0  0
 15 16  1  0  0  0
 16 17  2  0  0  0
 17 18  1  0  0  0
 17 12  1  0  0  0
  9  1  1  0  0  0
 23 19  1  0  0  0
  8  4  1  0  0  0
  9 10  1  0  0  0
M  END
> <minimizedAffinity>
13.70438

> <CNNscore>
0.5450302958

> <CNNaffinity>
6.9691972733

> <CNN_VS>
3.7984237671

> <CNNaffinity_variance>
0.7044309378

$$$$
[H]c1nc2n(n1)C([H])(c1sc([H])c([H])c1[H])C([H])([H])C([H])(c1c([H])c([H])c(Cl)c(Cl)c1[H])N2[H]


 23 26  0  0  0  0  0  0  0  0999 V2000
   13.6980   24.2360   -1.5055 C   0  0  0  0  0  0  0  0  0  0  0  0
   12.4792   23.5072   -1.9539 C   0  0  0  0  0  0  0  0  0  0  0  0
   11.9541   22.5893   -0.9118 C   0  0  0  0  0  0  0  0  0  0  0  0
   12.9531   21.9239   -0.1373 N   0  0  0  0  0  0  0  0  0  0  0  0
   12.8425   20.9659    0.7599 N   0  0  0  0  0  0  0  0  0  0  0  0
   14.0431   20.6284    1.2472 C   0  0  0  0  0  0  0  0  0  0  0  0
   14.9184   21.4249    0.6096 N   0  0  0  0  0  0  0  0  0  0  0  0
   14.2793   22.2333   -0.2487 C   0  0  0  0  0  0  0  0  0  0  0  0
   14.6975   23.2464   -1.1545 N   0  0  0  0  0  0  0  0  0  0  0  0
   15.6706   23.2141   -1.4995 H   0  0  0  0  0  0  0  0  0  0  0  0
   15.8554   28.2282   -5.4242 Cl  0  0  0  0  0  0  0  0  0  0  0  0
   15.2105   27.0644   -4.2914 C   0  0  0  0  0  0  0  0  0  0  0  0
   13.9247   26.6018   -4.4472 C   0  0  0  0  0  0  0  0  0  0  0  0
   13.4345   25.6693   -3.5241 C   0  0  0  0  0  0  0  0  0  0  0  0
   14.1971   25.2143   -2.4839 C   0  0  0  0  0  0  0  0  0  0  0  0
   15.4815   25.6918   -2.3483 C   0  0  0  0  0  0  0  0  0  0  0  0
   16.0042   26.6252   -3.2536 C   0  0  0  0  0  0  0  0  0  0  0  0
   17.6349   27.2410   -3.0939 Cl  0  0  0  0  0  0  0  0  0  0  0  0
   10.9941   23.2771    0.0296 C   0  0  0  0  0  0  0  0  0  0  0  0
    9.6653   23.0126    0.2016 C   0  0  0  0  0  0  0  0  0  0  0  0
    8.9962   23.7500    1.0951 C   0  0  0  0  0  0  0  0  0  0  0  0
    9.7024   24.7143    1.7673 C   0  0  0  0  0  0  0  0  0  0  0  0
   11.2734   24.5543    1.1259 S   0  0  0  0  0  0  0  0  0  0  0  0
 11 12  1  0  0  0
 12 13  2  0  0  0
 13 14  1  0  0  0
 14 15  2  0  0  0
 15  1  1  0  0  0
  1  2  1  0  0  0
  2  3  1  0  0  0
  3 19  1  0  0  0
 19 20  2  0  0  0
 20 21  1  0  0  0
 21 22  2  0  0  0
 22 23  1  0  0  0
  3  4  1  0  0  0
  4  5  1  0  0  0
  5  6  2  0  0  0
  6  7  1  0  0  0
  7  8  2  0  0  0
  8  9  1  0  0  0
 15 16  1  0  0  0
 16 17  2  0  0  0
 17 18  1  0  0  0
 17 12  1  0  0  0
  9  1  1  0  0  0
 23 19  1  0  0  0
  8  4  1  0  0  0
  9 10  1  0  0  0
M  END
> <minimizedAffinity>
-7.23404

> <CNNscore>
0.4638784826

> <CNNaffinity>
7.3027739525

> <CNN_VS>
3.3875997066

> <CNNaffinity_variance>
0.1523414850

$$$$
[H]c1nc2n(n1)C([H])(c1sc([H])c([H])c1[H])C([H])([H])C([H])(c1c([H])c([H])c(Cl)c(Cl)c1[H])N2[H]


 23 26  0  0  0  0  0  0  0  0999 V2000
   14.2560   25.4768   -2.9226 C   0  0  0  0  0  0  0  0  0  0  0  0
   15.6482   24.9777   -3.0975 C   0  0  0  0  0  0  0  0  0  0  0  0
   16.3813   25.7091   -4.1612 C   0  0  0  0  0  0  0  0  0  0  0  0
   15.5927   26.0705   -5.2961 N   0  0  0  0  0  0  0  0  0  0  0  0
   15.9460   26.5974   -6.4505 N   0  0  0  0  0  0  0  0  0  0  0  0
   14.8791   26.7749   -7.2398 C   0  0  0  0  0  0  0  0  0  0  0  0
   13.8324   26.3318   -6.5218 N   0  0  0  0  0  0  0  0  0  0  0  0
   14.2382   25.8921   -5.3217 C   0  0  0  0  0  0  0  0  0  0  0  0
   13.5750   25.3342   -4.1944 N   0  0  0  0  0  0  0  0  0  0  0  0
   12.6653   24.8704   -4.3499 H   0  0  0  0  0  0  0  0  0  0  0  0
   11.3713   22.7209    1.5531 Cl  0  0  0  0  0  0  0  0  0  0  0  0
   12.2010   23.5389    0.2508 C   0  0  0  0  0  0  0  0  0  0  0  0
   11.8043   24.8015   -0.1234 C   0  0  0  0  0  0  0  0  0  0  0  0
   12.4878   25.4329   -1.1705 C   0  0  0  0  0  0  0  0  0  0  0  0
   13.5280   24.8286   -1.8210 C   0  0  0  0  0  0  0  0  0  0  0  0
   13.9073   23.5643   -1.4288 C   0  0  0  0  0  0  0  0  0  0  0  0
   13.2458   22.9033   -0.3851 C   0  0  0  0  0  0  0  0  0  0  0  0
   13.7166   21.2962    0.1244 Cl  0  0  0  0  0  0  0  0  0  0  0  0
   17.0686   26.9481   -3.6383 C   0  0  0  0  0  0  0  0  0  0  0  0
   16.7716   27.6472   -2.5033 C   0  0  0  0  0  0  0  0  0  0  0  0
   17.5130   28.7260   -2.2270 C   0  0  0  0  0  0  0  0  0  0  0  0
   18.5138   29.0422   -3.1094 C   0  0  0  0  0  0  0  0  0  0  0  0
   18.3813   27.8210   -4.2910 S   0  0  0  0  0  0  0  0  0  0  0  0
 11 12  1  0  0  0
 12 13  2  0  0  0
 13 14  1  0  0  0
 14 15  2  0  0  0
 15  1  1  0  0  0
  1  2  1  0  0  0
  2  3  1  0  0  0
  3 19  1  0  0  0
 19 20  2  0  0  0
 20 21  1  0  0  0
 21 22  2  0  0  0
 22 23  1  0  0  0
  3  4  1  0  0  0
  4  5  1  0  0  0
  5  6  2  0  0  0
  6  7  1  0  0  0
  7  8  2  0  0  0
  8  9  1  0  0  0
 15 16  1  0  0  0
 16 17  2  0  0  0
 17 18  1  0  0  0
 17 12  1  0  0  0
  9  1  1  0  0  0
 23 19  1  0  0  0
  8  4  1  0  0  0
  9 10  1  0  0  0
M  END
> <minimizedAffinity>
4.13948

> <CNNscore>
0.4576138556

> <CNNaffinity>
6.9062447548

> <CNN_VS>
3.1603932381

> <CNNaffinity_variance>
0.7708538175

$$$$
[H]c1nc2n(n1)C([H])(c1sc([H])c([H])c1[H])C([H])([H])C([H])(c1c([H])c([H])c(Cl)c(Cl)c1[H])N2[H]


 23 26  0  0  0  0  0  0  0  0999 V2000
   12.6459   22.8850   -0.5838 C   0  0  0  0  0  0  0  0  0  0  0  0
   12.7316   21.4721   -1.0466 C   0  0  0  0  0  0  0  0  0  0  0  0
   11.8255   20.5731   -0.2885 C   0  0  0  0  0  0  0  0  0  0  0  0
   11.7047   20.8743    1.1027 N   0  0  0  0  0  0  0  0  0  0  0  0
   11.1025   20.2155    2.0714 N   0  0  0  0  0  0  0  0  0  0  0  0
   11.2359   20.8574    3.2388 C   0  0  0  0  0  0  0  0  0  0  0  0
   11.9549   21.9575    2.9557 N   0  0  0  0  0  0  0  0  0  0  0  0
   12.2589   21.9970    1.6501 C   0  0  0  0  0  0  0  0  0  0  0  0
   12.9785   22.9062    0.8271 N   0  0  0  0  0  0  0  0  0  0  0  0
   13.6810   23.5142    1.2786 H   0  0  0  0  0  0  0  0  0  0  0  0
   15.8892   26.7433   -3.8307 Cl  0  0  0  0  0  0  0  0  0  0  0  0
   14.9597   25.6110   -2.8781 C   0  0  0  0  0  0  0  0  0  0  0  0
   15.6084   24.6687   -2.1148 C   0  0  0  0  0  0  0  0  0  0  0  0
   14.8375   23.7742   -1.3614 C   0  0  0  0  0  0  0  0  0  0  0  0
   13.4705   23.8167   -1.3682 C   0  0  0  0  0  0  0  0  0  0  0  0
   12.8432   24.7690   -2.1401 C   0  0  0  0  0  0  0  0  0  0  0  0
   13.5833   25.6797   -2.9061 C   0  0  0  0  0  0  0  0  0  0  0  0
   12.7998   26.8954   -3.8921 Cl  0  0  0  0  0  0  0  0  0  0  0  0
   10.4414   20.5114   -0.8896 C   0  0  0  0  0  0  0  0  0  0  0  0
   10.0440   20.9753   -2.1110 C   0  0  0  0  0  0  0  0  0  0  0  0
    8.7585   20.8178   -2.4465 C   0  0  0  0  0  0  0  0  0  0  0  0
    7.9427   20.2012   -1.5330 C   0  0  0  0  0  0  0  0  0  0  0  0
    9.0018   19.8650   -0.2406 S   0  0  0  0  0  0  0  0  0  0  0  0
 11 12  1  0  0  0
 12 13  2  0  0  0
 13 14  1  0  0  0
 14 15  2  0  0  0
 15  1  1  0  0  0
  1  2  1  0  0  0
  2  3  1  0  0  0
  3 19  1  0  0  0
 19 20  2  0  0  0
 20 21  1  0  0  0
 21 22  2  0  0  0
 22 23  1  0  0  0
  3  4  1  0  0  0
  4  5  1  0  0  0
  5  6  2  0  0  0
  6  7  1  0  0  0
  7  8  2  0  0  0
  8  9  1  0  0  0
 15 16  1  0  0  0
 16 17  2  0  0  0
 17 18  1  0  0  0
 17 12  1  0  0  0
  9  1  1  0  0  0
 23 19  1  0  0  0
  8  4  1  0  0  0
  9 10  1  0  0  0
M  END
> <minimizedAffinity>
-6.17599

> <CNNscore>
0.4311221540

> <CNNaffinity>
6.8644037247

> <CNN_VS>
2.9593966007

> <CNNaffinity_variance>
0.3870772719

$$$$
[H]c1nc2n(n1)C([H])(c1sc([H])c([H])c1[H])C([H])([H])C([H])(c1c([H])c([H])c(Cl)c(Cl)c1[H])N2[H]


 23 26  0  0  0  0  0  0  0  0999 V2000
   13.5875   23.3034   -0.2968 C   0  0  0  0  0  0  0  0  0  0  0  0
   13.3996   22.9492   -1.7310 C   0  0  0  0  0  0  0  0  0  0  0  0
   12.2896   23.7084   -2.3600 C   0  0  0  0  0  0  0  0  0  0  0  0
   11.1602   23.9340   -1.5148 N   0  0  0  0  0  0  0  0  0  0  0  0
    9.9771   24.4454   -1.7865 N   0  0  0  0  0  0  0  0  0  0  0  0
    9.2072   24.4734   -0.6915 C   0  0  0  0  0  0  0  0  0  0  0  0
    9.9676   23.9521    0.2870 N   0  0  0  0  0  0  0  0  0  0  0  0
   11.1746   23.6105   -0.1874 C   0  0  0  0  0  0  0  0  0  0  0  0
   12.3393   23.0340    0.3895 N   0  0  0  0  0  0  0  0  0  0  0  0
   12.2248   22.4691    1.2467 H   0  0  0  0  0  0  0  0  0  0  0  0
   18.3211   20.6781    2.2818 Cl  0  0  0  0  0  0  0  0  0  0  0  0
   16.9326   21.4269    1.5300 C   0  0  0  0  0  0  0  0  0  0  0  0
   15.8321   20.6635    1.2178 C   0  0  0  0  0  0  0  0  0  0  0  0
   14.7337   21.2906    0.6159 C   0  0  0  0  0  0  0  0  0  0  0  0
   14.7317   22.6291    0.3352 C   0  0  0  0  0  0  0  0  0  0  0  0
   15.8449   23.3731    0.6570 C   0  0  0  0  0  0  0  0  0  0  0  0
   16.9613   22.7783    1.2600 C   0  0  0  0  0  0  0  0  0  0  0  0
   18.3833   23.7111    1.6745 Cl  0  0  0  0  0  0  0  0  0  0  0  0
   12.7449   25.0353   -2.9194 C   0  0  0  0  0  0  0  0  0  0  0  0
   13.8511   25.2806   -3.6818 C   0  0  0  0  0  0  0  0  0  0  0  0
   14.0685   26.5416   -4.0724 C   0  0  0  0  0  0  0  0  0  0  0  0
   13.1593   27.4874   -3.6737 C   0  0  0  0  0  0  0  0  0  0  0  0
   12.0357   26.5799   -2.7687 S   0  0  0  0  0  0  0  0  0  0  0  0
 11 12  1  0  0  0
 12 13  2  0  0  0
 13 14  1  0  0  0
 14 15  2  0  0  0
 15  1  1  0  0  0
  1  2  1  0  0  0
  2  3  1  0  0  0
  3 19  1  0  0  0
 19 20  2  0  0  0
 20 21  1  0  0  0
 21 22  2  0  0  0
 22 23  1  0  0  0
  3  4  1  0  0  0
  4  5  1  0  0  0
  5  6  2  0  0  0
  6  7  1  0  0  0
  7  8  2  0  0  0
  8  9  1  0  0  0
 15 16  1  0  0  0
 16 17  2  0  0  0
 17 18  1  0  0  0
 17 12  1  0  0  0
  9  1  1  0  0  0
 23 19  1  0  0  0
  8  4  1  0  0  0
  9 10  1  0  0  0
M  END
> <minimizedAffinity>
14.86275

> <CNNscore>
0.4274251461

> <CNNaffinity>
6.5202040672

> <CNN_VS>
2.7868990898

> <CNNaffinity_variance>
0.9469673038

$$$$
[H]c1nc2n(n1)C([H])(c1sc([H])c([H])c1[H])C([H])([H])C([H])(c1c([H])c([H])c(Cl)c(Cl)c1[H])N2[H]


 23 26  0  0  0  0  0  0  0  0999 V2000
   14.8553   24.5936   -1.8905 C   0  0  0  0  0  0  0  0  0  0  0  0
   14.2071   23.3997   -2.5007 C   0  0  0  0  0  0  0  0  0  0  0  0
   13.7252   22.4348   -1.4805 C   0  0  0  0  0  0  0  0  0  0  0  0
   14.5701   22.2961   -0.3370 N   0  0  0  0  0  0  0  0  0  0  0  0
   14.5124   21.4509    0.6716 N   0  0  0  0  0  0  0  0  0  0  0  0
   15.5128   21.6695    1.5343 C   0  0  0  0  0  0  0  0  0  0  0  0
   16.2059   22.6984    1.0164 N   0  0  0  0  0  0  0  0  0  0  0  0
   15.6514   23.1065   -0.1345 C   0  0  0  0  0  0  0  0  0  0  0  0
   15.9601   24.1258   -1.0766 N   0  0  0  0  0  0  0  0  0  0  0  0
   16.9354   24.4632   -1.1211 H   0  0  0  0  0  0  0  0  0  0  0  0
   16.4544   28.6791   -5.9770 Cl  0  0  0  0  0  0  0  0  0  0  0  0
   16.0012   27.4951   -4.7743 C   0  0  0  0  0  0  0  0  0  0  0  0
   16.6565   27.4661   -3.5655 C   0  0  0  0  0  0  0  0  0  0  0  0
   16.2719   26.5062   -2.6206 C   0  0  0  0  0  0  0  0  0  0  0  0
   15.2713   25.6081   -2.8708 C   0  0  0  0  0  0  0  0  0  0  0  0
   14.6295   25.6564   -4.0882 C   0  0  0  0  0  0  0  0  0  0  0  0
   14.9886   26.6036   -5.0566 C   0  0  0  0  0  0  0  0  0  0  0  0
   14.1820   26.6769   -6.6083 Cl  0  0  0  0  0  0  0  0  0  0  0  0
   12.3249   22.7476   -1.0092 C   0  0  0  0  0  0  0  0  0  0  0  0
   11.8662   23.9237   -0.4882 C   0  0  0  0  0  0  0  0  0  0  0  0
   10.5785   23.9838   -0.1305 C   0  0  0  0  0  0  0  0  0  0  0  0
    9.8223   22.8552   -0.3171 C   0  0  0  0  0  0  0  0  0  0  0  0
   10.9383   21.7536   -0.9849 S   0  0  0  0  0  0  0  0  0  0  0  0
 11 12  1  0  0  0
 12 13  2  0  0  0
 13 14  1  0  0  0
 14 15  2  0  0  0
 15  1  1  0  0  0
  1  2  1  0  0  0
  2  3  1  0  0  0
  3 19  1  0  0  0
 19 20  2  0  0  0
 20 21  1  0  0  0
 21 22  2  0  0  0
 22 23  1  0  0  0
  3  4  1  0  0  0
  4  5  1  0  0  0
  5  6  2  0  0  0
  6  7  1  0  0  0
  7  8  2  0  0  0
  8  9  1  0  0  0
 15 16  1  0  0  0
 16 17  2  0  0  0
 17 18  1  0  0  0
 17 12  1  0  0  0
  9  1  1  0  0  0
 23 19  1  0  0  0
  8  4  1  0  0  0
  9 10  1  0  0  0
M  END
> <minimizedAffinity>
-5.16036

> <CNNscore>
0.3960790932

> <CNNaffinity>
7.2323684692

> <CNN_VS>
2.8645899296

> <CNNaffinity_variance>
0.2059491873

$$$$
[H]c1nc2n(n1)C([H])(c1sc([H])c([H])c1[H])C([H])([H])C([H])(c1c([H])c([H])c(Cl)c(Cl)c1[H])N2[H]


 23 26  0  0  0  0  0  0  0  0999 V2000
   12.3068   23.6243   -0.5589 C   0  0  0  0  0  0  0  0  0  0  0  0
   10.9279   23.1281   -0.8240 C   0  0  0  0  0  0  0  0  0  0  0  0
   10.3456   22.4245    0.3464 C   0  0  0  0  0  0  0  0  0  0  0  0
   11.2703   21.6321    1.0933 N   0  0  0  0  0  0  0  0  0  0  0  0
   11.0687   20.7924    2.0879 N   0  0  0  0  0  0  0  0  0  0  0  0
   12.2240   20.2554    2.4998 C   0  0  0  0  0  0  0  0  0  0  0  0
   13.1667   20.8011    1.7118 N   0  0  0  0  0  0  0  0  0  0  0  0
   12.6121   21.6522    0.8362 C   0  0  0  0  0  0  0  0  0  0  0  0
   13.1234   22.4817   -0.1993 N   0  0  0  0  0  0  0  0  0  0  0  0
   14.0291   22.2225   -0.6231 H   0  0  0  0  0  0  0  0  0  0  0  0
   14.7489   26.6735   -5.1072 Cl  0  0  0  0  0  0  0  0  0  0  0  0
   14.0247   25.7984   -3.7792 C   0  0  0  0  0  0  0  0  0  0  0  0
   12.9520   26.3401   -3.1104 C   0  0  0  0  0  0  0  0  0  0  0  0
   12.3918   25.6162   -2.0501 C   0  0  0  0  0  0  0  0  0  0  0  0
   12.8824   24.3974   -1.6699 C   0  0  0  0  0  0  0  0  0  0  0  0
   13.9570   23.8752   -2.3545 C   0  0  0  0  0  0  0  0  0  0  0  0
   14.5420   24.5723   -3.4202 C   0  0  0  0  0  0  0  0  0  0  0  0
   15.9084   23.9213   -4.2995 Cl  0  0  0  0  0  0  0  0  0  0  0  0
    9.6447   23.3682    1.2946 C   0  0  0  0  0  0  0  0  0  0  0  0
   10.1965   24.3981    2.0016 C   0  0  0  0  0  0  0  0  0  0  0  0
    9.3869   25.1127    2.7914 C   0  0  0  0  0  0  0  0  0  0  0  0
    8.0647   24.7508    2.8261 C   0  0  0  0  0  0  0  0  0  0  0  0
    8.0027   23.4268    1.7546 S   0  0  0  0  0  0  0  0  0  0  0  0
 11 12  1  0  0  0
 12 13  2  0  0  0
 13 14  1  0  0  0
 14 15  2  0  0  0
 15  1  1  0  0  0
  1  2  1  0  0  0
  2  3  1  0  0  0
  3 19  1  0  0  0
 19 20  2  0  0  0
 20 21  1  0  0  0
 21 22  2  0  0  0
 22 23  1  0  0  0
  3  4  1  0  0  0
  4  5  1  0  0  0
  5  6  2  0  0  0
  6  7  1  0  0  0
  7  8  2  0  0  0
  8  9  1  0  0  0
 15 16  1  0  0  0
 16 17  2  0  0  0
 17 18  1  0  0  0
 17 12  1  0  0  0
  9  1  1  0  0  0
 23 19  1  0  0  0
  8  4  1  0  0  0
  9 10  1  0  0  0
M  END
> <minimizedAffinity>
-8.79936

> <CNNscore>
0.3900719285

> <CNNaffinity>
6.7599859238

> <CNN_VS>
2.6368806362

> <CNNaffinity_variance>
0.3002789915

$$$$
[H]c1nc2n(n1)C([H])(c1sc([H])c([H])c1[H])C([H])([H])C([H])(c1c([H])c([H])c(Cl)c(Cl)c1[H])N2[H]


 23 26  0  0  0  0  0  0  0  0999 V2000
   12.5518   23.0854   -0.4735 C   0  0  0  0  0  0  0  0  0  0  0  0
   11.1526   22.7060   -0.8141 C   0  0  0  0  0  0  0  0  0  0  0  0
   10.4192   22.1474    0.3496 C   0  0  0  0  0  0  0  0  0  0  0  0
   11.2027   21.3258    1.2167 N   0  0  0  0  0  0  0  0  0  0  0  0
   10.8460   20.5830    2.2443 N   0  0  0  0  0  0  0  0  0  0  0  0
   11.9084   19.9686    2.7798 C   0  0  0  0  0  0  0  0  0  0  0  0
   12.9557   20.3633    2.0350 N   0  0  0  0  0  0  0  0  0  0  0  0
   12.5547   21.1985    1.0654 C   0  0  0  0  0  0  0  0  0  0  0  0
   13.2206   21.8985    0.0222 N   0  0  0  0  0  0  0  0  0  0  0  0
   14.1236   21.5237   -0.3112 H   0  0  0  0  0  0  0  0  0  0  0  0
   15.4309   25.7687   -4.9966 Cl  0  0  0  0  0  0  0  0  0  0  0  0
   14.6044   24.9728   -3.6787 C   0  0  0  0  0  0  0  0  0  0  0  0
   15.0841   23.7779   -3.1956 C   0  0  0  0  0  0  0  0  0  0  0  0
   14.4011   23.1628   -2.1385 C   0  0  0  0  0  0  0  0  0  0  0  0
   13.2813   23.7178   -1.5832 C   0  0  0  0  0  0  0  0  0  0  0  0
   12.8197   24.9148   -2.0834 C   0  0  0  0  0  0  0  0  0  0  0  0
   13.4783   25.5577   -3.1402 C   0  0  0  0  0  0  0  0  0  0  0  0
   12.9032   27.0793   -3.7866 Cl  0  0  0  0  0  0  0  0  0  0  0  0
    9.7508   23.2198    1.1768 C   0  0  0  0  0  0  0  0  0  0  0  0
   10.3527   24.2286    1.8733 C   0  0  0  0  0  0  0  0  0  0  0  0
    9.5643   25.0749    2.5457 C   0  0  0  0  0  0  0  0  0  0  0  0
    8.2118   24.8589    2.4800 C   0  0  0  0  0  0  0  0  0  0  0  0
    8.0927   23.4825    1.4818 S   0  0  0  0  0  0  0  0  0  0  0  0
 11 12  1  0  0  0
 12 13  2  0  0  0
 13 14  1  0  0  0
 14 15  2  0  0  0
 15  1  1  0  0  0
  1  2  1  0  0  0
  2  3  1  0  0  0
  3 19  1  0  0  0
 19 20  2  0  0  0
 20 21  1  0  0  0
 21 22  2  0  0  0
 22 23  1  0  0  0
  3  4  1  0  0  0
  4  5  1  0  0  0
  5  6  2  0  0  0
  6  7  1  0  0  0
  7  8  2  0  0  0
  8  9  1  0  0  0
 15 16  1  0  0  0
 16 17  2  0  0  0
 17 18  1  0  0  0
 17 12  1  0  0  0
  9  1  1  0  0  0
 23 19  1  0  0  0
  8  4  1  0  0  0
  9 10  1  0  0  0
M  END
> <minimizedAffinity>
-8.32311

> <CNNscore>
0.3617635667

> <CNNaffinity>
6.7682037354

> <CNN_VS>
2.4484894276

> <CNNaffinity_variance>
0.2598292828

$$$$
[H]c1nc2n(n1)C([H])(c1sc([H])c([H])c1[H])C([H])([H])C([H])(c1c([H])c([H])c(Cl)c(Cl)c1[H])N2[H]


 23 26  0  0  0  0  0  0  0  0999 V2000
   13.4566   24.8798   -1.8225 C   0  0  0  0  0  0  0  0  0  0  0  0
   14.3270   24.3711   -2.9186 C   0  0  0  0  0  0  0  0  0  0  0  0
   14.6632   25.4249   -3.9087 C   0  0  0  0  0  0  0  0  0  0  0  0
   13.6078   26.3459   -4.1891 N   0  0  0  0  0  0  0  0  0  0  0  0
   13.5232   27.3007   -5.0925 N   0  0  0  0  0  0  0  0  0  0  0  0
   12.3447   27.9309   -5.0110 C   0  0  0  0  0  0  0  0  0  0  0  0
   11.6890   27.3228   -4.0072 N   0  0  0  0  0  0  0  0  0  0  0  0
   12.4392   26.3435   -3.4811 C   0  0  0  0  0  0  0  0  0  0  0  0
   12.2496   25.4065   -2.4285 N   0  0  0  0  0  0  0  0  0  0  0  0
   11.2803   25.1642   -2.1663 H   0  0  0  0  0  0  0  0  0  0  0  0
   12.1699   20.8751    2.4501 Cl  0  0  0  0  0  0  0  0  0  0  0  0
   12.5612   22.0337    1.2018 C   0  0  0  0  0  0  0  0  0  0  0  0
   13.7578   21.9351    0.5312 C   0  0  0  0  0  0  0  0  0  0  0  0
   14.0446   22.8777   -0.4645 C   0  0  0  0  0  0  0  0  0  0  0  0
   13.1713   23.8817   -0.7805 C   0  0  0  0  0  0  0  0  0  0  0  0
   11.9793   23.9602   -0.0955 C   0  0  0  0  0  0  0  0  0  0  0  0
   11.6600   23.0340    0.9065 C   0  0  0  0  0  0  0  0  0  0  0  0
   10.1489   23.1213    1.7856 Cl  0  0  0  0  0  0  0  0  0  0  0  0
   15.8946   26.2080   -3.5194 C   0  0  0  0  0  0  0  0  0  0  0  0
   16.5524   27.1463   -4.2624 C   0  0  0  0  0  0  0  0  0  0  0  0
   17.6324   27.7212   -3.7210 C   0  0  0  0  0  0  0  0  0  0  0  0
   17.9912   27.3195   -2.4600 C   0  0  0  0  0  0  0  0  0  0  0  0
   16.8069   26.1546   -2.0785 S   0  0  0  0  0  0  0  0  0  0  0  0
 11 12  1  0  0  0
 12 13  2  0  0  0
 13 14  1  0  0  0
 14 15  2  0  0  0
 15  1  1  0  0  0
  1  2  1  0  0  0
  2  3  1  0  0  0
  3 19  1  0  0  0
 19 20  2  0  0  0
 20 21  1  0  0  0
 21 22  2  0  0  0
 22 23  1  0  0  0
  3  4  1  0  0  0
  4  5  1  0  0  0
  5  6  2  0  0  0
  6  7  1  0  0  0
  7  8  2  0  0  0
  8  9  1  0  0  0
 15 16  1  0  0  0
 16 17  2  0  0  0
 17 18  1  0  0  0
 17 12  1  0  0  0
  9  1  1  0  0  0
 23 19  1  0  0  0
  8  4  1  0  0  0
  9 10  1  0  0  0
M  END
> <minimizedAffinity>
-0.58282

> <CNNscore>
0.3552223444

> <CNNaffinity>
6.7226767540

> <CNN_VS>
2.3880450726

> <CNNaffinity_variance>
0.4642001987

$$$$
[H]c1nc([H])c2c(c1[H])c1c([H])nc(N([H])c3nnc(N([H])C([H])([H])C4([H])C([H])([H])N([H])C4([H])[H])c([H])c3[H])nc1n2C1([H])C([H])([H])C([H])([H])C([H])([H])C1([H])[H]


 34 39  0  0  0  0  0  0  0  0999 V2000
   15.6239   26.1785   -7.5404 C   0  0  0  0  0  0  0  0  0  0  0  0
   14.7768   26.6490   -6.5531 C   0  0  0  0  0  0  0  0  0  0  0  0
   14.6377   25.9415   -5.3787 C   0  0  0  0  0  0  0  0  0  0  0  0
   13.8821   26.1805   -4.2652 C   0  0  0  0  0  0  0  0  0  0  0  0
   12.9915   27.1785   -3.8763 C   0  0  0  0  0  0  0  0  0  0  0  0
   12.4080   27.0950   -2.6706 N   0  0  0  0  0  0  0  0  0  0  0  0
   12.6338   26.0894   -1.7986 C   0  0  0  0  0  0  0  0  0  0  0  0
   13.4879   25.1151   -2.1491 N   0  0  0  0  0  0  0  0  0  0  0  0
   14.0958   25.1658   -3.3583 C   0  0  0  0  0  0  0  0  0  0  0  0
   14.9891   24.3115   -3.9378 N   0  0  0  0  0  0  0  0  0  0  0  0
   15.3208   24.7677   -5.1503 C   0  0  0  0  0  0  0  0  0  0  0  0
   16.1569   24.3276   -6.1562 C   0  0  0  0  0  0  0  0  0  0  0  0
   16.2800   25.0241   -7.2861 N   0  0  0  0  0  0  0  0  0  0  0  0
   15.5065   23.0984   -3.3468 C   0  0  0  0  0  0  0  0  0  0  0  0
   14.7474   21.8674   -3.7702 C   0  0  0  0  0  0  0  0  0  0  0  0
   14.7033   20.9520   -2.5797 C   0  0  0  0  0  0  0  0  0  0  0  0
   15.1773   21.7208   -1.3869 C   0  0  0  0  0  0  0  0  0  0  0  0
   15.5184   23.1173   -1.8512 C   0  0  0  0  0  0  0  0  0  0  0  0
   11.9650   26.0777   -0.5248 N   0  0  0  0  0  0  0  0  0  0  0  0
   11.5009   26.9524   -0.1976 H   0  0  0  0  0  0  0  0  0  0  0  0
   11.9238   24.9180    0.2841 C   0  0  0  0  0  0  0  0  0  0  0  0
   10.7905   24.4877    0.9353 C   0  0  0  0  0  0  0  0  0  0  0  0
   10.7845   23.3451    1.7214 C   0  0  0  0  0  0  0  0  0  0  0  0
   11.9447   22.6132    1.8596 C   0  0  0  0  0  0  0  0  0  0  0  0
   13.0352   23.0756    1.1999 N   0  0  0  0  0  0  0  0  0  0  0  0
   13.0234   24.1674    0.4542 N   0  0  0  0  0  0  0  0  0  0  0  0
   12.0103   21.4324    2.6495 N   0  0  0  0  0  0  0  0  0  0  0  0
   12.4998   21.4476    3.5548 H   0  0  0  0  0  0  0  0  0  0  0  0
   11.3907   20.2125    2.1833 C   0  0  0  0  0  0  0  0  0  0  0  0
   10.7785   19.4252    3.3214 C   0  0  0  0  0  0  0  0  0  0  0  0
   11.7066   19.3379    4.5125 C   0  0  0  0  0  0  0  0  0  0  0  0
   10.5779   19.6169    5.3975 N   0  0  0  0  0  0  0  0  0  0  0  0
    9.9177   20.2427    4.2512 C   0  0  0  0  0  0  0  0  0  0  0  0
   10.8295   20.3660    6.0933 H   0  0  0  0  0  0  0  0  0  0  0  0
  1  2  2  0  0  0
  2  3  1  0  0  0
  3  4  1  0  0  0
  4  5  2  0  0  0
  5  6  1  0  0  0
  6  7  2  0  0  0
  7 19  1  0  0  0
 19 21  1  0  0  0
 21 22  2  0  0  0
 22 23  1  0  0  0
 23 24  2  0  0  0
 24 27  1  0  0  0
 27 29  1  0  0  0
 29 30  1  0  0  0
 30 31  1  0  0  0
 31 32  1  0  0  0
 32 33  1  0  0  0
 24 25  1  0  0  0
 25 26  2  0  0  0
  7  8  1  0  0  0
  8  9  2  0  0  0
  9 10  1  0  0  0
 10 14  1  0  0  0
 14 15  1  0  0  0
 15 16  1  0  0  0
 16 17  1  0  0  0
 17 18  1  0  0  0
 10 11  1  0  0  0
 11 12  1  0  0  0
 12 13  2  0  0  0
 13  1  1  0  0  0
 11  3  2  0  0  0
  9  4  1  0  0  0
 18 14  1  0  0  0
 26 21  1  0  0  0
 33 30  1  0  0  0
 19 20  1  0  0  0
 27 28  1  0  0  0
 32 34  1  0  0  0
M  END
> <minimizedAffinity>
0.17242

> <CNNscore>
0.5394629240

> <CNNaffinity>
7.5935907364

> <CNN_VS>
4.0964608192

> <CNNaffinity_variance>
0.7506500483

$$$$
[H]c1nc([H])c2c(c1[H])c1c([H])nc(N([H])c3nnc(N([H])C([H])([H])C4([H])C([H])([H])N([H])C4([H])[H])c([H])c3[H])nc1n2C1([H])C([H])([H])C([H])([H])C([H])([H])C1([H])[H]


 34 39  0  0  0  0  0  0  0  0999 V2000
    9.8913   33.0684   -5.8047 C   0  0  0  0  0  0  0  0  0  0  0  0
   10.8733   32.2295   -5.3091 C   0  0  0  0  0  0  0  0  0  0  0  0
   10.5678   30.9173   -5.0195 C   0  0  0  0  0  0  0  0  0  0  0  0
   11.3363   29.8988   -4.5295 C   0  0  0  0  0  0  0  0  0  0  0  0
   12.6680   29.7699   -4.1418 C   0  0  0  0  0  0  0  0  0  0  0  0
   13.1020   28.5822   -3.6923 N   0  0  0  0  0  0  0  0  0  0  0  0
   12.3168   27.4887   -3.5910 C   0  0  0  0  0  0  0  0  0  0  0  0
   11.0295   27.5862   -3.9581 N   0  0  0  0  0  0  0  0  0  0  0  0
   10.5557   28.7693   -4.4169 C   0  0  0  0  0  0  0  0  0  0  0  0
    9.3072   29.1182   -4.8445 N   0  0  0  0  0  0  0  0  0  0  0  0
    9.3036   30.4050   -5.2085 C   0  0  0  0  0  0  0  0  0  0  0  0
    8.3488   31.2694   -5.7042 C   0  0  0  0  0  0  0  0  0  0  0  0
    8.6609   32.5359   -5.9791 N   0  0  0  0  0  0  0  0  0  0  0  0
    8.1568   28.2452   -4.9018 C   0  0  0  0  0  0  0  0  0  0  0  0
    7.6055   28.0892   -6.2955 C   0  0  0  0  0  0  0  0  0  0  0  0
    6.1116   27.9973   -6.1650 C   0  0  0  0  0  0  0  0  0  0  0  0
    5.7458   28.3671   -4.7622 C   0  0  0  0  0  0  0  0  0  0  0  0
    7.0264   28.6841   -4.0262 C   0  0  0  0  0  0  0  0  0  0  0  0
   12.8642   26.2529   -3.0980 N   0  0  0  0  0  0  0  0  0  0  0  0
   13.7440   25.8918   -3.5258 H   0  0  0  0  0  0  0  0  0  0  0  0
   12.2415   25.5254   -2.0568 C   0  0  0  0  0  0  0  0  0  0  0  0
   12.6305   25.6039   -0.7392 C   0  0  0  0  0  0  0  0  0  0  0  0
   11.9979   24.8763    0.2577 C   0  0  0  0  0  0  0  0  0  0  0  0
   10.9471   24.0474   -0.0732 C   0  0  0  0  0  0  0  0  0  0  0  0
   10.5997   24.0027   -1.3830 N   0  0  0  0  0  0  0  0  0  0  0  0
   11.2139   24.7034   -2.3210 N   0  0  0  0  0  0  0  0  0  0  0  0
   10.2535   23.2732    0.8974 N   0  0  0  0  0  0  0  0  0  0  0  0
   10.5058   22.2857    1.0413 H   0  0  0  0  0  0  0  0  0  0  0  0
    9.1961   23.8706    1.6812 C   0  0  0  0  0  0  0  0  0  0  0  0
    9.7112   24.4082    2.9987 C   0  0  0  0  0  0  0  0  0  0  0  0
    8.8929   25.5816    3.4896 C   0  0  0  0  0  0  0  0  0  0  0  0
    8.9101   25.0150    4.8364 N   0  0  0  0  0  0  0  0  0  0  0  0
    9.1538   23.7127    4.2150 C   0  0  0  0  0  0  0  0  0  0  0  0
    7.9422   25.0162    5.2508 H   0  0  0  0  0  0  0  0  0  0  0  0
  1  2  2  0  0  0
  2  3  1  0  0  0
  3  4  1  0  0  0
  4  5  2  0  0  0
  5  6  1  0  0  0
  6  7  2  0  0  0
  7 19  1  0  0  0
 19 21  1  0  0  0
 21 22  2  0  0  0
 22 23  1  0  0  0
 23 24  2  0  0  0
 24 27  1  0  0  0
 27 29  1  0  0  0
 29 30  1  0  0  0
 30 31  1  0  0  0
 31 32  1  0  0  0
 32 33  1  0  0  0
 24 25  1  0  0  0
 25 26  2  0  0  0
  7  8  1  0  0  0
  8  9  2  0  0  0
  9 10  1  0  0  0
 10 14  1  0  0  0
 14 15  1  0  0  0
 15 16  1  0  0  0
 16 17  1  0  0  0
 17 18  1  0  0  0
 10 11  1  0  0  0
 11 12  1  0  0  0
 12 13  2  0  0  0
 13  1  1  0  0  0
 11  3  2  0  0  0
  9  4  1  0  0  0
 18 14  1  0  0  0
 26 21  1  0  0  0
 33 30  1  0  0  0
 19 20  1  0  0  0
 27 28  1  0  0  0
 32 34  1  0  0  0
M  END
> <minimizedAffinity>
31.43268

> <CNNscore>
0.5191361904

> <CNNaffinity>
6.6873421669

> <CNN_VS>
3.4716413021

> <CNNaffinity_variance>
0.9210386276

$$$$
[H]c1nc([H])c2c(c1[H])c1c([H])nc(N([H])c3nnc(N([H])C([H])([H])C4([H])C([H])([H])N([H])C4([H])[H])c([H])c3[H])nc1n2C1([H])C([H])([H])C([H])([H])C([H])([H])C1([H])[H]


 34 39  0  0  0  0  0  0  0  0999 V2000
   16.9155   24.2091   -4.9086 C   0  0  0  0  0  0  0  0  0  0  0  0
   15.6073   24.6012   -4.6878 C   0  0  0  0  0  0  0  0  0  0  0  0
   15.0476   24.4395   -3.4390 C   0  0  0  0  0  0  0  0  0  0  0  0
   13.8014   24.7372   -2.9631 C   0  0  0  0  0  0  0  0  0  0  0  0
   12.6472   25.2944   -3.5087 C   0  0  0  0  0  0  0  0  0  0  0  0
   11.5671   25.4471   -2.7269 N   0  0  0  0  0  0  0  0  0  0  0  0
   11.5291   25.0890   -1.4258 C   0  0  0  0  0  0  0  0  0  0  0  0
   12.6283   24.5497   -0.8758 N   0  0  0  0  0  0  0  0  0  0  0  0
   13.7376   24.3802   -1.6341 C   0  0  0  0  0  0  0  0  0  0  0  0
   14.9598   23.8635   -1.3136 N   0  0  0  0  0  0  0  0  0  0  0  0
   15.7534   23.8945   -2.3896 C   0  0  0  0  0  0  0  0  0  0  0  0
   17.0553   23.5145   -2.6450 C   0  0  0  0  0  0  0  0  0  0  0  0
   17.5815   23.6779   -3.8588 N   0  0  0  0  0  0  0  0  0  0  0  0
   15.3521   23.3574   -0.0180 C   0  0  0  0  0  0  0  0  0  0  0  0
   16.7581   23.7428    0.3632 C   0  0  0  0  0  0  0  0  0  0  0  0
   17.3399   22.5795    1.1151 C   0  0  0  0  0  0  0  0  0  0  0  0
   16.4147   21.4148    0.9537 C   0  0  0  0  0  0  0  0  0  0  0  0
   15.2548   21.8695    0.0995 C   0  0  0  0  0  0  0  0  0  0  0  0
   10.3278   25.2882   -0.6595 N   0  0  0  0  0  0  0  0  0  0  0  0
    9.7642   26.1486   -0.8311 H   0  0  0  0  0  0  0  0  0  0  0  0
    9.8997   24.3522    0.3110 C   0  0  0  0  0  0  0  0  0  0  0  0
    9.5992   24.6911    1.6104 C   0  0  0  0  0  0  0  0  0  0  0  0
    9.1819   23.7477    2.5374 C   0  0  0  0  0  0  0  0  0  0  0  0
    9.0621   22.4290    2.1533 C   0  0  0  0  0  0  0  0  0  0  0  0
    9.3689   22.1430    0.8640 N   0  0  0  0  0  0  0  0  0  0  0  0
    9.7654   23.0552   -0.0071 N   0  0  0  0  0  0  0  0  0  0  0  0
    8.6399   21.4100    3.0511 N   0  0  0  0  0  0  0  0  0  0  0  0
    7.6360   21.2193    3.1747 H   0  0  0  0  0  0  0  0  0  0  0  0
    9.6176   20.6427    3.7892 C   0  0  0  0  0  0  0  0  0  0  0  0
   10.8619   20.3836    2.9679 C   0  0  0  0  0  0  0  0  0  0  0  0
   11.8665   21.5073    3.0932 C   0  0  0  0  0  0  0  0  0  0  0  0
   12.9361   20.5205    3.2247 N   0  0  0  0  0  0  0  0  0  0  0  0
   11.9172   19.5723    3.6764 C   0  0  0  0  0  0  0  0  0  0  0  0
   13.5610   20.7583    4.0380 H   0  0  0  0  0  0  0  0  0  0  0  0
  1  2  2  0  0  0
  2  3  1  0  0  0
  3  4  1  0  0  0
  4  5  2  0  0  0
  5  6  1  0  0  0
  6  7  2  0  0  0
  7 19  1  0  0  0
 19 21  1  0  0  0
 21 22  2  0  0  0
 22 23  1  0  0  0
 23 24  2  0  0  0
 24 27  1  0  0  0
 27 29  1  0  0  0
 29 30  1  0  0  0
 30 31  1  0  0  0
 31 32  1  0  0  0
 32 33  1  0  0  0
 24 25  1  0  0  0
 25 26  2  0  0  0
  7  8  1  0  0  0
  8  9  2  0  0  0
  9 10  1  0  0  0
 10 14  1  0  0  0
 14 15  1  0  0  0
 15 16  1  0  0  0
 16 17  1  0  0  0
 17 18  1  0  0  0
 10 11  1  0  0  0
 11 12  1  0  0  0
 12 13  2  0  0  0
 13  1  1  0  0  0
 11  3  2  0  0  0
  9  4  1  0  0  0
 18 14  1  0  0  0
 26 21  1  0  0  0
 33 30  1  0  0  0
 19 20  1  0  0  0
 27 28  1  0  0  0
 32 34  1  0  0  0
M  END
> <minimizedAffinity>
10.07759

> <CNNscore>
0.4766447544

> <CNNaffinity>
7.6014261246

> <CNN_VS>
3.6231799126

> <CNNaffinity_variance>
1.6410127878

$$$$
[H]c1nc([H])c2c(c1[H])c1c([H])nc(N([H])c3nnc(N([H])C([H])([H])C4([H])C([H])([H])N([H])C4([H])[H])c([H])c3[H])nc1n2C1([H])C([H])([H])C([H])([H])C([H])([H])C1([H])[H]


 34 39  0  0  0  0  0  0  0  0999 V2000
   15.2939   26.6169   -5.7725 C   0  0  0  0  0  0  0  0  0  0  0  0
   15.4738   25.3250   -5.3117 C   0  0  0  0  0  0  0  0  0  0  0  0
   14.7757   24.8914   -4.2054 C   0  0  0  0  0  0  0  0  0  0  0  0
   14.7687   23.6882   -3.5572 C   0  0  0  0  0  0  0  0  0  0  0  0
   15.4244   22.4719   -3.7336 C   0  0  0  0  0  0  0  0  0  0  0  0
   15.1704   21.4671   -2.8810 N   0  0  0  0  0  0  0  0  0  0  0  0
   14.3064   21.5631   -1.8481 C   0  0  0  0  0  0  0  0  0  0  0  0
   13.6615   22.7245   -1.6562 N   0  0  0  0  0  0  0  0  0  0  0  0
   13.8924   23.7611   -2.4968 C   0  0  0  0  0  0  0  0  0  0  0  0
   13.3708   25.0225   -2.5126 N   0  0  0  0  0  0  0  0  0  0  0  0
   13.8941   25.7091   -3.5340 C   0  0  0  0  0  0  0  0  0  0  0  0
   13.7391   26.9910   -4.0208 C   0  0  0  0  0  0  0  0  0  0  0  0
   14.4221   27.3946   -5.0921 N   0  0  0  0  0  0  0  0  0  0  0  0
   12.4025   25.5504   -1.5785 C   0  0  0  0  0  0  0  0  0  0  0  0
   12.9664   25.7471   -0.1949 C   0  0  0  0  0  0  0  0  0  0  0  0
   11.8687   25.4117    0.7744 C   0  0  0  0  0  0  0  0  0  0  0  0
   10.7588   24.7618    0.0100 C   0  0  0  0  0  0  0  0  0  0  0  0
   11.1783   24.7024   -1.4400 C   0  0  0  0  0  0  0  0  0  0  0  0
   14.0932   20.4350   -0.9810 N   0  0  0  0  0  0  0  0  0  0  0  0
   14.6381   19.5631   -1.1546 H   0  0  0  0  0  0  0  0  0  0  0  0
   13.1704   20.4829    0.0902 C   0  0  0  0  0  0  0  0  0  0  0  0
   11.8278   20.2177   -0.0534 C   0  0  0  0  0  0  0  0  0  0  0  0
   10.9496   20.2737    1.0186 C   0  0  0  0  0  0  0  0  0  0  0  0
   11.4285   20.6042    2.2686 C   0  0  0  0  0  0  0  0  0  0  0  0
   12.7573   20.8569    2.3612 N   0  0  0  0  0  0  0  0  0  0  0  0
   13.5807   20.7990    1.3284 N   0  0  0  0  0  0  0  0  0  0  0  0
   10.5851   20.6802    3.4112 N   0  0  0  0  0  0  0  0  0  0  0  0
   10.1619   19.8235    3.7939 H   0  0  0  0  0  0  0  0  0  0  0  0
   10.3221   21.9573    4.0350 C   0  0  0  0  0  0  0  0  0  0  0  0
    9.8892   22.9960    3.0233 C   0  0  0  0  0  0  0  0  0  0  0  0
    8.4250   22.8640    2.6681 C   0  0  0  0  0  0  0  0  0  0  0  0
    8.2846   24.3157    2.7572 N   0  0  0  0  0  0  0  0  0  0  0  0
    9.4626   24.3111    3.6254 C   0  0  0  0  0  0  0  0  0  0  0  0
    7.4411   24.5713    3.3330 H   0  0  0  0  0  0  0  0  0  0  0  0
  1  2  2  0  0  0
  2  3  1  0  0  0
  3  4  1  0  0  0
  4  5  2  0  0  0
  5  6  1  0  0  0
  6  7  2  0  0  0
  7 19  1  0  0  0
 19 21  1  0  0  0
 21 22  2  0  0  0
 22 23  1  0  0  0
 23 24  2  0  0  0
 24 27  1  0  0  0
 27 29  1  0  0  0
 29 30  1  0  0  0
 30 31  1  0  0  0
 31 32  1  0  0  0
 32 33  1  0  0  0
 24 25  1  0  0  0
 25 26  2  0  0  0
  7  8  1  0  0  0
  8  9  2  0  0  0
  9 10  1  0  0  0
 10 14  1  0  0  0
 14 15  1  0  0  0
 15 16  1  0  0  0
 16 17  1  0  0  0
 17 18  1  0  0  0
 10 11  1  0  0  0
 11 12  1  0  0  0
 12 13  2  0  0  0
 13  1  1  0  0  0
 11  3  2  0  0  0
  9  4  1  0  0  0
 18 14  1  0  0  0
 26 21  1  0  0  0
 33 30  1  0  0  0
 19 20  1  0  0  0
 27 28  1  0  0  0
 32 34  1  0  0  0
M  END
> <minimizedAffinity>
-7.54908

> <CNNscore>
0.4555952251

> <CNNaffinity>
7.4504661560

> <CNN_VS>
3.3943967819

> <CNNaffinity_variance>
0.0347170271

$$$$
[H]c1nc([H])c2c(c1[H])c1c([H])nc(N([H])c3nnc(N([H])C([H])([H])C4([H])C([H])([H])N([H])C4([H])[H])c([H])c3[H])nc1n2C1([H])C([H])([H])C([H])([H])C([H])([H])C1([H])[H]


 34 39  0  0  0  0  0  0  0  0999 V2000
   13.2831   27.7790   -4.7326 C   0  0  0  0  0  0  0  0  0  0  0  0
   12.7858   27.3264   -3.5236 C   0  0  0  0  0  0  0  0  0  0  0  0
   13.2167   26.1194   -3.0170 C   0  0  0  0  0  0  0  0  0  0  0  0
   12.8910   25.4550   -1.8679 C   0  0  0  0  0  0  0  0  0  0  0  0
   12.0394   25.7055   -0.7944 C   0  0  0  0  0  0  0  0  0  0  0  0
   11.9630   24.8056    0.1983 N   0  0  0  0  0  0  0  0  0  0  0  0
   12.6705   23.6559    0.2215 C   0  0  0  0  0  0  0  0  0  0  0  0
   13.4985   23.3907   -0.8011 N   0  0  0  0  0  0  0  0  0  0  0  0
   13.6018   24.2759   -1.8210 C   0  0  0  0  0  0  0  0  0  0  0  0
   14.3601   24.2364   -2.9554 N   0  0  0  0  0  0  0  0  0  0  0  0
   14.1365   25.3379   -3.6801 C   0  0  0  0  0  0  0  0  0  0  0  0
   14.6116   25.8197   -4.8829 C   0  0  0  0  0  0  0  0  0  0  0  0
   14.1844   26.9894   -5.3588 N   0  0  0  0  0  0  0  0  0  0  0  0
   15.2686   23.1768   -3.3304 C   0  0  0  0  0  0  0  0  0  0  0  0
   15.5567   23.1449   -4.8092 C   0  0  0  0  0  0  0  0  0  0  0  0
   15.6817   21.6989   -5.1973 C   0  0  0  0  0  0  0  0  0  0  0  0
   15.2070   20.8682   -4.0471 C   0  0  0  0  0  0  0  0  0  0  0  0
   14.7918   21.8129   -2.9438 C   0  0  0  0  0  0  0  0  0  0  0  0
   12.5280   22.7455    1.3264 N   0  0  0  0  0  0  0  0  0  0  0  0
   13.3632   22.2035    1.6363 H   0  0  0  0  0  0  0  0  0  0  0  0
   11.2930   22.5720    1.9939 C   0  0  0  0  0  0  0  0  0  0  0  0
   10.9162   21.3940    2.5971 C   0  0  0  0  0  0  0  0  0  0  0  0
    9.6968   21.2575    3.2437 C   0  0  0  0  0  0  0  0  0  0  0  0
    8.8309   22.3295    3.2878 C   0  0  0  0  0  0  0  0  0  0  0  0
    9.2451   23.4685    2.6801 N   0  0  0  0  0  0  0  0  0  0  0  0
   10.4115   23.5815    2.0678 N   0  0  0  0  0  0  0  0  0  0  0  0
    7.5656   22.2598    3.9332 N   0  0  0  0  0  0  0  0  0  0  0  0
    7.3309   21.4436    4.5148 H   0  0  0  0  0  0  0  0  0  0  0  0
    6.6100   23.3326    3.7740 C   0  0  0  0  0  0  0  0  0  0  0  0
    7.0612   24.5934    4.4787 C   0  0  0  0  0  0  0  0  0  0  0  0
    6.7769   25.8322    3.6590 C   0  0  0  0  0  0  0  0  0  0  0  0
    6.2947   26.5043    4.8635 N   0  0  0  0  0  0  0  0  0  0  0  0
    6.0415   25.1766    5.4243 C   0  0  0  0  0  0  0  0  0  0  0  0
    5.3712   26.9755    4.6798 H   0  0  0  0  0  0  0  0  0  0  0  0
  1  2  2  0  0  0
  2  3  1  0  0  0
  3  4  1  0  0  0
  4  5  2  0  0  0
  5  6  1  0  0  0
  6  7  2  0  0  0
  7 19  1  0  0  0
 19 21  1  0  0  0
 21 22  2  0  0  0
 22 23  1  0  0  0
 23 24  2  0  0  0
 24 27  1  0  0  0
 27 29  1  0  0  0
 29 30  1  0  0  0
 30 31  1  0  0  0
 31 32  1  0  0  0
 32 33  1  0  0  0
 24 25  1  0  0  0
 25 26  2  0  0  0
  7  8  1  0  0  0
  8  9  2  0  0  0
  9 10  1  0  0  0
 10 14  1  0  0  0
 14 15  1  0  0  0
 15 16  1  0  0  0
 16 17  1  0  0  0
 17 18  1  0  0  0
 10 11  1  0  0  0
 11 12  1  0  0  0
 12 13  2  0  0  0
 13  1  1  0  0  0
 11  3  2  0  0  0
  9  4  1  0  0  0
 18 14  1  0  0  0
 26 21  1  0  0  0
 33 30  1  0  0  0
 19 20  1  0  0  0
 27 28  1  0  0  0
 32 34  1  0  0  0
M  END
> <minimizedAffinity>
-1.31912

> <CNNscore>
0.4274777770

> <CNNaffinity>
7.1573462486

> <CNN_VS>
3.0596065521

> <CNNaffinity_variance>
1.2000230551

$$$$
[H]c1nc([H])c2c(c1[H])c1c([H])nc(N([H])c3nnc(N([H])C([H])([H])C4([H])C([H])([H])N([H])C4([H])[H])c([H])c3[H])nc1n2C1([H])C([H])([H])C([H])([H])C([H])([H])C1([H])[H]


 34 39  0  0  0  0  0  0  0  0999 V2000
   11.8433   32.3173   -3.9553 C   0  0  0  0  0  0  0  0  0  0  0  0
   12.3887   31.1503   -3.4510 C   0  0  0  0  0  0  0  0  0  0  0  0
   11.8564   29.9334   -3.8184 C   0  0  0  0  0  0  0  0  0  0  0  0
   12.1997   28.6566   -3.4721 C   0  0  0  0  0  0  0  0  0  0  0  0
   13.1720   28.0871   -2.6531 C   0  0  0  0  0  0  0  0  0  0  0  0
   13.2247   26.7509   -2.5395 N   0  0  0  0  0  0  0  0  0  0  0  0
   12.3818   25.9123   -3.1789 C   0  0  0  0  0  0  0  0  0  0  0  0
   11.4357   26.4357   -3.9743 N   0  0  0  0  0  0  0  0  0  0  0  0
   11.3521   27.7803   -4.1135 C   0  0  0  0  0  0  0  0  0  0  0  0
   10.4931   28.5433   -4.8507 N   0  0  0  0  0  0  0  0  0  0  0  0
   10.7871   29.8368   -4.6807 C   0  0  0  0  0  0  0  0  0  0  0  0
   10.2680   31.0204   -5.1646 C   0  0  0  0  0  0  0  0  0  0  0  0
   10.7948   32.1892   -4.7992 N   0  0  0  0  0  0  0  0  0  0  0  0
    9.4263   28.0468   -5.6898 C   0  0  0  0  0  0  0  0  0  0  0  0
    8.4564   29.1222   -6.1063 C   0  0  0  0  0  0  0  0  0  0  0  0
    7.0930   28.4917   -6.1347 C   0  0  0  0  0  0  0  0  0  0  0  0
    7.1910   27.1475   -5.4849 C   0  0  0  0  0  0  0  0  0  0  0  0
    8.6270   26.9513   -5.0589 C   0  0  0  0  0  0  0  0  0  0  0  0
   12.5088   24.4903   -3.0005 N   0  0  0  0  0  0  0  0  0  0  0  0
   12.8981   23.9226   -3.7838 H   0  0  0  0  0  0  0  0  0  0  0  0
   12.1211   23.8530   -1.7986 C   0  0  0  0  0  0  0  0  0  0  0  0
   10.9961   23.0687   -1.6850 C   0  0  0  0  0  0  0  0  0  0  0  0
   10.6446   22.4578   -0.4906 C   0  0  0  0  0  0  0  0  0  0  0  0
   11.4408   22.6369    0.6207 C   0  0  0  0  0  0  0  0  0  0  0  0
   12.5379   23.4172    0.4608 N   0  0  0  0  0  0  0  0  0  0  0  0
   12.8585   23.9924   -0.6858 N   0  0  0  0  0  0  0  0  0  0  0  0
   11.1404   22.0406    1.8764 N   0  0  0  0  0  0  0  0  0  0  0  0
   11.4419   21.0759    2.0712 H   0  0  0  0  0  0  0  0  0  0  0  0
   10.4133   22.7868    2.8783 C   0  0  0  0  0  0  0  0  0  0  0  0
    9.5920   23.8984    2.2621 C   0  0  0  0  0  0  0  0  0  0  0  0
    8.1338   23.5188    2.1315 C   0  0  0  0  0  0  0  0  0  0  0  0
    7.7574   24.8427    2.6220 N   0  0  0  0  0  0  0  0  0  0  0  0
    9.0766   24.9131    3.2514 C   0  0  0  0  0  0  0  0  0  0  0  0
    7.0267   24.7641    3.3760 H   0  0  0  0  0  0  0  0  0  0  0  0
  1  2  2  0  0  0
  2  3  1  0  0  0
  3  4  1  0  0  0
  4  5  2  0  0  0
  5  6  1  0  0  0
  6  7  2  0  0  0
  7 19  1  0  0  0
 19 21  1  0  0  0
 21 22  2  0  0  0
 22 23  1  0  0  0
 23 24  2  0  0  0
 24 27  1  0  0  0
 27 29  1  0  0  0
 29 30  1  0  0  0
 30 31  1  0  0  0
 31 32  1  0  0  0
 32 33  1  0  0  0
 24 25  1  0  0  0
 25 26  2  0  0  0
  7  8  1  0  0  0
  8  9  2  0  0  0
  9 10  1  0  0  0
 10 14  1  0  0  0
 14 15  1  0  0  0
 15 16  1  0  0  0
 16 17  1  0  0  0
 17 18  1  0  0  0
 10 11  1  0  0  0
 11 12  1  0  0  0
 12 13  2  0  0  0
 13  1  1  0  0  0
 11  3  2  0  0  0
  9  4  1  0  0  0
 18 14  1  0  0  0
 26 21  1  0  0  0
 33 30  1  0  0  0
 19 20  1  0  0  0
 27 28  1  0  0  0
 32 34  1  0  0  0
M  END
> <minimizedAffinity>
33.02541

> <CNNscore>
0.4252941906

> <CNNaffinity>
6.5546674728

> <CNN_VS>
2.7876620293

> <CNNaffinity_variance>
0.9281753302

$$$$
[H]c1nc([H])c2c(c1[H])c1c([H])nc(N([H])c3nnc(N([H])C([H])([H])C4([H])C([H])([H])N([H])C4([H])[H])c([H])c3[H])nc1n2C1([H])C([H])([H])C([H])([H])C([H])([H])C1([H])[H]


 34 39  0  0  0  0  0  0  0  0999 V2000
   17.7653   24.2675   -2.2886 C   0  0  0  0  0  0  0  0  0  0  0  0
   17.3402   23.3460   -1.3485 C   0  0  0  0  0  0  0  0  0  0  0  0
   15.9955   23.2211   -1.0743 C   0  0  0  0  0  0  0  0  0  0  0  0
   15.3229   22.4053   -0.2082 C   0  0  0  0  0  0  0  0  0  0  0  0
   15.6936   21.4194    0.7034 C   0  0  0  0  0  0  0  0  0  0  0  0
   14.7388   20.7985    1.4132 N   0  0  0  0  0  0  0  0  0  0  0  0
   13.4222   21.0739    1.2969 C   0  0  0  0  0  0  0  0  0  0  0  0
   13.0385   22.0198    0.4253 N   0  0  0  0  0  0  0  0  0  0  0  0
   13.9743   22.6679   -0.3086 C   0  0  0  0  0  0  0  0  0  0  0  0
   13.8410   23.6519   -1.2453 N   0  0  0  0  0  0  0  0  0  0  0  0
   15.0478   23.9911   -1.7112 C   0  0  0  0  0  0  0  0  0  0  0  0
   15.5068   24.8998   -2.6428 C   0  0  0  0  0  0  0  0  0  0  0  0
   16.8111   25.0079   -2.8962 N   0  0  0  0  0  0  0  0  0  0  0  0
   12.5967   24.2460   -1.6783 C   0  0  0  0  0  0  0  0  0  0  0  0
   12.5774   24.5632   -3.1514 C   0  0  0  0  0  0  0  0  0  0  0  0
   11.8037   25.8410   -3.3115 C   0  0  0  0  0  0  0  0  0  0  0  0
   11.5984   26.4314   -1.9522 C   0  0  0  0  0  0  0  0  0  0  0  0
   12.2480   25.5055   -0.9508 C   0  0  0  0  0  0  0  0  0  0  0  0
   12.4641   20.3592    2.0977 N   0  0  0  0  0  0  0  0  0  0  0  0
   12.8101   19.6224    2.7493 H   0  0  0  0  0  0  0  0  0  0  0  0
   11.0781   20.6319    2.0208 C   0  0  0  0  0  0  0  0  0  0  0  0
   10.4087   21.4186    2.9298 C   0  0  0  0  0  0  0  0  0  0  0  0
    9.0480   21.6660    2.8251 C   0  0  0  0  0  0  0  0  0  0  0  0
    8.3380   21.1105    1.7819 C   0  0  0  0  0  0  0  0  0  0  0  0
    9.0397   20.3431    0.9118 N   0  0  0  0  0  0  0  0  0  0  0  0
   10.3374   20.1176    1.0266 N   0  0  0  0  0  0  0  0  0  0  0  0
    6.9418   21.3222    1.6135 N   0  0  0  0  0  0  0  0  0  0  0  0
    6.4241   21.8944    2.2947 H   0  0  0  0  0  0  0  0  0  0  0  0
    6.2497   20.7357    0.4882 C   0  0  0  0  0  0  0  0  0  0  0  0
    7.0115   20.9362   -0.8039 C   0  0  0  0  0  0  0  0  0  0  0  0
    8.1909   21.8662   -0.6267 C   0  0  0  0  0  0  0  0  0  0  0  0
    9.0107   20.9604   -1.4283 N   0  0  0  0  0  0  0  0  0  0  0  0
    8.0718   19.8971   -1.0687 C   0  0  0  0  0  0  0  0  0  0  0  0
    9.9309   20.7744   -0.9518 H   0  0  0  0  0  0  0  0  0  0  0  0
  1  2  2  0  0  0
  2  3  1  0  0  0
  3  4  1  0  0  0
  4  5  2  0  0  0
  5  6  1  0  0  0
  6  7  2  0  0  0
  7 19  1  0  0  0
 19 21  1  0  0  0
 21 22  2  0  0  0
 22 23  1  0  0  0
 23 24  2  0  0  0
 24 27  1  0  0  0
 27 29  1  0  0  0
 29 30  1  0  0  0
 30 31  1  0  0  0
 31 32  1  0  0  0
 32 33  1  0  0  0
 24 25  1  0  0  0
 25 26  2  0  0  0
  7  8  1  0  0  0
  8  9  2  0  0  0
  9 10  1  0  0  0
 10 14  1  0  0  0
 14 15  1  0  0  0
 15 16  1  0  0  0
 16 17  1  0  0  0
 17 18  1  0  0  0
 10 11  1  0  0  0
 11 12  1  0  0  0
 12 13  2  0  0  0
 13  1  1  0  0  0
 11  3  2  0  0  0
  9  4  1  0  0  0
 18 14  1  0  0  0
 26 21  1  0  0  0
 33 30  1  0  0  0
 19 20  1  0  0  0
 27 28  1  0  0  0
 32 34  1  0  0  0
M  END
> <minimizedAffinity>
8.86538

> <CNNscore>
0.4017832875

> <CNNaffinity>
7.3137755394

> <CNN_VS>
2.9385528564

> <CNNaffinity_variance>
1.1429519653

$$$$
[H]c1nc([H])c2c(c1[H])c1c([H])nc(N([H])c3nnc(N([H])C([H])([H])C4([H])C([H])([H])N([H])C4([H])[H])c([H])c3[H])nc1n2C1([H])C([H])([H])C([H])([H])C([H])([H])C1([H])[H]


 34 39  0  0  0  0  0  0  0  0999 V2000
   13.1514   32.2388   -4.2135 C   0  0  0  0  0  0  0  0  0  0  0  0
   13.3078   30.9233   -3.8152 C   0  0  0  0  0  0  0  0  0  0  0  0
   12.2789   30.0260   -4.0037 C   0  0  0  0  0  0  0  0  0  0  0  0
   12.1756   28.6959   -3.7068 C   0  0  0  0  0  0  0  0  0  0  0  0
   13.0162   27.7496   -3.1251 C   0  0  0  0  0  0  0  0  0  0  0  0
   12.5763   26.4898   -2.9826 N   0  0  0  0  0  0  0  0  0  0  0  0
   11.3519   26.0765   -3.3736 C   0  0  0  0  0  0  0  0  0  0  0  0
   10.5226   26.9688   -3.9370 N   0  0  0  0  0  0  0  0  0  0  0  0
   10.9321   28.2499   -4.0973 C   0  0  0  0  0  0  0  0  0  0  0  0
   10.2862   29.3264   -4.6331 N   0  0  0  0  0  0  0  0  0  0  0  0
   11.0855   30.3974   -4.5819 C   0  0  0  0  0  0  0  0  0  0  0  0
   10.9639   31.7169   -4.9673 C   0  0  0  0  0  0  0  0  0  0  0  0
   11.9689   32.5720   -4.7777 N   0  0  0  0  0  0  0  0  0  0  0  0
    8.9468   29.3264   -5.1760 C   0  0  0  0  0  0  0  0  0  0  0  0
    7.8913   29.6083   -4.1381 C   0  0  0  0  0  0  0  0  0  0  0  0
    6.6973   28.7678   -4.4919 C   0  0  0  0  0  0  0  0  0  0  0  0
    7.1130   27.7951   -5.5500 C   0  0  0  0  0  0  0  0  0  0  0  0
    8.5724   28.0446   -5.8498 C   0  0  0  0  0  0  0  0  0  0  0  0
   10.9605   24.7053   -3.1830 N   0  0  0  0  0  0  0  0  0  0  0  0
   10.5416   24.1902   -3.9872 H   0  0  0  0  0  0  0  0  0  0  0  0
   11.1297   24.0481   -1.9418 C   0  0  0  0  0  0  0  0  0  0  0  0
   11.5754   24.6803   -0.8037 C   0  0  0  0  0  0  0  0  0  0  0  0
   11.7304   24.0058    0.3981 C   0  0  0  0  0  0  0  0  0  0  0  0
   11.4311   22.6615    0.4626 C   0  0  0  0  0  0  0  0  0  0  0  0
   10.9958   22.0818   -0.6832 N   0  0  0  0  0  0  0  0  0  0  0  0
   10.8537   22.7402   -1.8209 N   0  0  0  0  0  0  0  0  0  0  0  0
   11.5667   21.9081    1.6612 N   0  0  0  0  0  0  0  0  0  0  0  0
   10.8829   22.0267    2.4214 H   0  0  0  0  0  0  0  0  0  0  0  0
   12.6619   20.9772    1.8129 C   0  0  0  0  0  0  0  0  0  0  0  0
   13.6970   21.1480    0.7224 C   0  0  0  0  0  0  0  0  0  0  0  0
   14.8951   21.9388    1.1985 C   0  0  0  0  0  0  0  0  0  0  0  0
   15.7762   20.9843    0.5294 N   0  0  0  0  0  0  0  0  0  0  0  0
   14.6850   20.0135    0.6190 C   0  0  0  0  0  0  0  0  0  0  0  0
   16.5517   20.6818    1.1741 H   0  0  0  0  0  0  0  0  0  0  0  0
  1  2  2  0  0  0
  2  3  1  0  0  0
  3  4  1  0  0  0
  4  5  2  0  0  0
  5  6  1  0  0  0
  6  7  2  0  0  0
  7 19  1  0  0  0
 19 21  1  0  0  0
 21 22  2  0  0  0
 22 23  1  0  0  0
 23 24  2  0  0  0
 24 27  1  0  0  0
 27 29  1  0  0  0
 29 30  1  0  0  0
 30 31  1  0  0  0
 31 32  1  0  0  0
 32 33  1  0  0  0
 24 25  1  0  0  0
 25 26  2  0  0  0
  7  8  1  0  0  0
  8  9  2  0  0  0
  9 10  1  0  0  0
 10 14  1  0  0  0
 14 15  1  0  0  0
 15 16  1  0  0  0
 16 17  1  0  0  0
 17 18  1  0  0  0
 10 11  1  0  0  0
 11 12  1  0  0  0
 12 13  2  0  0  0
 13  1  1  0  0  0
 11  3  2  0  0  0
  9  4  1  0  0  0
 18 14  1  0  0  0
 26 21  1  0  0  0
 33 30  1  0  0  0
 19 20  1  0  0  0
 27 28  1  0  0  0
 32 34  1  0  0  0
M  END
> <minimizedAffinity>
38.21381

> <CNNscore>
0.3933736980

> <CNNaffinity>
6.5465607643

> <CNN_VS>
2.5752449036

> <CNNaffinity_variance>
0.8259111643

$$$$
[H]c1nc([H])c2c(c1[H])c1c([H])nc(N([H])c3nnc(N([H])C([H])([H])C4([H])C([H])([H])N([H])C4([H])[H])c([H])c3[H])nc1n2C1([H])C([H])([H])C([H])([H])C([H])([H])C1([H])[H]


 34 39  0  0  0  0  0  0  0  0999 V2000
   18.2238   25.8514   -1.3164 C   0  0  0  0  0  0  0  0  0  0  0  0
   17.4341   24.9290   -0.6537 C   0  0  0  0  0  0  0  0  0  0  0  0
   16.1543   24.6799   -1.1001 C   0  0  0  0  0  0  0  0  0  0  0  0
   15.1853   23.8348   -0.6368 C   0  0  0  0  0  0  0  0  0  0  0  0
   15.0925   22.9276    0.4162 C   0  0  0  0  0  0  0  0  0  0  0  0
   13.9513   22.2416    0.5843 N   0  0  0  0  0  0  0  0  0  0  0  0
   12.8721   22.3781   -0.2152 C   0  0  0  0  0  0  0  0  0  0  0  0
   12.9356   23.2458   -1.2372 N   0  0  0  0  0  0  0  0  0  0  0  0
   14.0713   23.9560   -1.4381 C   0  0  0  0  0  0  0  0  0  0  0  0
   14.3794   24.8843   -2.3904 N   0  0  0  0  0  0  0  0  0  0  0  0
   15.6271   25.3250   -2.1967 C   0  0  0  0  0  0  0  0  0  0  0  0
   16.4422   26.2385   -2.8337 C   0  0  0  0  0  0  0  0  0  0  0  0
   17.6778   26.4676   -2.3888 N   0  0  0  0  0  0  0  0  0  0  0  0
   13.5052   25.3326   -3.4503 C   0  0  0  0  0  0  0  0  0  0  0  0
   14.2431   25.6589   -4.7231 C   0  0  0  0  0  0  0  0  0  0  0  0
   13.5469   26.8388   -5.3397 C   0  0  0  0  0  0  0  0  0  0  0  0
   12.5870   27.3884   -4.3322 C   0  0  0  0  0  0  0  0  0  0  0  0
   12.6931   26.5357   -3.0897 C   0  0  0  0  0  0  0  0  0  0  0  0
   11.6870   21.6022    0.0370 N   0  0  0  0  0  0  0  0  0  0  0  0
   11.2950   21.0251   -0.7381 H   0  0  0  0  0  0  0  0  0  0  0  0
   11.0494   21.6054    1.2998 C   0  0  0  0  0  0  0  0  0  0  0  0
   10.6499   22.7536    1.9444 C   0  0  0  0  0  0  0  0  0  0  0  0
   10.0269   22.7213    3.1830 C   0  0  0  0  0  0  0  0  0  0  0  0
    9.7976   21.5065    3.7932 C   0  0  0  0  0  0  0  0  0  0  0  0
   10.2083   20.4033    3.1206 N   0  0  0  0  0  0  0  0  0  0  0  0
   10.8011   20.4521    1.9398 N   0  0  0  0  0  0  0  0  0  0  0  0
    9.1641   21.3995    5.0620 N   0  0  0  0  0  0  0  0  0  0  0  0
    9.5243   21.9379    5.8620 H   0  0  0  0  0  0  0  0  0  0  0  0
    8.0164   20.5370    5.2294 C   0  0  0  0  0  0  0  0  0  0  0  0
    6.7174   21.2930    5.0531 C   0  0  0  0  0  0  0  0  0  0  0  0
    6.8577   22.7526    5.4236 C   0  0  0  0  0  0  0  0  0  0  0  0
    6.0926   23.1162    4.2329 N   0  0  0  0  0  0  0  0  0  0  0  0
    6.4941   21.8301    3.6618 C   0  0  0  0  0  0  0  0  0  0  0  0
    6.5762   23.8871    3.7034 H   0  0  0  0  0  0  0  0  0  0  0  0
  1  2  2  0  0  0
  2  3  1  0  0  0
  3  4  1  0  0  0
  4  5  2  0  0  0
  5  6  1  0  0  0
  6  7  2  0  0  0
  7 19  1  0  0  0
 19 21  1  0  0  0
 21 22  2  0  0  0
 22 23  1  0  0  0
 23 24  2  0  0  0
 24 27  1  0  0  0
 27 29  1  0  0  0
 29 30  1  0  0  0
 30 31  1  0  0  0
 31 32  1  0  0  0
 32 33  1  0  0  0
 24 25  1  0  0  0
 25 26  2  0  0  0
  7  8  1  0  0  0
  8  9  2  0  0  0
  9 10  1  0  0  0
 10 14  1  0  0  0
 14 15  1  0  0  0
 15 16  1  0  0  0
 16 17  1  0  0  0
 17 18  1  0  0  0
 10 11  1  0  0  0
 11 12  1  0  0  0
 12 13  2  0  0  0
 13  1  1  0  0  0
 11  3  2  0  0  0
  9  4  1  0  0  0
 18 14  1  0  0  0
 26 21  1  0  0  0
 33 30  1  0  0  0
 19 20  1  0  0  0
 27 28  1  0  0  0
 32 34  1  0  0  0
M  END
> <minimizedAffinity>
-1.98679

> <CNNscore>
0.3500753045

> <CNNaffinity>
7.0242643356

> <CNN_VS>
2.4590215683

> <CNNaffinity_variance>
1.1035206318

$$$$
[H]Oc1c([H])c([H])c(C([H])([H])[C@@]2([H])C(=O)N(C([H])([H])c3c([H])c([H])c([H])c4c(C(=O)N([H])c5c([H])nc(N6C([H])([H])C([H])([H])C([H])(N7C([H])([H])C([H])([H])C7([H])[H])C([H])([H])C6([H])[H])c([H])c5[H])c([H])n(C([H])([H])[H])c34)C([H])([H])[C@]3([H])N(C(=O)N([H])C([H])([H])c4c([H])c([H])c([H])c([H])c4[H])N(C([H])([H])C([H])=C([H])[H])C([H])([H])C(=O)N23)c([H])c1[H]


 66 74  0  0  0  0  0  0  0  0999 V2000
   17.1387   27.5462   -2.6170 N   0  0  0  0  0  0  0  0  0  0  0  0
   16.3243   28.7426   -2.7324 C   0  0  0  0  0  0  0  0  0  0  0  0
   15.6182   28.5239   -4.0599 C   0  0  0  0  0  0  0  0  0  0  0  0
   15.6791   29.4491   -4.8897 O   0  0  0  0  0  0  0  0  0  0  0  0
   14.9437   27.3234   -4.2820 N   0  0  0  0  0  0  0  0  0  0  0  0
   13.8558   27.2559   -5.2155 C   0  0  0  0  0  0  0  0  0  0  0  0
   12.6530   27.1726   -4.3053 C   0  0  0  0  0  0  0  0  0  0  0  0
   11.6422   27.8141   -4.5353 O   0  0  0  0  0  0  0  0  0  0  0  0
   12.7527   26.3229   -3.1859 N   0  0  0  0  0  0  0  0  0  0  0  0
   14.0061   25.6045   -2.8496 C   0  0  0  0  0  0  0  0  0  0  0  0
   15.2302   26.1407   -3.5141 C   0  0  0  0  0  0  0  0  0  0  0  0
   16.3922   26.3490   -2.6808 N   0  0  0  0  0  0  0  0  0  0  0  0
   16.8999   25.3018   -1.8509 C   0  0  0  0  0  0  0  0  0  0  0  0
   17.8929   25.5938   -1.1029 O   0  0  0  0  0  0  0  0  0  0  0  0
   16.4351   23.9838   -1.7640 N   0  0  0  0  0  0  0  0  0  0  0  0
   15.6512   23.6597   -2.3309 H   0  0  0  0  0  0  0  0  0  0  0  0
   18.0944   27.6641   -3.7080 C   0  0  0  0  0  0  0  0  0  0  0  0
   20.4849   27.7081   -4.1273 C   0  0  0  0  0  0  0  0  0  0  0  0
   19.4756   27.7573   -3.3000 C   0  0  0  0  0  0  0  0  0  0  0  0
   13.8425   26.1867   -6.2241 C   0  0  0  0  0  0  0  0  0  0  0  0
   14.9722   26.0467   -7.1463 C   0  0  0  0  0  0  0  0  0  0  0  0
   15.0875   24.9159   -7.9569 C   0  0  0  0  0  0  0  0  0  0  0  0
   16.1813   24.7458   -8.7784 C   0  0  0  0  0  0  0  0  0  0  0  0
   17.2102   25.6638   -8.8469 C   0  0  0  0  0  0  0  0  0  0  0  0
   18.2778   25.4340   -9.6939 O   0  0  0  0  0  0  0  0  0  0  0  0
   17.1022   26.7718   -8.0537 C   0  0  0  0  0  0  0  0  0  0  0  0
   16.0016   26.9581   -7.2174 C   0  0  0  0  0  0  0  0  0  0  0  0
   18.3457   24.6088  -10.2796 H   0  0  0  0  0  0  0  0  0  0  0  0
   11.6635   26.0916   -2.2356 C   0  0  0  0  0  0  0  0  0  0  0  0
   12.2114   25.5156   -1.0037 C   0  0  0  0  0  0  0  0  0  0  0  0
   13.4075   25.9340   -0.4818 C   0  0  0  0  0  0  0  0  0  0  0  0
   13.9596   25.3566    0.6487 C   0  0  0  0  0  0  0  0  0  0  0  0
   13.2982   24.3237    1.2874 C   0  0  0  0  0  0  0  0  0  0  0  0
   12.0739   23.8891    0.7637 C   0  0  0  0  0  0  0  0  0  0  0  0
   11.2055   22.9348    1.1764 C   0  0  0  0  0  0  0  0  0  0  0  0
   10.1555   22.9538    0.3036 C   0  0  0  0  0  0  0  0  0  0  0  0
   10.3345   23.8870   -0.6479 N   0  0  0  0  0  0  0  0  0  0  0  0
    9.4338   24.1907   -1.7320 C   0  0  0  0  0  0  0  0  0  0  0  0
   11.5324   24.4778   -0.3726 C   0  0  0  0  0  0  0  0  0  0  0  0
   11.3120   21.9768    2.3300 C   0  0  0  0  0  0  0  0  0  0  0  0
   12.3505   21.2948    2.4631 O   0  0  0  0  0  0  0  0  0  0  0  0
   10.2054   21.9298    3.1977 N   0  0  0  0  0  0  0  0  0  0  0  0
   10.9980   21.2134    4.0719 H   0  0  0  0  0  0  0  0  0  0  0  0
    9.1886   21.8731    4.0129 C   0  0  0  0  0  0  0  0  0  0  0  0
    8.7910   23.0216    4.7282 C   0  0  0  0  0  0  0  0  0  0  0  0
    7.7614   23.0522    5.5935 C   0  0  0  0  0  0  0  0  0  0  0  0
    7.0478   21.8950    5.8066 C   0  0  0  0  0  0  0  0  0  0  0  0
    7.3682   20.7518    5.1590 N   0  0  0  0  0  0  0  0  0  0  0  0
    8.4016   20.7333    4.2858 C   0  0  0  0  0  0  0  0  0  0  0  0
    5.9760   21.8431    6.7530 N   0  0  0  0  0  0  0  0  0  0  0  0
    5.7870   22.9561    7.6502 C   0  0  0  0  0  0  0  0  0  0  0  0
    4.3800   23.3197    7.9513 C   0  0  0  0  0  0  0  0  0  0  0  0
    3.3480   22.3516    7.4907 C   0  0  0  0  0  0  0  0  0  0  0  0
    3.8378   20.9072    7.4993 C   0  0  0  0  0  0  0  0  0  0  0  0
    5.1303   20.6842    6.8176 C   0  0  0  0  0  0  0  0  0  0  0  0
    2.1191   22.3701    8.2014 N   0  0  0  0  0  0  0  0  0  0  0  0
    1.9647   23.3563    9.2220 C   0  0  0  0  0  0  0  0  0  0  0  0
    1.0170   22.3997    9.9173 C   0  0  0  0  0  0  0  0  0  0  0  0
    1.7616   21.3422    9.1048 C   0  0  0  0  0  0  0  0  0  0  0  0
   17.0610   23.0151   -0.8683 C   0  0  0  0  0  0  0  0  0  0  0  0
   16.0534   21.9843   -0.4215 C   0  0  0  0  0  0  0  0  0  0  0  0
   14.9329   21.7724   -1.1543 C   0  0  0  0  0  0  0  0  0  0  0  0
   13.9765   20.8302   -0.6993 C   0  0  0  0  0  0  0  0  0  0  0  0
   14.2013   20.1392    0.4907 C   0  0  0  0  0  0  0  0  0  0  0  0
   15.3984   20.4426    1.1697 C   0  0  0  0  0  0  0  0  0  0  0  0
   16.3025   21.3194    0.7516 C   0  0  0  0  0  0  0  0  0  0  0  0
 18 19  2  0  0  0
 19 17  1  0  0  0
 17  1  1  0  0  0
  1  2  1  0  0  0
  2  3  1  0  0  0
  3  4  2  0  0  0
  3  5  1  0  0  0
  5  6  1  0  0  0
  6 20  1  0  0  0
 20 21  1  0  0  0
 21 22  2  0  0  0
 22 23  1  0  0  0
 23 24  2  0  0  0
 24 25  1  0  0  0
 24 26  1  0  0  0
 26 27  2  0  0  0
  6  7  1  0  0  0
  7  8  2  0  0  0
  7  9  1  0  0  0
  9 29  1  0  0  0
 29 30  1  0  0  0
 30 31  2  0  0  0
 31 32  1  0  0  0
 32 33  2  0  0  0
 33 34  1  0  0  0
 34 35  1  0  0  0
 35 40  1  0  0  0
 40 41  2  0  0  0
 40 42  1  0  0  0
 42 44  1  0  0  0
 44 45  2  0  0  0
 45 46  1  0  0  0
 46 47  2  0  0  0
 47 50  1  0  0  0
 50 51  1  0  0  0
 51 52  1  0  0  0
 52 53  1  0  0  0
 53 56  1  0  0  0
 56 57  1  0  0  0
 57 58  1  0  0  0
 58 59  1  0  0  0
 53 54  1  0  0  0
 54 55  1  0  0  0
 47 48  1  0  0  0
 48 49  2  0  0  0
 35 36  2  0  0  0
 36 37  1  0  0  0
 37 38  1  0  0  0
 37 39  1  0  0  0
  9 10  1  0  0  0
 10 11  1  0  0  0
 11 12  1  0  0  0
 12 13  1  0  0  0
 13 14  2  0  0  0
 13 15  1  0  0  0
 15 60  1  0  0  0
 60 61  1  0  0  0
 61 62  2  0  0  0
 62 63  1  0  0  0
 63 64  2  0  0  0
 64 65  1  0  0  0
 65 66  2  0  0  0
 12  1  1  0  0  0
 66 61  1  0  0  0
 11  5  1  0  0  0
 27 21  1  0  0  0
 39 30  1  0  0  0
 39 34  2  0  0  0
 49 44  1  0  0  0
 55 50  1  0  0  0
 59 56  1  0  0  0
 25 28  1  0  0  0
 42 43  1  0  0  0
 15 16  1  0  0  0
M  END
> <minimizedAffinity>
16.45676

> <CNNscore>
0.5722320080

> <CNNaffinity>
8.4707946777

> <CNN_VS>
4.8472599983

> <CNNaffinity_variance>
0.7619000673

$$$$
[H]Oc1c([H])c([H])c(C([H])([H])[C@@]2([H])C(=O)N(C([H])([H])c3c([H])c([H])c([H])c4c(C(=O)N([H])c5c([H])nc(N6C([H])([H])C([H])([H])C([H])(N7C([H])([H])C([H])([H])C7([H])[H])C([H])([H])C6([H])[H])c([H])c5[H])c([H])n(C([H])([H])[H])c34)C([H])([H])[C@]3([H])N(C(=O)N([H])C([H])([H])c4c([H])c([H])c([H])c([H])c4[H])N(C([H])([H])C([H])=C([H])[H])C([H])([H])C(=O)N23)c([H])c1[H]


 66 74  0  0  0  0  0  0  0  0999 V2000
   12.9251   25.7963   -0.1196 N   0  0  0  0  0  0  0  0  0  0  0  0
   11.6431   25.2047   -0.4579 C   0  0  0  0  0  0  0  0  0  0  0  0
   11.9399   24.5337   -1.7884 C   0  0  0  0  0  0  0  0  0  0  0  0
   11.1712   24.7902   -2.7327 O   0  0  0  0  0  0  0  0  0  0  0  0
   13.0344   23.6748   -1.8880 N   0  0  0  0  0  0  0  0  0  0  0  0
   13.0628   22.6358   -2.8775 C   0  0  0  0  0  0  0  0  0  0  0  0
   12.8128   21.3957   -2.0518 C   0  0  0  0  0  0  0  0  0  0  0  0
   12.0572   20.5211   -2.4398 O   0  0  0  0  0  0  0  0  0  0  0  0
   13.4907   21.2968   -0.8207 N   0  0  0  0  0  0  0  0  0  0  0  0
   14.3448   22.3919   -0.2998 C   0  0  0  0  0  0  0  0  0  0  0  0
   14.1199   23.7191   -0.9445 C   0  0  0  0  0  0  0  0  0  0  0  0
   13.9811   24.8598   -0.0685 N   0  0  0  0  0  0  0  0  0  0  0  0
   14.9611   25.1421    0.9330 C   0  0  0  0  0  0  0  0  0  0  0  0
   14.7260   26.1348    1.7013 O   0  0  0  0  0  0  0  0  0  0  0  0
   16.1582   24.4552    1.1697 N   0  0  0  0  0  0  0  0  0  0  0  0
   16.4315   23.6545    0.5997 H   0  0  0  0  0  0  0  0  0  0  0  0
   13.1282   26.8074   -1.1462 C   0  0  0  0  0  0  0  0  0  0  0  0
   13.2625   26.7288   -3.5686 C   0  0  0  0  0  0  0  0  0  0  0  0
   13.6534   26.3098   -2.3951 C   0  0  0  0  0  0  0  0  0  0  0  0
   14.2540   22.4865   -3.7257 C   0  0  0  0  0  0  0  0  0  0  0  0
   14.9547   23.6796   -4.2070 C   0  0  0  0  0  0  0  0  0  0  0  0
   14.8002   24.1061   -5.5273 C   0  0  0  0  0  0  0  0  0  0  0  0
   15.5071   25.1884   -6.0059 C   0  0  0  0  0  0  0  0  0  0  0  0
   16.3950   25.9013   -5.2251 C   0  0  0  0  0  0  0  0  0  0  0  0
   17.0704   26.9789   -5.7661 O   0  0  0  0  0  0  0  0  0  0  0  0
   16.5505   25.4863   -3.9321 C   0  0  0  0  0  0  0  0  0  0  0  0
   15.8423   24.3931   -3.4333 C   0  0  0  0  0  0  0  0  0  0  0  0
   16.9449   27.2789   -6.7267 H   0  0  0  0  0  0  0  0  0  0  0  0
   13.3975   20.1413    0.0733 C   0  0  0  0  0  0  0  0  0  0  0  0
   12.4532   20.4417    1.1540 C   0  0  0  0  0  0  0  0  0  0  0  0
   12.8750   20.6673    2.4382 C   0  0  0  0  0  0  0  0  0  0  0  0
   11.9870   20.8953    3.4754 C   0  0  0  0  0  0  0  0  0  0  0  0
   10.6264   20.9009    3.2283 C   0  0  0  0  0  0  0  0  0  0  0  0
   10.1840   20.6733    1.9189 C   0  0  0  0  0  0  0  0  0  0  0  0
    8.9414   20.6423    1.3805 C   0  0  0  0  0  0  0  0  0  0  0  0
    9.0966   20.4039    0.0450 C   0  0  0  0  0  0  0  0  0  0  0  0
   10.3965   20.2806   -0.2762 N   0  0  0  0  0  0  0  0  0  0  0  0
   10.9355   20.0274   -1.5893 C   0  0  0  0  0  0  0  0  0  0  0  0
   11.0874   20.4449    0.8880 C   0  0  0  0  0  0  0  0  0  0  0  0
    7.6035   20.7934    2.0493 C   0  0  0  0  0  0  0  0  0  0  0  0
    6.7051   19.9578    1.8130 O   0  0  0  0  0  0  0  0  0  0  0  0
    7.4689   21.8906    2.9198 N   0  0  0  0  0  0  0  0  0  0  0  0
    6.2984   21.3130    3.3692 H   0  0  0  0  0  0  0  0  0  0  0  0
    7.3260   22.9023    3.7308 C   0  0  0  0  0  0  0  0  0  0  0  0
    6.7089   22.7208    4.9858 C   0  0  0  0  0  0  0  0  0  0  0  0
    6.5136   23.7068    5.8798 C   0  0  0  0  0  0  0  0  0  0  0  0
    6.9328   24.9776    5.5583 C   0  0  0  0  0  0  0  0  0  0  0  0
    7.5323   25.2325    4.3731 N   0  0  0  0  0  0  0  0  0  0  0  0
    7.7298   24.2323    3.4835 C   0  0  0  0  0  0  0  0  0  0  0  0
    6.7080   26.0824    6.4391 N   0  0  0  0  0  0  0  0  0  0  0  0
    6.1885   27.3118    5.8927 C   0  0  0  0  0  0  0  0  0  0  0  0
    5.2150   28.0428    6.7415 C   0  0  0  0  0  0  0  0  0  0  0  0
    5.0782   27.5524    8.1397 C   0  0  0  0  0  0  0  0  0  0  0  0
    6.3729   26.9708    8.6981 C   0  0  0  0  0  0  0  0  0  0  0  0
    7.0268   25.9652    7.8344 C   0  0  0  0  0  0  0  0  0  0  0  0
    4.6153   28.5025    9.0877 N   0  0  0  0  0  0  0  0  0  0  0  0
    3.4238   28.1858    9.8076 C   0  0  0  0  0  0  0  0  0  0  0  0
    3.1705   29.6756    9.9221 C   0  0  0  0  0  0  0  0  0  0  0  0
    4.0771   29.7502    8.6952 C   0  0  0  0  0  0  0  0  0  0  0  0
   17.0710   24.8642    2.2337 C   0  0  0  0  0  0  0  0  0  0  0  0
   18.5026   24.6311    1.8171 C   0  0  0  0  0  0  0  0  0  0  0  0
   19.5049   24.8121    2.7116 C   0  0  0  0  0  0  0  0  0  0  0  0
   20.8469   24.6292    2.2933 C   0  0  0  0  0  0  0  0  0  0  0  0
   21.1148   24.2682    0.9734 C   0  0  0  0  0  0  0  0  0  0  0  0
   19.9951   24.1104    0.1321 C   0  0  0  0  0  0  0  0  0  0  0  0
   18.7348   24.2750    0.5134 C   0  0  0  0  0  0  0  0  0  0  0  0
 18 19  2  0  0  0
 19 17  1  0  0  0
 17  1  1  0  0  0
  1  2  1  0  0  0
  2  3  1  0  0  0
  3  4  2  0  0  0
  3  5  1  0  0  0
  5  6  1  0  0  0
  6 20  1  0  0  0
 20 21  1  0  0  0
 21 22  2  0  0  0
 22 23  1  0  0  0
 23 24  2  0  0  0
 24 25  1  0  0  0
 24 26  1  0  0  0
 26 27  2  0  0  0
  6  7  1  0  0  0
  7  8  2  0  0  0
  7  9  1  0  0  0
  9 29  1  0  0  0
 29 30  1  0  0  0
 30 31  2  0  0  0
 31 32  1  0  0  0
 32 33  2  0  0  0
 33 34  1  0  0  0
 34 35  1  0  0  0
 35 40  1  0  0  0
 40 41  2  0  0  0
 40 42  1  0  0  0
 42 44  1  0  0  0
 44 45  2  0  0  0
 45 46  1  0  0  0
 46 47  2  0  0  0
 47 50  1  0  0  0
 50 51  1  0  0  0
 51 52  1  0  0  0
 52 53  1  0  0  0
 53 56  1  0  0  0
 56 57  1  0  0  0
 57 58  1  0  0  0
 58 59  1  0  0  0
 53 54  1  0  0  0
 54 55  1  0  0  0
 47 48  1  0  0  0
 48 49  2  0  0  0
 35 36  2  0  0  0
 36 37  1  0  0  0
 37 38  1  0  0  0
 37 39  1  0  0  0
  9 10  1  0  0  0
 10 11  1  0  0  0
 11 12  1  0  0  0
 12 13  1  0  0  0
 13 14  2  0  0  0
 13 15  1  0  0  0
 15 60  1  0  0  0
 60 61  1  0  0  0
 61 62  2  0  0  0
 62 63  1  0  0  0
 63 64  2  0  0  0
 64 65  1  0  0  0
 65 66  2  0  0  0
 12  1  1  0  0  0
 66 61  1  0  0  0
 11  5  1  0  0  0
 27 21  1  0  0  0
 39 30  1  0  0  0
 39 34  2  0  0  0
 49 44  1  0  0  0
 55 50  1  0  0  0
 59 56  1  0  0  0
 25 28  1  0  0  0
 42 43  1  0  0  0
 15 16  1  0  0  0
M  END
> <minimizedAffinity>
20.67561

> <CNNscore>
0.5003523827

> <CNNaffinity>
8.5540714264

> <CNN_VS>
4.2800498009

> <CNNaffinity_variance>
0.4169963896

$$$$
[H]Oc1c([H])c([H])c(C([H])([H])[C@@]2([H])C(=O)N(C([H])([H])c3c([H])c([H])c([H])c4c(C(=O)N([H])c5c([H])nc(N6C([H])([H])C([H])([H])C([H])(N7C([H])([H])C([H])([H])C7([H])[H])C([H])([H])C6([H])[H])c([H])c5[H])c([H])n(C([H])([H])[H])c34)C([H])([H])[C@]3([H])N(C(=O)N([H])C([H])([H])c4c([H])c([H])c([H])c([H])c4[H])N(C([H])([H])C([H])=C([H])[H])C([H])([H])C(=O)N23)c([H])c1[H]


 66 74  0  0  0  0  0  0  0  0999 V2000
   17.2917   28.1691   -2.9327 N   0  0  0  0  0  0  0  0  0  0  0  0
   16.4306   29.1328   -3.5942 C   0  0  0  0  0  0  0  0  0  0  0  0
   16.0763   28.4143   -4.8853 C   0  0  0  0  0  0  0  0  0  0  0  0
   16.2531   29.0410   -5.9456 O   0  0  0  0  0  0  0  0  0  0  0  0
   15.5749   27.1142   -4.8248 N   0  0  0  0  0  0  0  0  0  0  0  0
   14.7459   26.5988   -5.8768 C   0  0  0  0  0  0  0  0  0  0  0  0
   13.3743   26.6117   -5.2438 C   0  0  0  0  0  0  0  0  0  0  0  0
   12.3960   26.9888   -5.8658 O   0  0  0  0  0  0  0  0  0  0  0  0
   13.2789   26.1690   -3.9097 N   0  0  0  0  0  0  0  0  0  0  0  0
   14.4735   25.7895   -3.1167 C   0  0  0  0  0  0  0  0  0  0  0  0
   15.7705   26.2803   -3.6685 C   0  0  0  0  0  0  0  0  0  0  0  0
   16.6831   26.9090   -2.7413 N   0  0  0  0  0  0  0  0  0  0  0  0
   17.0671   26.2555   -1.5294 C   0  0  0  0  0  0  0  0  0  0  0  0
   17.8291   26.9108   -0.7415 O   0  0  0  0  0  0  0  0  0  0  0  0
   16.7061   24.9712   -1.1039 N   0  0  0  0  0  0  0  0  0  0  0  0
   16.1068   24.3732   -1.6731 H   0  0  0  0  0  0  0  0  0  0  0  0
   18.4634   28.0954   -3.7924 C   0  0  0  0  0  0  0  0  0  0  0  0
   20.8090   27.4754   -3.7150 C   0  0  0  0  0  0  0  0  0  0  0  0
   19.7032   27.8148   -3.1088 C   0  0  0  0  0  0  0  0  0  0  0  0
   15.0585   25.2849   -6.4568 C   0  0  0  0  0  0  0  0  0  0  0  0
   15.0887   24.1010   -5.5944 C   0  0  0  0  0  0  0  0  0  0  0  0
   15.4710   24.2105   -4.2561 C   0  0  0  0  0  0  0  0  0  0  0  0
   15.5657   23.0919   -3.4561 C   0  0  0  0  0  0  0  0  0  0  0  0
   15.2959   21.8201   -3.9206 C   0  0  0  0  0  0  0  0  0  0  0  0
   15.4076   20.7405   -3.0650 O   0  0  0  0  0  0  0  0  0  0  0  0
   14.9227   21.7080   -5.2308 C   0  0  0  0  0  0  0  0  0  0  0  0
   14.8222   22.8305   -6.0526 C   0  0  0  0  0  0  0  0  0  0  0  0
   15.6833   20.8365   -2.0937 H   0  0  0  0  0  0  0  0  0  0  0  0
   12.0201   26.0726   -3.1685 C   0  0  0  0  0  0  0  0  0  0  0  0
   12.3107   25.8162   -1.7544 C   0  0  0  0  0  0  0  0  0  0  0  0
   13.2968   26.4940   -1.0865 C   0  0  0  0  0  0  0  0  0  0  0  0
   13.6160   26.2187    0.2321 C   0  0  0  0  0  0  0  0  0  0  0  0
   12.9286   25.2324    0.9154 C   0  0  0  0  0  0  0  0  0  0  0  0
   11.9173   24.5344    0.2431 C   0  0  0  0  0  0  0  0  0  0  0  0
   11.0766   23.5531    0.6497 C   0  0  0  0  0  0  0  0  0  0  0  0
   10.2715   23.2587   -0.4132 C   0  0  0  0  0  0  0  0  0  0  0  0
   10.5788   24.0202   -1.4780 N   0  0  0  0  0  0  0  0  0  0  0  0
    9.9398   23.9864   -2.7700 C   0  0  0  0  0  0  0  0  0  0  0  0
   11.6086   24.8212   -1.0811 C   0  0  0  0  0  0  0  0  0  0  0  0
   10.9988   22.8460    1.9741 C   0  0  0  0  0  0  0  0  0  0  0  0
   11.8176   21.9377    2.2301 O   0  0  0  0  0  0  0  0  0  0  0  0
    9.9862   23.2823    2.8483 N   0  0  0  0  0  0  0  0  0  0  0  0
   10.6127   22.5545    3.8400 H   0  0  0  0  0  0  0  0  0  0  0  0
    9.0535   23.6739    3.6718 C   0  0  0  0  0  0  0  0  0  0  0  0
    9.1236   24.9523    4.2632 C   0  0  0  0  0  0  0  0  0  0  0  0
    8.2124   25.4344    5.1274 C   0  0  0  0  0  0  0  0  0  0  0  0
    7.1435   24.6372    5.4677 C   0  0  0  0  0  0  0  0  0  0  0  0
    7.0062   23.3980    4.9436 N   0  0  0  0  0  0  0  0  0  0  0  0
    7.9250   22.9250    4.0702 C   0  0  0  0  0  0  0  0  0  0  0  0
    6.1670   25.0657    6.4216 N   0  0  0  0  0  0  0  0  0  0  0  0
    6.4709   26.1930    7.2680 C   0  0  0  0  0  0  0  0  0  0  0  0
    5.3428   27.1122    7.5602 C   0  0  0  0  0  0  0  0  0  0  0  0
    3.9947   26.6340    7.1502 C   0  0  0  0  0  0  0  0  0  0  0  0
    3.8516   25.1171    7.2220 C   0  0  0  0  0  0  0  0  0  0  0  0
    4.9234   24.3581    6.5438 C   0  0  0  0  0  0  0  0  0  0  0  0
    2.8980   27.1817    7.8663 N   0  0  0  0  0  0  0  0  0  0  0  0
    3.1830   28.1940    8.8318 C   0  0  0  0  0  0  0  0  0  0  0  0
    1.9498   27.7367    9.5847 C   0  0  0  0  0  0  0  0  0  0  0  0
    2.1817   26.4307    8.8273 C   0  0  0  0  0  0  0  0  0  0  0  0
   17.1826   24.4298    0.1659 C   0  0  0  0  0  0  0  0  0  0  0  0
   16.4254   23.1731    0.5191 C   0  0  0  0  0  0  0  0  0  0  0  0
   16.9910   22.2500    1.3350 C   0  0  0  0  0  0  0  0  0  0  0  0
   16.2836   21.0561    1.6240 C   0  0  0  0  0  0  0  0  0  0  0  0
   15.0225   20.8494    1.0663 C   0  0  0  0  0  0  0  0  0  0  0  0
   14.5357   21.8753    0.2316 C   0  0  0  0  0  0  0  0  0  0  0  0
   15.1869   22.9985   -0.0429 C   0  0  0  0  0  0  0  0  0  0  0  0
 18 19  2  0  0  0
 19 17  1  0  0  0
 17  1  1  0  0  0
  1  2  1  0  0  0
  2  3  1  0  0  0
  3  4  2  0  0  0
  3  5  1  0  0  0
  5  6  1  0  0  0
  6 20  1  0  0  0
 20 21  1  0  0  0
 21 22  2  0  0  0
 22 23  1  0  0  0
 23 24  2  0  0  0
 24 25  1  0  0  0
 24 26  1  0  0  0
 26 27  2  0  0  0
  6  7  1  0  0  0
  7  8  2  0  0  0
  7  9  1  0  0  0
  9 29  1  0  0  0
 29 30  1  0  0  0
 30 31  2  0  0  0
 31 32  1  0  0  0
 32 33  2  0  0  0
 33 34  1  0  0  0
 34 35  1  0  0  0
 35 40  1  0  0  0
 40 41  2  0  0  0
 40 42  1  0  0  0
 42 44  1  0  0  0
 44 45  2  0  0  0
 45 46  1  0  0  0
 46 47  2  0  0  0
 47 50  1  0  0  0
 50 51  1  0  0  0
 51 52  1  0  0  0
 52 53  1  0  0  0
 53 56  1  0  0  0
 56 57  1  0  0  0
 57 58  1  0  0  0
 58 59  1  0  0  0
 53 54  1  0  0  0
 54 55  1  0  0  0
 47 48  1  0  0  0
 48 49  2  0  0  0
 35 36  2  0  0  0
 36 37  1  0  0  0
 37 38  1  0  0  0
 37 39  1  0  0  0
  9 10  1  0  0  0
 10 11  1  0  0  0
 11 12  1  0  0  0
 12 13  1  0  0  0
 13 14  2  0  0  0
 13 15  1  0  0  0
 15 60  1  0  0  0
 60 61  1  0  0  0
 61 62  2  0  0  0
 62 63  1  0  0  0
 63 64  2  0  0  0
 64 65  1  0  0  0
 65 66  2  0  0  0
 12  1  1  0  0  0
 66 61  1  0  0  0
 11  5  1  0  0  0
 27 21  1  0  0  0
 39 30  1  0  0  0
 39 34  2  0  0  0
 49 44  1  0  0  0
 55 50  1  0  0  0
 59 56  1  0  0  0
 25 28  1  0  0  0
 42 43  1  0  0  0
 15 16  1  0  0  0
M  END
> <minimizedAffinity>
15.71720

> <CNNscore>
0.4666945934

> <CNNaffinity>
8.3267269135

> <CNN_VS>
3.8860385418

> <CNNaffinity_variance>
1.0272614956

$$$$
[H]Oc1c([H])c([H])c(C([H])([H])[C@@]2([H])C(=O)N(C([H])([H])c3c([H])c([H])c([H])c4c(C(=O)N([H])c5c([H])nc(N6C([H])([H])C([H])([H])C([H])(N7C([H])([H])C([H])([H])C7([H])[H])C([H])([H])C6([H])[H])c([H])c5[H])c([H])n(C([H])([H])[H])c34)C([H])([H])[C@]3([H])N(C(=O)N([H])C([H])([H])c4c([H])c([H])c([H])c([H])c4[H])N(C([H])([H])C([H])=C([H])[H])C([H])([H])C(=O)N23)c([H])c1[H]


 66 74  0  0  0  0  0  0  0  0999 V2000
    4.3304   30.1052   -0.0263 N   0  0  0  0  0  0  0  0  0  0  0  0
    4.7335   28.7106   -0.0022 C   0  0  0  0  0  0  0  0  0  0  0  0
    5.7160   28.6800    1.1564 C   0  0  0  0  0  0  0  0  0  0  0  0
    6.8303   28.1714    0.9369 O   0  0  0  0  0  0  0  0  0  0  0  0
    5.3312   29.2077    2.3889 N   0  0  0  0  0  0  0  0  0  0  0  0
    5.9417   28.7504    3.6045 C   0  0  0  0  0  0  0  0  0  0  0  0
    4.8557   27.8914    4.2087 C   0  0  0  0  0  0  0  0  0  0  0  0
    5.1138   26.8151    4.7198 O   0  0  0  0  0  0  0  0  0  0  0  0
    3.5390   28.3897    4.1556 N   0  0  0  0  0  0  0  0  0  0  0  0
    3.2019   29.6564    3.4613 C   0  0  0  0  0  0  0  0  0  0  0  0
    4.2418   30.1403    2.5063 C   0  0  0  0  0  0  0  0  0  0  0  0
    3.7899   30.5559    1.1982 N   0  0  0  0  0  0  0  0  0  0  0  0
    2.7383   31.5131    1.0528 C   0  0  0  0  0  0  0  0  0  0  0  0
    2.3629   31.7753   -0.1394 O   0  0  0  0  0  0  0  0  0  0  0  0
    2.0695   32.2038    2.0708 N   0  0  0  0  0  0  0  0  0  0  0  0
    2.3088   32.0632    3.0525 H   0  0  0  0  0  0  0  0  0  0  0  0
    5.5457   30.8168   -0.3927 C   0  0  0  0  0  0  0  0  0  0  0  0
    6.3100   31.1568   -2.6714 C   0  0  0  0  0  0  0  0  0  0  0  0
    6.1540   30.3862   -1.6287 C   0  0  0  0  0  0  0  0  0  0  0  0
    6.4453   29.7385    4.5692 C   0  0  0  0  0  0  0  0  0  0  0  0
    5.7726   29.8980    5.8608 C   0  0  0  0  0  0  0  0  0  0  0  0
    5.6227   31.1646    6.4286 C   0  0  0  0  0  0  0  0  0  0  0  0
    5.0504   31.3160    7.6734 C   0  0  0  0  0  0  0  0  0  0  0  0
    4.6013   30.2456    8.4210 C   0  0  0  0  0  0  0  0  0  0  0  0
    4.0343   30.4668    9.6618 O   0  0  0  0  0  0  0  0  0  0  0  0
    4.7474   29.0034    7.8695 C   0  0  0  0  0  0  0  0  0  0  0  0
    5.3243   28.8342    6.6110 C   0  0  0  0  0  0  0  0  0  0  0  0
    3.9292   31.3937   10.0596 H   0  0  0  0  0  0  0  0  0  0  0  0
    2.3823   27.7064    4.7371 C   0  0  0  0  0  0  0  0  0  0  0  0
    2.8130   26.4244    5.3032 C   0  0  0  0  0  0  0  0  0  0  0  0
    3.7435   25.6362    4.6779 C   0  0  0  0  0  0  0  0  0  0  0  0
    4.1140   24.3987    5.1757 C   0  0  0  0  0  0  0  0  0  0  0  0
    3.5392   23.9250    6.3408 C   0  0  0  0  0  0  0  0  0  0  0  0
    2.5882   24.7230    6.9893 C   0  0  0  0  0  0  0  0  0  0  0  0
    1.8870   24.5385    8.1336 C   0  0  0  0  0  0  0  0  0  0  0  0
    1.1184   25.6535    8.3086 C   0  0  0  0  0  0  0  0  0  0  0  0
    1.3097   26.5342    7.3106 N   0  0  0  0  0  0  0  0  0  0  0  0
    0.6703   27.8182    7.1652 C   0  0  0  0  0  0  0  0  0  0  0  0
    2.2255   25.9629    6.4772 C   0  0  0  0  0  0  0  0  0  0  0  0
    1.8686   23.3598    9.0664 C   0  0  0  0  0  0  0  0  0  0  0  0
    0.9195   23.2311    9.8688 O   0  0  0  0  0  0  0  0  0  0  0  0
    2.9485   22.4651    8.9521 N   0  0  0  0  0  0  0  0  0  0  0  0
    2.2273   21.5890    9.7382 H   0  0  0  0  0  0  0  0  0  0  0  0
    3.9419   21.6246    8.8599 C   0  0  0  0  0  0  0  0  0  0  0  0
    4.1216   20.8687    7.6829 C   0  0  0  0  0  0  0  0  0  0  0  0
    5.1115   19.9755    7.5041 C   0  0  0  0  0  0  0  0  0  0  0  0
    6.0076   19.7740    8.5290 C   0  0  0  0  0  0  0  0  0  0  0  0
    5.9015   20.4601    9.6896 N   0  0  0  0  0  0  0  0  0  0  0  0
    4.9059   21.3610    9.8569 C   0  0  0  0  0  0  0  0  0  0  0  0
    7.0514   18.8009    8.4267 N   0  0  0  0  0  0  0  0  0  0  0  0
    6.8134   17.4713    8.9319 C   0  0  0  0  0  0  0  0  0  0  0  0
    7.3988   16.3591    8.1426 C   0  0  0  0  0  0  0  0  0  0  0  0
    8.3547   16.7565    7.0737 C   0  0  0  0  0  0  0  0  0  0  0  0
    9.1411   18.0182    7.4143 C   0  0  0  0  0  0  0  0  0  0  0  0
    8.3185   19.1638    7.8566 C   0  0  0  0  0  0  0  0  0  0  0  0
    9.3057   15.7726    6.6949 N   0  0  0  0  0  0  0  0  0  0  0  0
    8.9276   14.8531    5.6703 C   0  0  0  0  0  0  0  0  0  0  0  0
    9.8709   13.8519    6.3063 C   0  0  0  0  0  0  0  0  0  0  0  0
    9.6634   14.7077    7.5543 C   0  0  0  0  0  0  0  0  0  0  0  0
    1.0108   33.1632    1.7690 C   0  0  0  0  0  0  0  0  0  0  0  0
    1.5992   34.4419    1.2246 C   0  0  0  0  0  0  0  0  0  0  0  0
    2.1743   35.3340    2.0677 C   0  0  0  0  0  0  0  0  0  0  0  0
    2.6854   36.5489    1.5460 C   0  0  0  0  0  0  0  0  0  0  0  0
    2.5884   36.8074    0.1792 C   0  0  0  0  0  0  0  0  0  0  0  0
    1.9690   35.8099   -0.6002 C   0  0  0  0  0  0  0  0  0  0  0  0
    1.4905   34.6675   -0.1236 C   0  0  0  0  0  0  0  0  0  0  0  0
 18 19  2  0  0  0
 19 17  1  0  0  0
 17  1  1  0  0  0
  1  2  1  0  0  0
  2  3  1  0  0  0
  3  4  2  0  0  0
  3  5  1  0  0  0
  5  6  1  0  0  0
  6 20  1  0  0  0
 20 21  1  0  0  0
 21 22  2  0  0  0
 22 23  1  0  0  0
 23 24  2  0  0  0
 24 25  1  0  0  0
 24 26  1  0  0  0
 26 27  2  0  0  0
  6  7  1  0  0  0
  7  8  2  0  0  0
  7  9  1  0  0  0
  9 29  1  0  0  0
 29 30  1  0  0  0
 30 31  2  0  0  0
 31 32  1  0  0  0
 32 33  2  0  0  0
 33 34  1  0  0  0
 34 35  1  0  0  0
 35 40  1  0  0  0
 40 41  2  0  0  0
 40 42  1  0  0  0
 42 44  1  0  0  0
 44 45  2  0  0  0
 45 46  1  0  0  0
 46 47  2  0  0  0
 47 50  1  0  0  0
 50 51  1  0  0  0
 51 52  1  0  0  0
 52 53  1  0  0  0
 53 56  1  0  0  0
 56 57  1  0  0  0
 57 58  1  0  0  0
 58 59  1  0  0  0
 53 54  1  0  0  0
 54 55  1  0  0  0
 47 48  1  0  0  0
 48 49  2  0  0  0
 35 36  2  0  0  0
 36 37  1  0  0  0
 37 38  1  0  0  0
 37 39  1  0  0  0
  9 10  1  0  0  0
 10 11  1  0  0  0
 11 12  1  0  0  0
 12 13  1  0  0  0
 13 14  2  0  0  0
 13 15  1  0  0  0
 15 60  1  0  0  0
 60 61  1  0  0  0
 61 62  2  0  0  0
 62 63  1  0  0  0
 63 64  2  0  0  0
 64 65  1  0  0  0
 65 66  2  0  0  0
 12  1  1  0  0  0
 66 61  1  0  0  0
 11  5  1  0  0  0
 27 21  1  0  0  0
 39 30  1  0  0  0
 39 34  2  0  0  0
 49 44  1  0  0  0
 55 50  1  0  0  0
 59 56  1  0  0  0
 25 28  1  0  0  0
 42 43  1  0  0  0
 15 16  1  0  0  0
M  END
> <minimizedAffinity>
21.89789

> <CNNscore>
0.4445966184

> <CNNaffinity>
6.0785741806

> <CNN_VS>
2.7025134563

> <CNNaffinity_variance>
0.2166272700

$$$$
[H]Oc1c([H])c([H])c(C([H])([H])[C@@]2([H])C(=O)N(C([H])([H])c3c([H])c([H])c([H])c4c(C(=O)N([H])c5c([H])nc(N6C([H])([H])C([H])([H])C([H])(N7C([H])([H])C([H])([H])C7([H])[H])C([H])([H])C6([H])[H])c([H])c5[H])c([H])n(C([H])([H])[H])c34)C([H])([H])[C@]3([H])N(C(=O)N([H])C([H])([H])c4c([H])c([H])c([H])c([H])c4[H])N(C([H])([H])C([H])=C([H])[H])C([H])([H])C(=O)N23)c([H])c1[H]


 66 74  0  0  0  0  0  0  0  0999 V2000
   15.4835   28.4785   -4.4155 N   0  0  0  0  0  0  0  0  0  0  0  0
   14.1051   28.3107   -3.9912 C   0  0  0  0  0  0  0  0  0  0  0  0
   13.7901   26.9038   -4.4708 C   0  0  0  0  0  0  0  0  0  0  0  0
   12.7606   26.7589   -5.1545 O   0  0  0  0  0  0  0  0  0  0  0  0
   14.6482   25.8595   -4.1263 N   0  0  0  0  0  0  0  0  0  0  0  0
   14.1694   24.5080   -4.0638 C   0  0  0  0  0  0  0  0  0  0  0  0
   14.0958   24.2593   -2.5755 C   0  0  0  0  0  0  0  0  0  0  0  0
   13.1459   23.6782   -2.0793 O   0  0  0  0  0  0  0  0  0  0  0  0
   15.1702   24.7260   -1.7928 N   0  0  0  0  0  0  0  0  0  0  0  0
   16.2885   25.5084   -2.3737 C   0  0  0  0  0  0  0  0  0  0  0  0
   16.0059   26.0996   -3.7146 C   0  0  0  0  0  0  0  0  0  0  0  0
   16.3533   27.4890   -3.9064 N   0  0  0  0  0  0  0  0  0  0  0  0
   17.6662   27.9676   -3.6056 C   0  0  0  0  0  0  0  0  0  0  0  0
   17.8659   29.2209   -3.7477 O   0  0  0  0  0  0  0  0  0  0  0  0
   18.7671   27.2176   -3.1739 N   0  0  0  0  0  0  0  0  0  0  0  0
   18.7015   26.2083   -3.0408 H   0  0  0  0  0  0  0  0  0  0  0  0
   15.4094   28.4589   -5.8686 C   0  0  0  0  0  0  0  0  0  0  0  0
   15.3988   26.7737   -7.6158 C   0  0  0  0  0  0  0  0  0  0  0  0
   15.8614   27.2345   -6.4848 C   0  0  0  0  0  0  0  0  0  0  0  0
   14.9229   23.4486   -4.7498 C   0  0  0  0  0  0  0  0  0  0  0  0
   16.3343   23.2343   -4.4208 C   0  0  0  0  0  0  0  0  0  0  0  0
   16.9130   23.8856   -3.3299 C   0  0  0  0  0  0  0  0  0  0  0  0
   18.2557   23.7408   -3.0534 C   0  0  0  0  0  0  0  0  0  0  0  0
   19.0940   22.9603   -3.8241 C   0  0  0  0  0  0  0  0  0  0  0  0
   20.4311   22.8556   -3.4905 O   0  0  0  0  0  0  0  0  0  0  0  0
   18.5319   22.3219   -4.8942 C   0  0  0  0  0  0  0  0  0  0  0  0
   17.1750   22.4585   -5.1867 C   0  0  0  0  0  0  0  0  0  0  0  0
   20.8363   23.3324   -2.6924 H   0  0  0  0  0  0  0  0  0  0  0  0
   15.2768   24.5233   -0.3469 C   0  0  0  0  0  0  0  0  0  0  0  0
   14.1205   25.1370    0.3134 C   0  0  0  0  0  0  0  0  0  0  0  0
   14.1591   26.4220    0.7880 C   0  0  0  0  0  0  0  0  0  0  0  0
   13.0921   26.9900    1.4628 C   0  0  0  0  0  0  0  0  0  0  0  0
   11.9406   26.2540    1.6740 C   0  0  0  0  0  0  0  0  0  0  0  0
   11.8893   24.9400    1.1916 C   0  0  0  0  0  0  0  0  0  0  0  0
   10.9099   24.0049    1.2273 C   0  0  0  0  0  0  0  0  0  0  0  0
   11.3923   22.9043    0.5789 C   0  0  0  0  0  0  0  0  0  0  0  0
   12.6452   23.1135    0.1378 N   0  0  0  0  0  0  0  0  0  0  0  0
   13.4668   22.1771   -0.5881 C   0  0  0  0  0  0  0  0  0  0  0  0
   12.9688   24.3829    0.5167 C   0  0  0  0  0  0  0  0  0  0  0  0
    9.5488   24.0670    1.8626 C   0  0  0  0  0  0  0  0  0  0  0  0
    9.3168   24.9414    2.7245 O   0  0  0  0  0  0  0  0  0  0  0  0
    8.6153   23.1134    1.4167 N   0  0  0  0  0  0  0  0  0  0  0  0
    7.6442   23.8499    2.0649 H   0  0  0  0  0  0  0  0  0  0  0  0
    7.7366   22.2368    1.0151 C   0  0  0  0  0  0  0  0  0  0  0  0
    6.9362   22.5046   -0.1147 C   0  0  0  0  0  0  0  0  0  0  0  0
    6.0021   21.6633   -0.5937 C   0  0  0  0  0  0  0  0  0  0  0  0
    5.8020   20.4660    0.0546 C   0  0  0  0  0  0  0  0  0  0  0  0
    6.5293   20.1368    1.1462 N   0  0  0  0  0  0  0  0  0  0  0  0
    7.4710   20.9873    1.6161 C   0  0  0  0  0  0  0  0  0  0  0  0
    4.7886   19.5489   -0.3684 N   0  0  0  0  0  0  0  0  0  0  0  0
    3.5656   20.0731   -0.9245 C   0  0  0  0  0  0  0  0  0  0  0  0
    2.9800   19.3057   -2.0518 C   0  0  0  0  0  0  0  0  0  0  0  0
    3.5849   17.9711   -2.3103 C   0  0  0  0  0  0  0  0  0  0  0  0
    4.1043   17.2954   -1.0453 C   0  0  0  0  0  0  0  0  0  0  0  0
    4.9867   18.1356   -0.2084 C   0  0  0  0  0  0  0  0  0  0  0  0
    2.7492   17.0272   -2.9634 N   0  0  0  0  0  0  0  0  0  0  0  0
    1.5663   17.5208   -3.5919 C   0  0  0  0  0  0  0  0  0  0  0  0
    0.9412   16.1629   -3.3427 C   0  0  0  0  0  0  0  0  0  0  0  0
    1.9979   16.0689   -2.2438 C   0  0  0  0  0  0  0  0  0  0  0  0
   20.0579   27.8469   -2.9086 C   0  0  0  0  0  0  0  0  0  0  0  0
   21.1839   26.9417   -3.3447 C   0  0  0  0  0  0  0  0  0  0  0  0
   21.5765   26.9284   -4.6421 C   0  0  0  0  0  0  0  0  0  0  0  0
   22.6077   26.0426   -5.0438 C   0  0  0  0  0  0  0  0  0  0  0  0
   23.1996   25.2012   -4.1026 C   0  0  0  0  0  0  0  0  0  0  0  0
   22.7095   25.2995   -2.7849 C   0  0  0  0  0  0  0  0  0  0  0  0
   21.7478   26.1273   -2.3966 C   0  0  0  0  0  0  0  0  0  0  0  0
 18 19  2  0  0  0
 19 17  1  0  0  0
 17  1  1  0  0  0
  1  2  1  0  0  0
  2  3  1  0  0  0
  3  4  2  0  0  0
  3  5  1  0  0  0
  5  6  1  0  0  0
  6 20  1  0  0  0
 20 21  1  0  0  0
 21 22  2  0  0  0
 22 23  1  0  0  0
 23 24  2  0  0  0
 24 25  1  0  0  0
 24 26  1  0  0  0
 26 27  2  0  0  0
  6  7  1  0  0  0
  7  8  2  0  0  0
  7  9  1  0  0  0
  9 29  1  0  0  0
 29 30  1  0  0  0
 30 31  2  0  0  0
 31 32  1  0  0  0
 32 33  2  0  0  0
 33 34  1  0  0  0
 34 35  1  0  0  0
 35 40  1  0  0  0
 40 41  2  0  0  0
 40 42  1  0  0  0
 42 44  1  0  0  0
 44 45  2  0  0  0
 45 46  1  0  0  0
 46 47  2  0  0  0
 47 50  1  0  0  0
 50 51  1  0  0  0
 51 52  1  0  0  0
 52 53  1  0  0  0
 53 56  1  0  0  0
 56 57  1  0  0  0
 57 58  1  0  0  0
 58 59  1  0  0  0
 53 54  1  0  0  0
 54 55  1  0  0  0
 47 48  1  0  0  0
 48 49  2  0  0  0
 35 36  2  0  0  0
 36 37  1  0  0  0
 37 38  1  0  0  0
 37 39  1  0  0  0
  9 10  1  0  0  0
 10 11  1  0  0  0
 11 12  1  0  0  0
 12 13  1  0  0  0
 13 14  2  0  0  0
 13 15  1  0  0  0
 15 60  1  0  0  0
 60 61  1  0  0  0
 61 62  2  0  0  0
 62 63  1  0  0  0
 63 64  2  0  0  0
 64 65  1  0  0  0
 65 66  2  0  0  0
 12  1  1  0  0  0
 66 61  1  0  0  0
 11  5  1  0  0  0
 27 21  1  0  0  0
 39 30  1  0  0  0
 39 34  2  0  0  0
 49 44  1  0  0  0
 55 50  1  0  0  0
 59 56  1  0  0  0
 25 28  1  0  0  0
 42 43  1  0  0  0
 15 16  1  0  0  0
M  END
> <minimizedAffinity>
43.88199

> <CNNscore>
0.3822652698

> <CNNaffinity>
8.1573734283

> <CNN_VS>
3.1182806492

> <CNNaffinity_variance>
0.5616917014

$$$$
[H]Oc1c([H])c([H])c(C([H])([H])[C@@]2([H])C(=O)N(C([H])([H])c3c([H])c([H])c([H])c4c(C(=O)N([H])c5c([H])nc(N6C([H])([H])C([H])([H])C([H])(N7C([H])([H])C([H])([H])C7([H])[H])C([H])([H])C6([H])[H])c([H])c5[H])c([H])n(C([H])([H])[H])c34)C([H])([H])[C@]3([H])N(C(=O)N([H])C([H])([H])c4c([H])c([H])c([H])c([H])c4[H])N(C([H])([H])C([H])=C([H])[H])C([H])([H])C(=O)N23)c([H])c1[H]


 66 74  0  0  0  0  0  0  0  0999 V2000
    6.9039   27.5761    2.1080 N   0  0  0  0  0  0  0  0  0  0  0  0
    7.3974   28.2728    3.2823 C   0  0  0  0  0  0  0  0  0  0  0  0
    6.3058   27.9965    4.3024 C   0  0  0  0  0  0  0  0  0  0  0  0
    5.8317   28.9793    4.9005 O   0  0  0  0  0  0  0  0  0  0  0  0
    5.8965   26.6812    4.5214 N   0  0  0  0  0  0  0  0  0  0  0  0
    5.3124   26.2944    5.7740 C   0  0  0  0  0  0  0  0  0  0  0  0
    6.4309   25.5157    6.4258 C   0  0  0  0  0  0  0  0  0  0  0  0
    6.6940   25.6589    7.6075 O   0  0  0  0  0  0  0  0  0  0  0  0
    7.1503   24.6205    5.6096 N   0  0  0  0  0  0  0  0  0  0  0  0
    6.8953   24.5012    4.1533 C   0  0  0  0  0  0  0  0  0  0  0  0
    6.1401   25.6418    3.5566 C   0  0  0  0  0  0  0  0  0  0  0  0
    6.6585   26.2030    2.3301 N   0  0  0  0  0  0  0  0  0  0  0  0
    6.9436   25.3713    1.2031 C   0  0  0  0  0  0  0  0  0  0  0  0
    7.4560   25.9441    0.1831 O   0  0  0  0  0  0  0  0  0  0  0  0
    6.7224   23.9937    1.0845 N   0  0  0  0  0  0  0  0  0  0  0  0
    6.3095   23.4556    1.8466 H   0  0  0  0  0  0  0  0  0  0  0  0
    5.6971   28.3049    1.7473 C   0  0  0  0  0  0  0  0  0  0  0  0
    4.1672   29.9482    2.6700 C   0  0  0  0  0  0  0  0  0  0  0  0
    5.0689   29.0178    2.8337 C   0  0  0  0  0  0  0  0  0  0  0  0
    4.0554   25.5325    5.7734 C   0  0  0  0  0  0  0  0  0  0  0  0
    3.7853   24.5800    6.8532 C   0  0  0  0  0  0  0  0  0  0  0  0
    3.0083   23.4445    6.6167 C   0  0  0  0  0  0  0  0  0  0  0  0
    2.6946   22.5785    7.6423 C   0  0  0  0  0  0  0  0  0  0  0  0
    3.1193   22.7782    8.9407 C   0  0  0  0  0  0  0  0  0  0  0  0
    2.7717   21.8697    9.9224 O   0  0  0  0  0  0  0  0  0  0  0  0
    3.8792   23.8897    9.1772 C   0  0  0  0  0  0  0  0  0  0  0  0
    4.2049   24.7750    8.1498 C   0  0  0  0  0  0  0  0  0  0  0  0
    2.2091   21.0471    9.7342 H   0  0  0  0  0  0  0  0  0  0  0  0
    8.2278   23.7569    6.0956 C   0  0  0  0  0  0  0  0  0  0  0  0
    9.2113   23.5633    5.0256 C   0  0  0  0  0  0  0  0  0  0  0  0
    9.4881   24.5481    4.1137 C   0  0  0  0  0  0  0  0  0  0  0  0
   10.3729   24.3543    3.0668 C   0  0  0  0  0  0  0  0  0  0  0  0
   11.0091   23.1354    2.9195 C   0  0  0  0  0  0  0  0  0  0  0  0
   10.7351   22.1221    3.8469 C   0  0  0  0  0  0  0  0  0  0  0  0
   11.2123   20.8603    3.9698 C   0  0  0  0  0  0  0  0  0  0  0  0
   10.6201   20.3212    5.0758 C   0  0  0  0  0  0  0  0  0  0  0  0
    9.7826   21.2007    5.6530 N   0  0  0  0  0  0  0  0  0  0  0  0
    8.9888   20.9800    6.8362 C   0  0  0  0  0  0  0  0  0  0  0  0
    9.8437   22.3309    4.8924 C   0  0  0  0  0  0  0  0  0  0  0  0
   12.1743   20.1101    3.0913 C   0  0  0  0  0  0  0  0  0  0  0  0
   12.4504   18.9222    3.3634 O   0  0  0  0  0  0  0  0  0  0  0  0
   12.6952   20.8234    1.9961 N   0  0  0  0  0  0  0  0  0  0  0  0
   13.1613   19.6182    1.5103 H   0  0  0  0  0  0  0  0  0  0  0  0
   13.1881   21.4691    0.9754 C   0  0  0  0  0  0  0  0  0  0  0  0
   14.5000   21.1988    0.5343 C   0  0  0  0  0  0  0  0  0  0  0  0
   15.0902   21.8206   -0.5024 C   0  0  0  0  0  0  0  0  0  0  0  0
   14.3813   22.7868   -1.1789 C   0  0  0  0  0  0  0  0  0  0  0  0
   13.1177   23.1037   -0.8157 N   0  0  0  0  0  0  0  0  0  0  0  0
   12.5309   22.4678    0.2246 C   0  0  0  0  0  0  0  0  0  0  0  0
   14.9667   23.5250   -2.2557 N   0  0  0  0  0  0  0  0  0  0  0  0
   15.1160   22.8824   -3.5380 C   0  0  0  0  0  0  0  0  0  0  0  0
   14.8798   23.7376   -4.7277 C   0  0  0  0  0  0  0  0  0  0  0  0
   14.7581   25.1967   -4.4627 C   0  0  0  0  0  0  0  0  0  0  0  0
   15.5984   25.6608   -3.2774 C   0  0  0  0  0  0  0  0  0  0  0  0
   15.4206   24.8704   -2.0411 C   0  0  0  0  0  0  0  0  0  0  0  0
   15.0768   26.0533   -5.5492 N   0  0  0  0  0  0  0  0  0  0  0  0
   16.1377   25.6497   -6.4150 C   0  0  0  0  0  0  0  0  0  0  0  0
   16.3853   27.1184   -6.6951 C   0  0  0  0  0  0  0  0  0  0  0  0
   15.6825   27.3164   -5.3535 C   0  0  0  0  0  0  0  0  0  0  0  0
    7.0615   23.2726   -0.1392 C   0  0  0  0  0  0  0  0  0  0  0  0
    7.9096   22.0656    0.1794 C   0  0  0  0  0  0  0  0  0  0  0  0
    7.3400   20.9654    0.7294 C   0  0  0  0  0  0  0  0  0  0  0  0
    8.1572   19.8556    1.0609 C   0  0  0  0  0  0  0  0  0  0  0  0
    9.5291   19.9124    0.8181 C   0  0  0  0  0  0  0  0  0  0  0  0
   10.0106   21.1069    0.2458 C   0  0  0  0  0  0  0  0  0  0  0  0
    9.2549   22.1504   -0.0721 C   0  0  0  0  0  0  0  0  0  0  0  0
 18 19  2  0  0  0
 19 17  1  0  0  0
 17  1  1  0  0  0
  1  2  1  0  0  0
  2  3  1  0  0  0
  3  4  2  0  0  0
  3  5  1  0  0  0
  5  6  1  0  0  0
  6 20  1  0  0  0
 20 21  1  0  0  0
 21 22  2  0  0  0
 22 23  1  0  0  0
 23 24  2  0  0  0
 24 25  1  0  0  0
 24 26  1  0  0  0
 26 27  2  0  0  0
  6  7  1  0  0  0
  7  8  2  0  0  0
  7  9  1  0  0  0
  9 29  1  0  0  0
 29 30  1  0  0  0
 30 31  2  0  0  0
 31 32  1  0  0  0
 32 33  2  0  0  0
 33 34  1  0  0  0
 34 35  1  0  0  0
 35 40  1  0  0  0
 40 41  2  0  0  0
 40 42  1  0  0  0
 42 44  1  0  0  0
 44 45  2  0  0  0
 45 46  1  0  0  0
 46 47  2  0  0  0
 47 50  1  0  0  0
 50 51  1  0  0  0
 51 52  1  0  0  0
 52 53  1  0  0  0
 53 56  1  0  0  0
 56 57  1  0  0  0
 57 58  1  0  0  0
 58 59  1  0  0  0
 53 54  1  0  0  0
 54 55  1  0  0  0
 47 48  1  0  0  0
 48 49  2  0  0  0
 35 36  2  0  0  0
 36 37  1  0  0  0
 37 38  1  0  0  0
 37 39  1  0  0  0
  9 10  1  0  0  0
 10 11  1  0  0  0
 11 12  1  0  0  0
 12 13  1  0  0  0
 13 14  2  0  0  0
 13 15  1  0  0  0
 15 60  1  0  0  0
 60 61  1  0  0  0
 61 62  2  0  0  0
 62 63  1  0  0  0
 63 64  2  0  0  0
 64 65  1  0  0  0
 65 66  2  0  0  0
 12  1  1  0  0  0
 66 61  1  0  0  0
 11  5  1  0  0  0
 27 21  1  0  0  0
 39 30  1  0  0  0
 39 34  2  0  0  0
 49 44  1  0  0  0
 55 50  1  0  0  0
 59 56  1  0  0  0
 25 28  1  0  0  0
 42 43  1  0  0  0
 15 16  1  0  0  0
M  END
> <minimizedAffinity>
5.56756

> <CNNscore>
0.3521995544

> <CNNaffinity>
7.9232187271

> <CNN_VS>
2.7905540466

> <CNNaffinity_variance>
0.2736024261

$$$$
[H]Oc1c([H])c([H])c(C([H])([H])[C@@]2([H])C(=O)N(C([H])([H])c3c([H])c([H])c([H])c4c(C(=O)N([H])c5c([H])nc(N6C([H])([H])C([H])([H])C([H])(N7C([H])([H])C([H])([H])C7([H])[H])C([H])([H])C6([H])[H])c([H])c5[H])c([H])n(C([H])([H])[H])c34)C([H])([H])[C@]3([H])N(C(=O)N([H])C([H])([H])c4c([H])c([H])c([H])c([H])c4[H])N(C([H])([H])C([H])=C([H])[H])C([H])([H])C(=O)N23)c([H])c1[H]


 66 74  0  0  0  0  0  0  0  0999 V2000
    9.2617   22.0973   -1.1470 N   0  0  0  0  0  0  0  0  0  0  0  0
    8.3341   21.3693   -0.2999 C   0  0  0  0  0  0  0  0  0  0  0  0
    9.2384   20.3398    0.3566 C   0  0  0  0  0  0  0  0  0  0  0  0
    8.8746   19.1513    0.2980 O   0  0  0  0  0  0  0  0  0  0  0  0
   10.4083   20.7648    0.9860 N   0  0  0  0  0  0  0  0  0  0  0  0
   10.9959   19.9894    2.0411 C   0  0  0  0  0  0  0  0  0  0  0  0
   10.6478   20.7975    3.2690 C   0  0  0  0  0  0  0  0  0  0  0  0
   10.2621   20.2571    4.2915 O   0  0  0  0  0  0  0  0  0  0  0  0
   10.7904   22.1962    3.1786 N   0  0  0  0  0  0  0  0  0  0  0  0
   11.1763   22.8702    1.9149 C   0  0  0  0  0  0  0  0  0  0  0  0
   11.0093   22.0376    0.6875 C   0  0  0  0  0  0  0  0  0  0  0  0
   10.3500   22.6550   -0.4404 N   0  0  0  0  0  0  0  0  0  0  0  0
   10.7936   23.9132   -0.9537 C   0  0  0  0  0  0  0  0  0  0  0  0
   10.1142   24.4125   -1.9129 O   0  0  0  0  0  0  0  0  0  0  0  0
   11.8950   24.6655   -0.5275 N   0  0  0  0  0  0  0  0  0  0  0  0
   12.4990   24.3401    0.2276 H   0  0  0  0  0  0  0  0  0  0  0  0
    9.6846   21.1139   -2.1327 C   0  0  0  0  0  0  0  0  0  0  0  0
    7.6832   19.8924   -2.7611 C   0  0  0  0  0  0  0  0  0  0  0  0
    8.6597   20.7052   -3.0632 C   0  0  0  0  0  0  0  0  0  0  0  0
   12.4322   19.6811    1.9891 C   0  0  0  0  0  0  0  0  0  0  0  0
   13.2461   20.2045    0.8892 C   0  0  0  0  0  0  0  0  0  0  0  0
   12.7977   20.1102   -0.4295 C   0  0  0  0  0  0  0  0  0  0  0  0
   13.5866   20.5402   -1.4750 C   0  0  0  0  0  0  0  0  0  0  0  0
   14.8441   21.0778   -1.2859 C   0  0  0  0  0  0  0  0  0  0  0  0
   15.5830   21.4924   -2.3778 O   0  0  0  0  0  0  0  0  0  0  0  0
   15.2878   21.1707    0.0037 C   0  0  0  0  0  0  0  0  0  0  0  0
   14.5012   20.7400    1.0719 C   0  0  0  0  0  0  0  0  0  0  0  0
   15.2420   21.4204   -3.3302 H   0  0  0  0  0  0  0  0  0  0  0  0
   10.5430   23.1166    4.2899 C   0  0  0  0  0  0  0  0  0  0  0  0
    9.3941   23.9677    3.9654 C   0  0  0  0  0  0  0  0  0  0  0  0
    9.2869   24.6046    2.7567 C   0  0  0  0  0  0  0  0  0  0  0  0
    8.2346   25.4548    2.4633 C   0  0  0  0  0  0  0  0  0  0  0  0
    7.2488   25.6812    3.4063 C   0  0  0  0  0  0  0  0  0  0  0  0
    7.3472   25.0340    4.6446 C   0  0  0  0  0  0  0  0  0  0  0  0
    6.5399   25.0430    5.7324 C   0  0  0  0  0  0  0  0  0  0  0  0
    7.1071   24.2066    6.6507 C   0  0  0  0  0  0  0  0  0  0  0  0
    8.2473   23.6724    6.1789 N   0  0  0  0  0  0  0  0  0  0  0  0
    9.1113   22.7473    6.8691 C   0  0  0  0  0  0  0  0  0  0  0  0
    8.4100   24.1839    4.9252 C   0  0  0  0  0  0  0  0  0  0  0  0
    5.2746   25.8161    5.9800 C   0  0  0  0  0  0  0  0  0  0  0  0
    4.5649   25.5255    6.9665 O   0  0  0  0  0  0  0  0  0  0  0  0
    4.9869   26.8406    5.0595 N   0  0  0  0  0  0  0  0  0  0  0  0
    4.0238   27.2823    5.9443 H   0  0  0  0  0  0  0  0  0  0  0  0
    4.7042   27.7947    4.2160 C   0  0  0  0  0  0  0  0  0  0  0  0
    5.5660   28.9037    4.0882 C   0  0  0  0  0  0  0  0  0  0  0  0
    5.3495   29.9344    3.2512 C   0  0  0  0  0  0  0  0  0  0  0  0
    4.2166   29.9196    2.4701 C   0  0  0  0  0  0  0  0  0  0  0  0
    3.3405   28.8915    2.5361 N   0  0  0  0  0  0  0  0  0  0  0  0
    3.5708   27.8564    3.3766 C   0  0  0  0  0  0  0  0  0  0  0  0
    3.8972   31.0082    1.5985 N   0  0  0  0  0  0  0  0  0  0  0  0
    2.5115   31.2811    1.3069 C   0  0  0  0  0  0  0  0  0  0  0  0
    2.1377   32.7132    1.1972 C   0  0  0  0  0  0  0  0  0  0  0  0
    3.2704   33.6773    1.1598 C   0  0  0  0  0  0  0  0  0  0  0  0
    4.5193   33.1063    0.4959 C   0  0  0  0  0  0  0  0  0  0  0  0
    4.9487   31.7879    1.0078 C   0  0  0  0  0  0  0  0  0  0  0  0
    3.0055   34.9215    0.5292 N   0  0  0  0  0  0  0  0  0  0  0  0
    3.5060   36.0991    1.1624 C   0  0  0  0  0  0  0  0  0  0  0  0
    2.3521   36.8535    0.5330 C   0  0  0  0  0  0  0  0  0  0  0  0
    1.7036   35.4718    0.4771 C   0  0  0  0  0  0  0  0  0  0  0  0
   12.2322   25.9406   -1.1544 C   0  0  0  0  0  0  0  0  0  0  0  0
   13.1774   25.7244   -2.3109 C   0  0  0  0  0  0  0  0  0  0  0  0
   13.0696   26.4904   -3.4241 C   0  0  0  0  0  0  0  0  0  0  0  0
   13.9380   26.2474   -4.5178 C   0  0  0  0  0  0  0  0  0  0  0  0
   14.8853   25.2278   -4.4329 C   0  0  0  0  0  0  0  0  0  0  0  0
   14.9044   24.4950   -3.2293 C   0  0  0  0  0  0  0  0  0  0  0  0
   14.0995   24.7159   -2.1977 C   0  0  0  0  0  0  0  0  0  0  0  0
 18 19  2  0  0  0
 19 17  1  0  0  0
 17  1  1  0  0  0
  1  2  1  0  0  0
  2  3  1  0  0  0
  3  4  2  0  0  0
  3  5  1  0  0  0
  5  6  1  0  0  0
  6 20  1  0  0  0
 20 21  1  0  0  0
 21 22  2  0  0  0
 22 23  1  0  0  0
 23 24  2  0  0  0
 24 25  1  0  0  0
 24 26  1  0  0  0
 26 27  2  0  0  0
  6  7  1  0  0  0
  7  8  2  0  0  0
  7  9  1  0  0  0
  9 29  1  0  0  0
 29 30  1  0  0  0
 30 31  2  0  0  0
 31 32  1  0  0  0
 32 33  2  0  0  0
 33 34  1  0  0  0
 34 35  1  0  0  0
 35 40  1  0  0  0
 40 41  2  0  0  0
 40 42  1  0  0  0
 42 44  1  0  0  0
 44 45  2  0  0  0
 45 46  1  0  0  0
 46 47  2  0  0  0
 47 50  1  0  0  0
 50 51  1  0  0  0
 51 52  1  0  0  0
 52 53  1  0  0  0
 53 56  1  0  0  0
 56 57  1  0  0  0
 57 58  1  0  0  0
 58 59  1  0  0  0
 53 54  1  0  0  0
 54 55  1  0  0  0
 47 48  1  0  0  0
 48 49  2  0  0  0
 35 36  2  0  0  0
 36 37  1  0  0  0
 37 38  1  0  0  0
 37 39  1  0  0  0
  9 10  1  0  0  0
 10 11  1  0  0  0
 11 12  1  0  0  0
 12 13  1  0  0  0
 13 14  2  0  0  0
 13 15  1  0  0  0
 15 60  1  0  0  0
 60 61  1  0  0  0
 61 62  2  0  0  0
 62 63  1  0  0  0
 63 64  2  0  0  0
 64 65  1  0  0  0
 65 66  2  0  0  0
 12  1  1  0  0  0
 66 61  1  0  0  0
 11  5  1  0  0  0
 27 21  1  0  0  0
 39 30  1  0  0  0
 39 34  2  0  0  0
 49 44  1  0  0  0
 55 50  1  0  0  0
 59 56  1  0  0  0
 25 28  1  0  0  0
 42 43  1  0  0  0
 15 16  1  0  0  0
M  END
> <minimizedAffinity>
-0.87904

> <CNNscore>
0.3191375434

> <CNNaffinity>
7.7578172684

> <CNN_VS>
2.4758107662

> <CNNaffinity_variance>
0.1221045479

$$$$
[H]Oc1c([H])c([H])c(C([H])([H])[C@@]2([H])C(=O)N(C([H])([H])c3c([H])c([H])c([H])c4c(C(=O)N([H])c5c([H])nc(N6C([H])([H])C([H])([H])C([H])(N7C([H])([H])C([H])([H])C7([H])[H])C([H])([H])C6([H])[H])c([H])c5[H])c([H])n(C([H])([H])[H])c34)C([H])([H])[C@]3([H])N(C(=O)N([H])C([H])([H])c4c([H])c([H])c([H])c([H])c4[H])N(C([H])([H])C([H])=C([H])[H])C([H])([H])C(=O)N23)c([H])c1[H]


 66 74  0  0  0  0  0  0  0  0999 V2000
    9.8132   21.9118   -1.2982 N   0  0  0  0  0  0  0  0  0  0  0  0
    8.8471   21.0048   -0.7051 C   0  0  0  0  0  0  0  0  0  0  0  0
    9.7373   20.0522    0.0752 C   0  0  0  0  0  0  0  0  0  0  0  0
    9.5670   18.8350   -0.1194 O   0  0  0  0  0  0  0  0  0  0  0  0
   10.6817   20.5738    0.9591 N   0  0  0  0  0  0  0  0  0  0  0  0
   11.1478   19.7996    2.0741 C   0  0  0  0  0  0  0  0  0  0  0  0
   10.4455   20.4557    3.2397 C   0  0  0  0  0  0  0  0  0  0  0  0
    9.9418   19.7903    4.1283 O   0  0  0  0  0  0  0  0  0  0  0  0
   10.4015   21.8638    3.2526 N   0  0  0  0  0  0  0  0  0  0  0  0
   10.9353   22.6804    2.1353 C   0  0  0  0  0  0  0  0  0  0  0  0
   11.1420   21.9335    0.8598 C   0  0  0  0  0  0  0  0  0  0  0  0
   10.6440   22.5479   -0.3495 N   0  0  0  0  0  0  0  0  0  0  0  0
   10.9976   23.8897   -0.6926 C   0  0  0  0  0  0  0  0  0  0  0  0
   10.4627   24.3714   -1.7475 O   0  0  0  0  0  0  0  0  0  0  0  0
   11.8701   24.7422   -0.0050 N   0  0  0  0  0  0  0  0  0  0  0  0
   12.3485   24.4388    0.8435 H   0  0  0  0  0  0  0  0  0  0  0  0
   10.5639   21.0730   -2.2203 C   0  0  0  0  0  0  0  0  0  0  0  0
   12.8346   20.2171   -2.1580 C   0  0  0  0  0  0  0  0  0  0  0  0
   11.9978   21.2198   -2.1471 C   0  0  0  0  0  0  0  0  0  0  0  0
   12.5937   19.6851    2.3123 C   0  0  0  0  0  0  0  0  0  0  0  0
   13.5206   20.5414    1.5680 C   0  0  0  0  0  0  0  0  0  0  0  0
   13.4862   21.9278    1.7280 C   0  0  0  0  0  0  0  0  0  0  0  0
   14.3094   22.7443    0.9824 C   0  0  0  0  0  0  0  0  0  0  0  0
   15.1990   22.2509    0.0489 C   0  0  0  0  0  0  0  0  0  0  0  0
   15.9983   23.1245   -0.6639 O   0  0  0  0  0  0  0  0  0  0  0  0
   15.2350   20.8940   -0.1122 C   0  0  0  0  0  0  0  0  0  0  0  0
   14.4084   20.0549    0.6349 C   0  0  0  0  0  0  0  0  0  0  0  0
   15.9643   24.1297   -0.5339 H   0  0  0  0  0  0  0  0  0  0  0  0
    9.8043   22.6531    4.3312 C   0  0  0  0  0  0  0  0  0  0  0  0
    9.0111   23.7413    3.7513 C   0  0  0  0  0  0  0  0  0  0  0  0
    8.8138   23.8487    2.3995 C   0  0  0  0  0  0  0  0  0  0  0  0
    8.1145   24.9038    1.8391 C   0  0  0  0  0  0  0  0  0  0  0  0
    7.5890   25.8910    2.6525 C   0  0  0  0  0  0  0  0  0  0  0  0
    7.7831   25.7904    4.0360 C   0  0  0  0  0  0  0  0  0  0  0  0
    7.3759   26.5755    5.0622 C   0  0  0  0  0  0  0  0  0  0  0  0
    7.8254   25.9881    6.2099 C   0  0  0  0  0  0  0  0  0  0  0  0
    8.5055   24.8596    5.9412 N   0  0  0  0  0  0  0  0  0  0  0  0
    9.1213   23.9794    6.9029 C   0  0  0  0  0  0  0  0  0  0  0  0
    8.4882   24.7258    4.5842 C   0  0  0  0  0  0  0  0  0  0  0  0
    6.6108   27.8692    5.0335 C   0  0  0  0  0  0  0  0  0  0  0  0
    6.3189   28.4298    6.1114 O   0  0  0  0  0  0  0  0  0  0  0  0
    6.2826   28.3643    3.7580 N   0  0  0  0  0  0  0  0  0  0  0  0
    5.9438   29.5528    4.3730 H   0  0  0  0  0  0  0  0  0  0  0  0
    5.9699   28.8385    2.5836 C   0  0  0  0  0  0  0  0  0  0  0  0
    5.5628   30.1820    2.4492 C   0  0  0  0  0  0  0  0  0  0  0  0
    5.2156   30.7515    1.2809 C   0  0  0  0  0  0  0  0  0  0  0  0
    5.2505   29.9833    0.1397 C   0  0  0  0  0  0  0  0  0  0  0  0
    5.6292   28.6858    0.1867 N   0  0  0  0  0  0  0  0  0  0  0  0
    5.9826   28.1243    1.3660 C   0  0  0  0  0  0  0  0  0  0  0  0
    4.8426   30.5096   -1.1266 N   0  0  0  0  0  0  0  0  0  0  0  0
    5.6304   30.1997   -2.2941 C   0  0  0  0  0  0  0  0  0  0  0  0
    4.8731   29.9650   -3.5486 C   0  0  0  0  0  0  0  0  0  0  0  0
    3.4269   30.3129   -3.5071 C   0  0  0  0  0  0  0  0  0  0  0  0
    3.1198   31.4799   -2.5742 C   0  0  0  0  0  0  0  0  0  0  0  0
    3.6847   31.3546   -1.2140 C   0  0  0  0  0  0  0  0  0  0  0  0
    2.8267   30.6202   -4.7565 N   0  0  0  0  0  0  0  0  0  0  0  0
    1.8875   31.6949   -4.7878 C   0  0  0  0  0  0  0  0  0  0  0  0
    1.2168   30.9934   -5.9518 C   0  0  0  0  0  0  0  0  0  0  0  0
    1.8940   29.7531   -5.3720 C   0  0  0  0  0  0  0  0  0  0  0  0
   12.1413   26.0959   -0.4806 C   0  0  0  0  0  0  0  0  0  0  0  0
   12.8445   26.0535   -1.8152 C   0  0  0  0  0  0  0  0  0  0  0  0
   12.5054   26.9366   -2.7862 C   0  0  0  0  0  0  0  0  0  0  0  0
   13.1463   26.8571   -4.0481 C   0  0  0  0  0  0  0  0  0  0  0  0
   14.1110   25.8754   -4.2711 C   0  0  0  0  0  0  0  0  0  0  0  0
   14.3803   25.0111   -3.1909 C   0  0  0  0  0  0  0  0  0  0  0  0
   13.7898   25.0784   -2.0044 C   0  0  0  0  0  0  0  0  0  0  0  0
 18 19  2  0  0  0
 19 17  1  0  0  0
 17  1  1  0  0  0
  1  2  1  0  0  0
  2  3  1  0  0  0
  3  4  2  0  0  0
  3  5  1  0  0  0
  5  6  1  0  0  0
  6 20  1  0  0  0
 20 21  1  0  0  0
 21 22  2  0  0  0
 22 23  1  0  0  0
 23 24  2  0  0  0
 24 25  1  0  0  0
 24 26  1  0  0  0
 26 27  2  0  0  0
  6  7  1  0  0  0
  7  8  2  0  0  0
  7  9  1  0  0  0
  9 29  1  0  0  0
 29 30  1  0  0  0
 30 31  2  0  0  0
 31 32  1  0  0  0
 32 33  2  0  0  0
 33 34  1  0  0  0
 34 35  1  0  0  0
 35 40  1  0  0  0
 40 41  2  0  0  0
 40 42  1  0  0  0
 42 44  1  0  0  0
 44 45  2  0  0  0
 45 46  1  0  0  0
 46 47  2  0  0  0
 47 50  1  0  0  0
 50 51  1  0  0  0
 51 52  1  0  0  0
 52 53  1  0  0  0
 53 56  1  0  0  0
 56 57  1  0  0  0
 57 58  1  0  0  0
 58 59  1  0  0  0
 53 54  1  0  0  0
 54 55  1  0  0  0
 47 48  1  0  0  0
 48 49  2  0  0  0
 35 36  2  0  0  0
 36 37  1  0  0  0
 37 38  1  0  0  0
 37 39  1  0  0  0
  9 10  1  0  0  0
 10 11  1  0  0  0
 11 12  1  0  0  0
 12 13  1  0  0  0
 13 14  2  0  0  0
 13 15  1  0  0  0
 15 60  1  0  0  0
 60 61  1  0  0  0
 61 62  2  0  0  0
 62 63  1  0  0  0
 63 64  2  0  0  0
 64 65  1  0  0  0
 65 66  2  0  0  0
 12  1  1  0  0  0
 66 61  1  0  0  0
 11  5  1  0  0  0
 27 21  1  0  0  0
 39 30  1  0  0  0
 39 34  2  0  0  0
 49 44  1  0  0  0
 55 50  1  0  0  0
 59 56  1  0  0  0
 25 28  1  0  0  0
 42 43  1  0  0  0
 15 16  1  0  0  0
M  END
> <minimizedAffinity>
10.67215

> <CNNscore>
0.3047389984

> <CNNaffinity>
7.8137769699

> <CNN_VS>
2.3811626434

> <CNNaffinity_variance>
0.2067065686

$$$$
[H]Oc1c([H])c([H])c(C([H])([H])[C@@]2([H])C(=O)N(C([H])([H])c3c([H])c([H])c([H])c4c(C(=O)N([H])c5c([H])nc(N6C([H])([H])C([H])([H])C([H])(N7C([H])([H])C([H])([H])C7([H])[H])C([H])([H])C6([H])[H])c([H])c5[H])c([H])n(C([H])([H])[H])c34)C([H])([H])[C@]3([H])N(C(=O)N([H])C([H])([H])c4c([H])c([H])c([H])c([H])c4[H])N(C([H])([H])C([H])=C([H])[H])C([H])([H])C(=O)N23)c([H])c1[H]


 66 74  0  0  0  0  0  0  0  0999 V2000
   15.4356   28.4331   -4.4432 N   0  0  0  0  0  0  0  0  0  0  0  0
   14.0781   28.1342   -4.0239 C   0  0  0  0  0  0  0  0  0  0  0  0
   13.8500   26.7594   -4.6293 C   0  0  0  0  0  0  0  0  0  0  0  0
   12.8221   26.6088   -5.3143 O   0  0  0  0  0  0  0  0  0  0  0  0
   14.7807   25.7482   -4.3910 N   0  0  0  0  0  0  0  0  0  0  0  0
   14.3938   24.3675   -4.4499 C   0  0  0  0  0  0  0  0  0  0  0  0
   14.3595   23.9784   -2.9906 C   0  0  0  0  0  0  0  0  0  0  0  0
   13.4580   23.2912   -2.5420 O   0  0  0  0  0  0  0  0  0  0  0  0
   15.4123   24.4426   -2.1776 N   0  0  0  0  0  0  0  0  0  0  0  0
   16.4671   25.3490   -2.6933 C   0  0  0  0  0  0  0  0  0  0  0  0
   16.1256   26.0406   -3.9710 C   0  0  0  0  0  0  0  0  0  0  0  0
   16.3769   27.4621   -4.0361 N   0  0  0  0  0  0  0  0  0  0  0  0
   17.6595   27.9985   -3.7039 C   0  0  0  0  0  0  0  0  0  0  0  0
   17.7733   29.2702   -3.7308 O   0  0  0  0  0  0  0  0  0  0  0  0
   18.8143   27.2881   -3.3535 N   0  0  0  0  0  0  0  0  0  0  0  0
   18.8179   26.2687   -3.3141 H   0  0  0  0  0  0  0  0  0  0  0  0
   15.3409   28.5424   -5.8912 C   0  0  0  0  0  0  0  0  0  0  0  0
   15.0713   30.8777   -6.4961 C   0  0  0  0  0  0  0  0  0  0  0  0
   15.8010   29.7962   -6.4383 C   0  0  0  0  0  0  0  0  0  0  0  0
   15.2055   23.4290   -5.2381 C   0  0  0  0  0  0  0  0  0  0  0  0
   15.8730   23.8947   -6.4562 C   0  0  0  0  0  0  0  0  0  0  0  0
   17.0327   23.2651   -6.9121 C   0  0  0  0  0  0  0  0  0  0  0  0
   17.7032   23.7385   -8.0195 C   0  0  0  0  0  0  0  0  0  0  0  0
   17.2787   24.8434   -8.7302 C   0  0  0  0  0  0  0  0  0  0  0  0
   17.9960   25.2649   -9.8338 O   0  0  0  0  0  0  0  0  0  0  0  0
   16.1444   25.4640   -8.2865 C   0  0  0  0  0  0  0  0  0  0  0  0
   15.4550   24.9967   -7.1677 C   0  0  0  0  0  0  0  0  0  0  0  0
   18.8352   24.7947  -10.1549 H   0  0  0  0  0  0  0  0  0  0  0  0
   15.5541   24.1153   -0.7577 C   0  0  0  0  0  0  0  0  0  0  0  0
   14.5317   24.8349    0.0082 C   0  0  0  0  0  0  0  0  0  0  0  0
   14.5987   26.1894    0.2054 C   0  0  0  0  0  0  0  0  0  0  0  0
   13.6691   26.8682    0.9745 C   0  0  0  0  0  0  0  0  0  0  0  0
   12.6312   26.1756    1.5707 C   0  0  0  0  0  0  0  0  0  0  0  0
   12.5519   24.7911    1.3743 C   0  0  0  0  0  0  0  0  0  0  0  0
   11.6558   23.8702    1.8035 C   0  0  0  0  0  0  0  0  0  0  0  0
   12.0501   22.6679    1.2904 C   0  0  0  0  0  0  0  0  0  0  0  0
   13.1675   22.7996    0.5539 N   0  0  0  0  0  0  0  0  0  0  0  0
   13.8672   21.7466   -0.1392 C   0  0  0  0  0  0  0  0  0  0  0  0
   13.4930   24.1230    0.6003 C   0  0  0  0  0  0  0  0  0  0  0  0
   10.4590   24.0420    2.6969 C   0  0  0  0  0  0  0  0  0  0  0  0
    9.9230   25.1668    2.7898 O   0  0  0  0  0  0  0  0  0  0  0  0
   10.0200   22.8869    3.3698 N   0  0  0  0  0  0  0  0  0  0  0  0
    8.8711   23.5826    3.6885 H   0  0  0  0  0  0  0  0  0  0  0  0
    9.5988   21.8261    4.0016 C   0  0  0  0  0  0  0  0  0  0  0  0
    8.5446   21.0569    3.4669 C   0  0  0  0  0  0  0  0  0  0  0  0
    8.0426   19.9550    4.0530 C   0  0  0  0  0  0  0  0  0  0  0  0
    8.5794   19.5465    5.2525 C   0  0  0  0  0  0  0  0  0  0  0  0
    9.5921   20.2320    5.8300 N   0  0  0  0  0  0  0  0  0  0  0  0
   10.0942   21.3354    5.2290 C   0  0  0  0  0  0  0  0  0  0  0  0
    8.0578   18.4155    5.9566 N   0  0  0  0  0  0  0  0  0  0  0  0
    8.9239   17.2883    6.1993 C   0  0  0  0  0  0  0  0  0  0  0  0
    8.7609   16.6106    7.5096 C   0  0  0  0  0  0  0  0  0  0  0  0
    7.5720   17.0180    8.3062 C   0  0  0  0  0  0  0  0  0  0  0  0
    6.3817   17.4188    7.4406 C   0  0  0  0  0  0  0  0  0  0  0  0
    6.6861   18.4041    6.3817 C   0  0  0  0  0  0  0  0  0  0  0  0
    7.0938   16.0617    9.2402 N   0  0  0  0  0  0  0  0  0  0  0  0
    7.9648   14.9831    9.5810 C   0  0  0  0  0  0  0  0  0  0  0  0
    6.7276   14.1510    9.8527 C   0  0  0  0  0  0  0  0  0  0  0  0
    6.0560   15.1559    8.9189 C   0  0  0  0  0  0  0  0  0  0  0  0
   20.0642   27.9761   -3.0426 C   0  0  0  0  0  0  0  0  0  0  0  0
   20.9100   27.1372   -2.1161 C   0  0  0  0  0  0  0  0  0  0  0  0
   21.2273   25.8643   -2.4574 C   0  0  0  0  0  0  0  0  0  0  0  0
   21.9877   25.0758   -1.5576 C   0  0  0  0  0  0  0  0  0  0  0  0
   22.3953   25.6188   -0.3397 C   0  0  0  0  0  0  0  0  0  0  0  0
   22.0055   26.9500   -0.0906 C   0  0  0  0  0  0  0  0  0  0  0  0
   21.2974   27.6988   -0.9266 C   0  0  0  0  0  0  0  0  0  0  0  0
 18 19  2  0  0  0
 19 17  1  0  0  0
 17  1  1  0  0  0
  1  2  1  0  0  0
  2  3  1  0  0  0
  3  4  2  0  0  0
  3  5  1  0  0  0
  5  6  1  0  0  0
  6 20  1  0  0  0
 20 21  1  0  0  0
 21 22  2  0  0  0
 22 23  1  0  0  0
 23 24  2  0  0  0
 24 25  1  0  0  0
 24 26  1  0  0  0
 26 27  2  0  0  0
  6  7  1  0  0  0
  7  8  2  0  0  0
  7  9  1  0  0  0
  9 29  1  0  0  0
 29 30  1  0  0  0
 30 31  2  0  0  0
 31 32  1  0  0  0
 32 33  2  0  0  0
 33 34  1  0  0  0
 34 35  1  0  0  0
 35 40  1  0  0  0
 40 41  2  0  0  0
 40 42  1  0  0  0
 42 44  1  0  0  0
 44 45  2  0  0  0
 45 46  1  0  0  0
 46 47  2  0  0  0
 47 50  1  0  0  0
 50 51  1  0  0  0
 51 52  1  0  0  0
 52 53  1  0  0  0
 53 56  1  0  0  0
 56 57  1  0  0  0
 57 58  1  0  0  0
 58 59  1  0  0  0
 53 54  1  0  0  0
 54 55  1  0  0  0
 47 48  1  0  0  0
 48 49  2  0  0  0
 35 36  2  0  0  0
 36 37  1  0  0  0
 37 38  1  0  0  0
 37 39  1  0  0  0
  9 10  1  0  0  0
 10 11  1  0  0  0
 11 12  1  0  0  0
 12 13  1  0  0  0
 13 14  2  0  0  0
 13 15  1  0  0  0
 15 60  1  0  0  0
 60 61  1  0  0  0
 61 62  2  0  0  0
 62 63  1  0  0  0
 63 64  2  0  0  0
 64 65  1  0  0  0
 65 66  2  0  0  0
 12  1  1  0  0  0
 66 61  1  0  0  0
 11  5  1  0  0  0
 27 21  1  0  0  0
 39 30  1  0  0  0
 39 34  2  0  0  0
 49 44  1  0  0  0
 55 50  1  0  0  0
 59 56  1  0  0  0
 25 28  1  0  0  0
 42 43  1  0  0  0
 15 16  1  0  0  0
M  END
> <minimizedAffinity>
46.02087

> <CNNscore>
0.2713408768

> <CNNaffinity>
7.4962501526

> <CNN_VS>
2.0340390205

> <CNNaffinity_variance>
0.2601972222

$$$$
[H]c1nc(Oc2c([H])c([H])c(C(=O)N([H])C([H])([H])C([H])([H])N3C([H])([H])C([H])([H])C([H])([H])C3([H])[H])c([H])c2[H])c(N([H])S(=O)(=O)c2c([H])c([H])c(Cl)c(Cl)c2[H])c([H])c1Cl


 38 41  0  0  0  0  0  0  0  0999 V2000
   12.3748   22.4230    0.3825 C   0  0  0  0  0  0  0  0  0  0  0  0
   12.6293   21.6164    1.4286 N   0  0  0  0  0  0  0  0  0  0  0  0
   13.6875   20.8008    1.4429 C   0  0  0  0  0  0  0  0  0  0  0  0
   14.5255   20.7898    0.3710 C   0  0  0  0  0  0  0  0  0  0  0  0
   15.9124   19.7146    0.3995 Cl  0  0  0  0  0  0  0  0  0  0  0  0
   14.2791   21.6231   -0.7307 C   0  0  0  0  0  0  0  0  0  0  0  0
   13.1855   22.4538   -0.7264 C   0  0  0  0  0  0  0  0  0  0  0  0
   12.8685   23.3441   -1.7779 N   0  0  0  0  0  0  0  0  0  0  0  0
   12.1640   23.0721   -2.5251 H   0  0  0  0  0  0  0  0  0  0  0  0
   13.6258   24.8807   -1.8534 S   0  0  0  0  0  0  0  0  0  0  0  0
   12.5864   25.9460   -1.5290 O   0  0  0  0  0  0  0  0  0  0  0  0
   14.7040   24.9071   -0.7725 O   0  0  0  0  0  0  0  0  0  0  0  0
   14.3611   25.2670   -3.3637 C   0  0  0  0  0  0  0  0  0  0  0  0
   14.7659   24.2591   -4.2455 C   0  0  0  0  0  0  0  0  0  0  0  0
   15.3461   24.6174   -5.4282 C   0  0  0  0  0  0  0  0  0  0  0  0
   15.5344   25.9494   -5.7571 C   0  0  0  0  0  0  0  0  0  0  0  0
   16.2788   26.3908   -7.2717 Cl  0  0  0  0  0  0  0  0  0  0  0  0
   15.1341   26.9530   -4.8846 C   0  0  0  0  0  0  0  0  0  0  0  0
   15.3897   28.6175   -5.3380 Cl  0  0  0  0  0  0  0  0  0  0  0  0
   14.5435   26.5906   -3.6811 C   0  0  0  0  0  0  0  0  0  0  0  0
   11.2467   23.2479    0.4438 O   0  0  0  0  0  0  0  0  0  0  0  0
    7.3877   21.6030    0.3659 C   0  0  0  0  0  0  0  0  0  0  0  0
    7.6250   22.8492    0.9651 C   0  0  0  0  0  0  0  0  0  0  0  0
    8.9016   23.3822    0.9858 C   0  0  0  0  0  0  0  0  0  0  0  0
    9.9682   22.7190    0.4275 C   0  0  0  0  0  0  0  0  0  0  0  0
    9.7100   21.5014   -0.1521 C   0  0  0  0  0  0  0  0  0  0  0  0
    8.4423   20.9460   -0.1862 C   0  0  0  0  0  0  0  0  0  0  0  0
    5.2894   21.1908    1.3813 O   0  0  0  0  0  0  0  0  0  0  0  0
    6.0358   21.0664    0.3428 C   0  0  0  0  0  0  0  0  0  0  0  0
    5.4927   20.4066   -0.7779 N   0  0  0  0  0  0  0  0  0  0  0  0
    6.1222   20.3161   -1.6130 H   0  0  0  0  0  0  0  0  0  0  0  0
    4.1754   19.8476   -0.8861 C   0  0  0  0  0  0  0  0  0  0  0  0
    4.2327   18.5836   -1.6991 C   0  0  0  0  0  0  0  0  0  0  0  0
    4.2200   17.4374   -0.8367 N   0  0  0  0  0  0  0  0  0  0  0  0
    3.8703   17.6865    0.5198 C   0  0  0  0  0  0  0  0  0  0  0  0
    5.1427   17.5771    1.3435 C   0  0  0  0  0  0  0  0  0  0  0  0
    5.9840   16.6464    0.5174 C   0  0  0  0  0  0  0  0  0  0  0  0
    5.4023   16.6367   -0.8720 C   0  0  0  0  0  0  0  0  0  0  0  0
 28 29  2  0  0  0
 29 30  1  0  0  0
 30 32  1  0  0  0
 32 33  1  0  0  0
 33 34  1  0  0  0
 34 35  1  0  0  0
 35 36  1  0  0  0
 36 37  1  0  0  0
 37 38  1  0  0  0
 29 22  1  0  0  0
 22 23  2  0  0  0
 23 24  1  0  0  0
 24 25  2  0  0  0
 25 21  1  0  0  0
 21  1  1  0  0  0
  1  2  2  0  0  0
  2  3  1  0  0  0
  3  4  2  0  0  0
  4  5  1  0  0  0
  4  6  1  0  0  0
  6  7  2  0  0  0
  7  8  1  0  0  0
  8 10  1  0  0  0
 10 11  2  0  0  0
 10 12  2  0  0  0
 10 13  1  0  0  0
 13 14  2  0  0  0
 14 15  1  0  0  0
 15 16  2  0  0  0
 16 17  1  0  0  0
 16 18  1  0  0  0
 18 19  1  0  0  0
 18 20  2  0  0  0
 25 26  1  0  0  0
 26 27  2  0  0  0
 38 34  1  0  0  0
 27 22  1  0  0  0
  7  1  1  0  0  0
 20 13  1  0  0  0
 30 31  1  0  0  0
  8  9  1  0  0  0
M  END
> <minimizedAffinity>
-7.17107

> <CNNscore>
0.2390537560

> <CNNaffinity>
7.4914121628

> <CNN_VS>
1.7908501625

> <CNNaffinity_variance>
0.3710286021

$$$$
[H]c1nc(Oc2c([H])c([H])c(C(=O)N([H])C([H])([H])C([H])([H])N3C([H])([H])C([H])([H])C([H])([H])C3([H])[H])c([H])c2[H])c(N([H])S(=O)(=O)c2c([H])c([H])c(Cl)c(Cl)c2[H])c([H])c1Cl


 38 41  0  0  0  0  0  0  0  0999 V2000
   12.3365   22.2619    0.3304 C   0  0  0  0  0  0  0  0  0  0  0  0
   12.6073   21.4911    1.3991 N   0  0  0  0  0  0  0  0  0  0  0  0
   13.7120   20.7420    1.4604 C   0  0  0  0  0  0  0  0  0  0  0  0
   14.5814   20.7631    0.4139 C   0  0  0  0  0  0  0  0  0  0  0  0
   16.0293   19.7752    0.5041 Cl  0  0  0  0  0  0  0  0  0  0  0  0
   14.3187   21.5601   -0.7106 C   0  0  0  0  0  0  0  0  0  0  0  0
   13.1773   22.3224   -0.7546 C   0  0  0  0  0  0  0  0  0  0  0  0
   12.8392   23.1729   -1.8321 N   0  0  0  0  0  0  0  0  0  0  0  0
   12.4751   22.7718   -2.7461 H   0  0  0  0  0  0  0  0  0  0  0  0
   13.0162   24.8706   -1.6683 S   0  0  0  0  0  0  0  0  0  0  0  0
   11.6676   25.5238   -1.9425 O   0  0  0  0  0  0  0  0  0  0  0  0
   13.4052   25.1467   -0.2178 O   0  0  0  0  0  0  0  0  0  0  0  0
   14.1988   25.5912   -2.6946 C   0  0  0  0  0  0  0  0  0  0  0  0
   15.4848   25.8746   -2.2221 C   0  0  0  0  0  0  0  0  0  0  0  0
   16.3841   26.4484   -3.0739 C   0  0  0  0  0  0  0  0  0  0  0  0
   16.0394   26.7476   -4.3814 C   0  0  0  0  0  0  0  0  0  0  0  0
   17.1996   27.4821   -5.4571 Cl  0  0  0  0  0  0  0  0  0  0  0  0
   14.7640   26.4680   -4.8544 C   0  0  0  0  0  0  0  0  0  0  0  0
   14.3716   26.8607   -6.5076 Cl  0  0  0  0  0  0  0  0  0  0  0  0
   13.8477   25.8841   -3.9895 C   0  0  0  0  0  0  0  0  0  0  0  0
   11.1593   23.0174    0.3425 O   0  0  0  0  0  0  0  0  0  0  0  0
    7.4936   21.2943    1.4368 C   0  0  0  0  0  0  0  0  0  0  0  0
    8.1013   22.2647    2.2476 C   0  0  0  0  0  0  0  0  0  0  0  0
    9.3105   22.8260    1.8778 C   0  0  0  0  0  0  0  0  0  0  0  0
    9.9507   22.4583    0.7184 C   0  0  0  0  0  0  0  0  0  0  0  0
    9.3358   21.5067   -0.0573 C   0  0  0  0  0  0  0  0  0  0  0  0
    8.1263   20.9295    0.2901 C   0  0  0  0  0  0  0  0  0  0  0  0
    5.5081   21.3274    2.7255 O   0  0  0  0  0  0  0  0  0  0  0  0
    6.2155   20.7264    1.8370 C   0  0  0  0  0  0  0  0  0  0  0  0
    5.7040   19.5316    1.2918 N   0  0  0  0  0  0  0  0  0  0  0  0
    6.3007   19.0586    0.5694 H   0  0  0  0  0  0  0  0  0  0  0  0
    4.4590   18.9021    1.6284 C   0  0  0  0  0  0  0  0  0  0  0  0
    3.5801   18.8463    0.4092 C   0  0  0  0  0  0  0  0  0  0  0  0
    4.3631   18.5443   -0.7541 N   0  0  0  0  0  0  0  0  0  0  0  0
    4.4625   19.5833   -1.7210 C   0  0  0  0  0  0  0  0  0  0  0  0
    3.5968   19.1852   -2.9048 C   0  0  0  0  0  0  0  0  0  0  0  0
    3.5931   17.6859   -2.8134 C   0  0  0  0  0  0  0  0  0  0  0  0
    4.0236   17.3249   -1.4158 C   0  0  0  0  0  0  0  0  0  0  0  0
 28 29  2  0  0  0
 29 30  1  0  0  0
 30 32  1  0  0  0
 32 33  1  0  0  0
 33 34  1  0  0  0
 34 35  1  0  0  0
 35 36  1  0  0  0
 36 37  1  0  0  0
 37 38  1  0  0  0
 29 22  1  0  0  0
 22 23  2  0  0  0
 23 24  1  0  0  0
 24 25  2  0  0  0
 25 21  1  0  0  0
 21  1  1  0  0  0
  1  2  2  0  0  0
  2  3  1  0  0  0
  3  4  2  0  0  0
  4  5  1  0  0  0
  4  6  1  0  0  0
  6  7  2  0  0  0
  7  8  1  0  0  0
  8 10  1  0  0  0
 10 11  2  0  0  0
 10 12  2  0  0  0
 10 13  1  0  0  0
 13 14  2  0  0  0
 14 15  1  0  0  0
 15 16  2  0  0  0
 16 17  1  0  0  0
 16 18  1  0  0  0
 18 19  1  0  0  0
 18 20  2  0  0  0
 25 26  1  0  0  0
 26 27  2  0  0  0
 38 34  1  0  0  0
 27 22  1  0  0  0
  7  1  1  0  0  0
 20 13  1  0  0  0
 30 31  1  0  0  0
  8  9  1  0  0  0
M  END
> <minimizedAffinity>
-6.29683

> <CNNscore>
0.2358708084

> <CNNaffinity>
7.3177733421

> <CNN_VS>
1.7260490656

> <CNNaffinity_variance>
0.5764745474

$$$$
[H]c1nc(Oc2c([H])c([H])c(C(=O)N([H])C([H])([H])C([H])([H])N3C([H])([H])C([H])([H])C([H])([H])C3([H])[H])c([H])c2[H])c(N([H])S(=O)(=O)c2c([H])c([H])c(Cl)c(Cl)c2[H])c([H])c1Cl


 38 41  0  0  0  0  0  0  0  0999 V2000
   13.9403   21.9702    0.8068 C   0  0  0  0  0  0  0  0  0  0  0  0
   15.0879   21.3279    1.0900 N   0  0  0  0  0  0  0  0  0  0  0  0
   16.2599   21.9687    1.1209 C   0  0  0  0  0  0  0  0  0  0  0  0
   16.2881   23.3036    0.8593 C   0  0  0  0  0  0  0  0  0  0  0  0
   17.8328   24.1360    0.9020 Cl  0  0  0  0  0  0  0  0  0  0  0  0
   15.1031   23.9934    0.5619 C   0  0  0  0  0  0  0  0  0  0  0  0
   13.9085   23.3165    0.5343 C   0  0  0  0  0  0  0  0  0  0  0  0
   12.6622   23.9287    0.2682 N   0  0  0  0  0  0  0  0  0  0  0  0
   12.1017   24.3800    1.0499 H   0  0  0  0  0  0  0  0  0  0  0  0
   12.0435   23.9465   -1.3309 S   0  0  0  0  0  0  0  0  0  0  0  0
   11.9301   22.5080   -1.8191 O   0  0  0  0  0  0  0  0  0  0  0  0
   10.6428   24.5510   -1.2671 O   0  0  0  0  0  0  0  0  0  0  0  0
   12.9720   24.8460   -2.4709 C   0  0  0  0  0  0  0  0  0  0  0  0
   12.6047   26.1471   -2.8313 C   0  0  0  0  0  0  0  0  0  0  0  0
   13.3718   26.8162   -3.7409 C   0  0  0  0  0  0  0  0  0  0  0  0
   14.4929   26.2272   -4.3012 C   0  0  0  0  0  0  0  0  0  0  0  0
   15.4619   27.0950   -5.4634 Cl  0  0  0  0  0  0  0  0  0  0  0  0
   14.8609   24.9359   -3.9464 C   0  0  0  0  0  0  0  0  0  0  0  0
   16.2799   24.2318   -4.6758 Cl  0  0  0  0  0  0  0  0  0  0  0  0
   14.0821   24.2535   -3.0211 C   0  0  0  0  0  0  0  0  0  0  0  0
   12.7543   21.2287    0.7943 O   0  0  0  0  0  0  0  0  0  0  0  0
   10.7637   20.2537    4.3566 C   0  0  0  0  0  0  0  0  0  0  0  0
   11.6717   19.3573    3.7731 C   0  0  0  0  0  0  0  0  0  0  0  0
   12.3222   19.6885    2.5978 C   0  0  0  0  0  0  0  0  0  0  0  0
   12.1054   20.8913    1.9689 C   0  0  0  0  0  0  0  0  0  0  0  0
   11.2122   21.7506    2.5596 C   0  0  0  0  0  0  0  0  0  0  0  0
   10.5482   21.4434    3.7349 C   0  0  0  0  0  0  0  0  0  0  0  0
   10.2202   20.6566    6.6251 O   0  0  0  0  0  0  0  0  0  0  0  0
   10.1004   19.8917    5.5997 C   0  0  0  0  0  0  0  0  0  0  0  0
    9.3200   18.7266    5.7402 N   0  0  0  0  0  0  0  0  0  0  0  0
    9.2386   18.1174    4.8894 H   0  0  0  0  0  0  0  0  0  0  0  0
    8.6348   18.2938    6.9247 C   0  0  0  0  0  0  0  0  0  0  0  0
    8.3863   16.8125    6.8466 C   0  0  0  0  0  0  0  0  0  0  0  0
    6.9786   16.5486    6.7670 N   0  0  0  0  0  0  0  0  0  0  0  0
    6.5619   15.7314    5.6795 C   0  0  0  0  0  0  0  0  0  0  0  0
    5.8674   16.6345    4.6738 C   0  0  0  0  0  0  0  0  0  0  0  0
    5.3643   17.7550    5.5384 C   0  0  0  0  0  0  0  0  0  0  0  0
    6.1392   17.7026    6.8291 C   0  0  0  0  0  0  0  0  0  0  0  0
 28 29  2  0  0  0
 29 30  1  0  0  0
 30 32  1  0  0  0
 32 33  1  0  0  0
 33 34  1  0  0  0
 34 35  1  0  0  0
 35 36  1  0  0  0
 36 37  1  0  0  0
 37 38  1  0  0  0
 29 22  1  0  0  0
 22 23  2  0  0  0
 23 24  1  0  0  0
 24 25  2  0  0  0
 25 21  1  0  0  0
 21  1  1  0  0  0
  1  2  2  0  0  0
  2  3  1  0  0  0
  3  4  2  0  0  0
  4  5  1  0  0  0
  4  6  1  0  0  0
  6  7  2  0  0  0
  7  8  1  0  0  0
  8 10  1  0  0  0
 10 11  2  0  0  0
 10 12  2  0  0  0
 10 13  1  0  0  0
 13 14  2  0  0  0
 14 15  1  0  0  0
 15 16  2  0  0  0
 16 17  1  0  0  0
 16 18  1  0  0  0
 18 19  1  0  0  0
 18 20  2  0  0  0
 25 26  1  0  0  0
 26 27  2  0  0  0
 38 34  1  0  0  0
 27 22  1  0  0  0
  7  1  1  0  0  0
 20 13  1  0  0  0
 30 31  1  0  0  0
  8  9  1  0  0  0
M  END
> <minimizedAffinity>
-7.71706

> <CNNscore>
0.2316633761

> <CNNaffinity>
7.1722769737

> <CNN_VS>
1.6615538597

> <CNNaffinity_variance>
0.0712031871

$$$$
[H]c1nc(Oc2c([H])c([H])c(C(=O)N([H])C([H])([H])C([H])([H])N3C([H])([H])C([H])([H])C([H])([H])C3([H])[H])c([H])c2[H])c(N([H])S(=O)(=O)c2c([H])c([H])c(Cl)c(Cl)c2[H])c([H])c1Cl


 38 41  0  0  0  0  0  0  0  0999 V2000
   12.5101   22.4603    1.2765 C   0  0  0  0  0  0  0  0  0  0  0  0
   12.5926   21.2254    1.8037 N   0  0  0  0  0  0  0  0  0  0  0  0
   13.6410   20.4315    1.5672 C   0  0  0  0  0  0  0  0  0  0  0  0
   14.6473   20.8880    0.7733 C   0  0  0  0  0  0  0  0  0  0  0  0
   16.0198   19.8373    0.4684 Cl  0  0  0  0  0  0  0  0  0  0  0  0
   14.5818   22.1729    0.2132 C   0  0  0  0  0  0  0  0  0  0  0  0
   13.4953   22.9732    0.4679 C   0  0  0  0  0  0  0  0  0  0  0  0
   13.3513   24.2881   -0.0315 N   0  0  0  0  0  0  0  0  0  0  0  0
   13.6577   25.1246    0.5474 H   0  0  0  0  0  0  0  0  0  0  0  0
   12.6759   24.5417   -1.5870 S   0  0  0  0  0  0  0  0  0  0  0  0
   12.4916   23.1868   -2.2585 O   0  0  0  0  0  0  0  0  0  0  0  0
   11.3018   25.1763   -1.3854 O   0  0  0  0  0  0  0  0  0  0  0  0
   13.5950   25.5572   -2.6334 C   0  0  0  0  0  0  0  0  0  0  0  0
   12.9773   26.2797   -3.6600 C   0  0  0  0  0  0  0  0  0  0  0  0
   13.7502   27.0676   -4.4634 C   0  0  0  0  0  0  0  0  0  0  0  0
   15.1191   27.1563   -4.2738 C   0  0  0  0  0  0  0  0  0  0  0  0
   16.0930   28.1665   -5.3100 Cl  0  0  0  0  0  0  0  0  0  0  0  0
   15.7363   26.4406   -3.2562 C   0  0  0  0  0  0  0  0  0  0  0  0
   17.4625   26.5810   -3.0521 Cl  0  0  0  0  0  0  0  0  0  0  0  0
   14.9519   25.6387   -2.4376 C   0  0  0  0  0  0  0  0  0  0  0  0
   11.3800   23.2301    1.5717 O   0  0  0  0  0  0  0  0  0  0  0  0
    7.5460   21.5266    1.5274 C   0  0  0  0  0  0  0  0  0  0  0  0
    7.9705   22.3114    2.6101 C   0  0  0  0  0  0  0  0  0  0  0  0
    9.2371   22.8679    2.6149 C   0  0  0  0  0  0  0  0  0  0  0  0
   10.1127   22.6747    1.5732 C   0  0  0  0  0  0  0  0  0  0  0  0
    9.6737   21.9028    0.5260 C   0  0  0  0  0  0  0  0  0  0  0  0
    8.4116   21.3345    0.4967 C   0  0  0  0  0  0  0  0  0  0  0  0
    5.4399   21.1378    0.5189 O   0  0  0  0  0  0  0  0  0  0  0  0
    6.2054   20.9618    1.5357 C   0  0  0  0  0  0  0  0  0  0  0  0
    5.6941   20.2191    2.6189 N   0  0  0  0  0  0  0  0  0  0  0  0
    6.3376   20.0904    3.4381 H   0  0  0  0  0  0  0  0  0  0  0  0
    4.3887   19.6298    2.7115 C   0  0  0  0  0  0  0  0  0  0  0  0
    4.4172   18.5031    3.7073 C   0  0  0  0  0  0  0  0  0  0  0  0
    5.7258   17.9177    3.7576 N   0  0  0  0  0  0  0  0  0  0  0  0
    5.7761   16.5013    3.6332 C   0  0  0  0  0  0  0  0  0  0  0  0
    6.0969   15.9366    5.0072 C   0  0  0  0  0  0  0  0  0  0  0  0
    6.8409   17.0685    5.6566 C   0  0  0  0  0  0  0  0  0  0  0  0
    6.5271   18.3150    4.8712 C   0  0  0  0  0  0  0  0  0  0  0  0
 28 29  2  0  0  0
 29 30  1  0  0  0
 30 32  1  0  0  0
 32 33  1  0  0  0
 33 34  1  0  0  0
 34 35  1  0  0  0
 35 36  1  0  0  0
 36 37  1  0  0  0
 37 38  1  0  0  0
 29 22  1  0  0  0
 22 23  2  0  0  0
 23 24  1  0  0  0
 24 25  2  0  0  0
 25 21  1  0  0  0
 21  1  1  0  0  0
  1  2  2  0  0  0
  2  3  1  0  0  0
  3  4  2  0  0  0
  4  5  1  0  0  0
  4  6  1  0  0  0
  6  7  2  0  0  0
  7  8  1  0  0  0
  8 10  1  0  0  0
 10 11  2  0  0  0
 10 12  2  0  0  0
 10 13  1  0  0  0
 13 14  2  0  0  0
 14 15  1  0  0  0
 15 16  2  0  0  0
 16 17  1  0  0  0
 16 18  1  0  0  0
 18 19  1  0  0  0
 18 20  2  0  0  0
 25 26  1  0  0  0
 26 27  2  0  0  0
 38 34  1  0  0  0
 27 22  1  0  0  0
  7  1  1  0  0  0
 20 13  1  0  0  0
 30 31  1  0  0  0
  8  9  1  0  0  0
M  END
> <minimizedAffinity>
-6.25938

> <CNNscore>
0.1904622167

> <CNNaffinity>
6.9062867165

> <CNN_VS>
1.3153866529

> <CNNaffinity_variance>
0.4085892737

$$$$
[H]c1nc(Oc2c([H])c([H])c(C(=O)N([H])C([H])([H])C([H])([H])N3C([H])([H])C([H])([H])C([H])([H])C3([H])[H])c([H])c2[H])c(N([H])S(=O)(=O)c2c([H])c([H])c(Cl)c(Cl)c2[H])c([H])c1Cl


 38 41  0  0  0  0  0  0  0  0999 V2000
   13.2149   25.0700   -0.9544 C   0  0  0  0  0  0  0  0  0  0  0  0
   12.7692   25.8448   -1.9598 N   0  0  0  0  0  0  0  0  0  0  0  0
   13.3323   25.8130   -3.1710 C   0  0  0  0  0  0  0  0  0  0  0  0
   14.3817   24.9745   -3.3880 C   0  0  0  0  0  0  0  0  0  0  0  0
   15.1146   24.9406   -4.9825 Cl  0  0  0  0  0  0  0  0  0  0  0  0
   14.8625   24.1575   -2.3537 C   0  0  0  0  0  0  0  0  0  0  0  0
   14.2705   24.2054   -1.1155 C   0  0  0  0  0  0  0  0  0  0  0  0
   14.6689   23.4050   -0.0204 N   0  0  0  0  0  0  0  0  0  0  0  0
   15.0718   23.8482    0.8572 H   0  0  0  0  0  0  0  0  0  0  0  0
   14.5027   21.7004   -0.1032 S   0  0  0  0  0  0  0  0  0  0  0  0
   15.2116   21.2080   -1.3583 O   0  0  0  0  0  0  0  0  0  0  0  0
   15.2115   21.1171    1.1170 O   0  0  0  0  0  0  0  0  0  0  0  0
   12.8807   21.1175   -0.1193 C   0  0  0  0  0  0  0  0  0  0  0  0
   12.3328   20.4833    1.0010 C   0  0  0  0  0  0  0  0  0  0  0  0
   11.0443   20.0370    0.9365 C   0  0  0  0  0  0  0  0  0  0  0  0
   10.2868   20.2041   -0.2107 C   0  0  0  0  0  0  0  0  0  0  0  0
    8.6421   19.6268   -0.2778 Cl  0  0  0  0  0  0  0  0  0  0  0  0
   10.8268   20.8329   -1.3250 C   0  0  0  0  0  0  0  0  0  0  0  0
    9.8383   21.0228   -2.7491 Cl  0  0  0  0  0  0  0  0  0  0  0  0
   12.1373   21.2879   -1.2614 C   0  0  0  0  0  0  0  0  0  0  0  0
   12.5718   25.1612    0.2844 O   0  0  0  0  0  0  0  0  0  0  0  0
    8.8562   23.3139    0.9056 C   0  0  0  0  0  0  0  0  0  0  0  0
    9.7057   23.5989    1.9851 C   0  0  0  0  0  0  0  0  0  0  0  0
   10.9292   24.2077    1.7691 C   0  0  0  0  0  0  0  0  0  0  0  0
   11.3501   24.5507    0.5064 C   0  0  0  0  0  0  0  0  0  0  0  0
   10.5009   24.2610   -0.5330 C   0  0  0  0  0  0  0  0  0  0  0  0
    9.2719   23.6523   -0.3439 C   0  0  0  0  0  0  0  0  0  0  0  0
    7.0504   22.7528    2.3296 O   0  0  0  0  0  0  0  0  0  0  0  0
    7.5682   22.6857    1.1557 C   0  0  0  0  0  0  0  0  0  0  0  0
    6.8466   21.9959    0.1608 N   0  0  0  0  0  0  0  0  0  0  0  0
    7.2909   21.9534   -0.7892 H   0  0  0  0  0  0  0  0  0  0  0  0
    5.5759   21.3480    0.3200 C   0  0  0  0  0  0  0  0  0  0  0  0
    5.5185   20.1334   -0.5651 C   0  0  0  0  0  0  0  0  0  0  0  0
    4.2583   20.0755   -1.2478 N   0  0  0  0  0  0  0  0  0  0  0  0
    4.2129   19.2344   -2.3945 C   0  0  0  0  0  0  0  0  0  0  0  0
    4.1836   20.1361   -3.6173 C   0  0  0  0  0  0  0  0  0  0  0  0
    3.5612   21.3924   -3.0782 C   0  0  0  0  0  0  0  0  0  0  0  0
    3.6869   21.3422   -1.5780 C   0  0  0  0  0  0  0  0  0  0  0  0
 28 29  2  0  0  0
 29 30  1  0  0  0
 30 32  1  0  0  0
 32 33  1  0  0  0
 33 34  1  0  0  0
 34 35  1  0  0  0
 35 36  1  0  0  0
 36 37  1  0  0  0
 37 38  1  0  0  0
 29 22  1  0  0  0
 22 23  2  0  0  0
 23 24  1  0  0  0
 24 25  2  0  0  0
 25 21  1  0  0  0
 21  1  1  0  0  0
  1  2  2  0  0  0
  2  3  1  0  0  0
  3  4  2  0  0  0
  4  5  1  0  0  0
  4  6  1  0  0  0
  6  7  2  0  0  0
  7  8  1  0  0  0
  8 10  1  0  0  0
 10 11  2  0  0  0
 10 12  2  0  0  0
 10 13  1  0  0  0
 13 14  2  0  0  0
 14 15  1  0  0  0
 15 16  2  0  0  0
 16 17  1  0  0  0
 16 18  1  0  0  0
 18 19  1  0  0  0
 18 20  2  0  0  0
 25 26  1  0  0  0
 26 27  2  0  0  0
 38 34  1  0  0  0
 27 22  1  0  0  0
  7  1  1  0  0  0
 20 13  1  0  0  0
 30 31  1  0  0  0
  8  9  1  0  0  0
M  END
> <minimizedAffinity>
-7.00944

> <CNNscore>
0.1870482713

> <CNNaffinity>
7.4668664932

> <CNN_VS>
1.3966645002

> <CNNaffinity_variance>
0.0939939767

$$$$
[H]c1nc(Oc2c([H])c([H])c(C(=O)N([H])C([H])([H])C([H])([H])N3C([H])([H])C([H])([H])C([H])([H])C3([H])[H])c([H])c2[H])c(N([H])S(=O)(=O)c2c([H])c([H])c(Cl)c(Cl)c2[H])c([H])c1Cl


 38 41  0  0  0  0  0  0  0  0999 V2000
   12.1390   21.9234    1.3190 C   0  0  0  0  0  0  0  0  0  0  0  0
   13.1743   22.7760    1.2147 N   0  0  0  0  0  0  0  0  0  0  0  0
   13.9004   22.8625    0.0965 C   0  0  0  0  0  0  0  0  0  0  0  0
   13.5806   22.0670   -0.9600 C   0  0  0  0  0  0  0  0  0  0  0  0
   14.5408   22.1881   -2.4242 Cl  0  0  0  0  0  0  0  0  0  0  0  0
   12.5045   21.1708   -0.8731 C   0  0  0  0  0  0  0  0  0  0  0  0
   11.7709   21.0963    0.2854 C   0  0  0  0  0  0  0  0  0  0  0  0
   10.6573   20.2428    0.4590 N   0  0  0  0  0  0  0  0  0  0  0  0
   10.7891   19.2357    0.7705 H   0  0  0  0  0  0  0  0  0  0  0  0
    9.0745   20.8336    0.1654 S   0  0  0  0  0  0  0  0  0  0  0  0
    9.1817   22.1024   -0.6707 O   0  0  0  0  0  0  0  0  0  0  0  0
    8.3402   19.7728   -0.6513 O   0  0  0  0  0  0  0  0  0  0  0  0
    8.1422   21.1763    1.5740 C   0  0  0  0  0  0  0  0  0  0  0  0
    7.2984   22.2912    1.6246 C   0  0  0  0  0  0  0  0  0  0  0  0
    6.5833   22.5204    2.7647 C   0  0  0  0  0  0  0  0  0  0  0  0
    6.6846   21.6720    3.8545 C   0  0  0  0  0  0  0  0  0  0  0  0
    5.7653   21.9795    5.3046 Cl  0  0  0  0  0  0  0  0  0  0  0  0
    7.5211   20.5644    3.8085 C   0  0  0  0  0  0  0  0  0  0  0  0
    7.6190   19.5217    5.2030 Cl  0  0  0  0  0  0  0  0  0  0  0  0
    8.2493   20.3292    2.6496 C   0  0  0  0  0  0  0  0  0  0  0  0
   11.4279   21.8922    2.5232 O   0  0  0  0  0  0  0  0  0  0  0  0
    9.0563   25.1525    3.6849 C   0  0  0  0  0  0  0  0  0  0  0  0
    9.2757   24.0769    4.5585 C   0  0  0  0  0  0  0  0  0  0  0  0
   10.0589   23.0064    4.1651 C   0  0  0  0  0  0  0  0  0  0  0  0
   10.6424   22.9594    2.9215 C   0  0  0  0  0  0  0  0  0  0  0  0
   10.4121   24.0237    2.0852 C   0  0  0  0  0  0  0  0  0  0  0  0
    9.6325   25.1066    2.4543 C   0  0  0  0  0  0  0  0  0  0  0  0
    8.7035   27.4689    4.0217 O   0  0  0  0  0  0  0  0  0  0  0  0
    8.2406   26.2746    4.1229 C   0  0  0  0  0  0  0  0  0  0  0  0
    6.9476   26.1174    4.6611 N   0  0  0  0  0  0  0  0  0  0  0  0
    6.5925   25.1325    4.7351 H   0  0  0  0  0  0  0  0  0  0  0  0
    6.0782   27.1640    5.1178 C   0  0  0  0  0  0  0  0  0  0  0  0
    4.8413   27.1966    4.2628 C   0  0  0  0  0  0  0  0  0  0  0  0
    4.7427   28.4540    3.5797 N   0  0  0  0  0  0  0  0  0  0  0  0
    4.7495   28.3893    2.1584 C   0  0  0  0  0  0  0  0  0  0  0  0
    6.1044   28.8917    1.6881 C   0  0  0  0  0  0  0  0  0  0  0  0
    6.5170   29.8051    2.8069 C   0  0  0  0  0  0  0  0  0  0  0  0
    5.6736   29.4509    4.0037 C   0  0  0  0  0  0  0  0  0  0  0  0
 28 29  2  0  0  0
 29 30  1  0  0  0
 30 32  1  0  0  0
 32 33  1  0  0  0
 33 34  1  0  0  0
 34 35  1  0  0  0
 35 36  1  0  0  0
 36 37  1  0  0  0
 37 38  1  0  0  0
 29 22  1  0  0  0
 22 23  2  0  0  0
 23 24  1  0  0  0
 24 25  2  0  0  0
 25 21  1  0  0  0
 21  1  1  0  0  0
  1  2  2  0  0  0
  2  3  1  0  0  0
  3  4  2  0  0  0
  4  5  1  0  0  0
  4  6  1  0  0  0
  6  7  2  0  0  0
  7  8  1  0  0  0
  8 10  1  0  0  0
 10 11  2  0  0  0
 10 12  2  0  0  0
 10 13  1  0  0  0
 13 14  2  0  0  0
 14 15  1  0  0  0
 15 16  2  0  0  0
 16 17  1  0  0  0
 16 18  1  0  0  0
 18 19  1  0  0  0
 18 20  2  0  0  0
 25 26  1  0  0  0
 26 27  2  0  0  0
 38 34  1  0  0  0
 27 22  1  0  0  0
  7  1  1  0  0  0
 20 13  1  0  0  0
 30 31  1  0  0  0
  8  9  1  0  0  0
M  END
> <minimizedAffinity>
-5.73590

> <CNNscore>
0.1740169078

> <CNNaffinity>
6.4191384315

> <CNN_VS>
1.1170386076

> <CNNaffinity_variance>
0.2774618268

$$$$
[H]c1nc(Oc2c([H])c([H])c(C(=O)N([H])C([H])([H])C([H])([H])N3C([H])([H])C([H])([H])C([H])([H])C3([H])[H])c([H])c2[H])c(N([H])S(=O)(=O)c2c([H])c([H])c(Cl)c(Cl)c2[H])c([H])c1Cl


 38 41  0  0  0  0  0  0  0  0999 V2000
   10.5857   21.9085    0.9708 C   0  0  0  0  0  0  0  0  0  0  0  0
    9.6075   21.0083    0.7644 N   0  0  0  0  0  0  0  0  0  0  0  0
    9.2167   20.6689   -0.4674 C   0  0  0  0  0  0  0  0  0  0  0  0
    9.8263   21.2505   -1.5358 C   0  0  0  0  0  0  0  0  0  0  0  0
    9.3052   20.7980   -3.1497 Cl  0  0  0  0  0  0  0  0  0  0  0  0
   10.8489   22.1917   -1.3435 C   0  0  0  0  0  0  0  0  0  0  0  0
   11.2357   22.5277   -0.0694 C   0  0  0  0  0  0  0  0  0  0  0  0
   12.2700   23.4460    0.2234 N   0  0  0  0  0  0  0  0  0  0  0  0
   12.0754   24.3160    0.8013 H   0  0  0  0  0  0  0  0  0  0  0  0
   13.8575   23.1580   -0.3573 S   0  0  0  0  0  0  0  0  0  0  0  0
   14.8495   23.6603    0.6840 O   0  0  0  0  0  0  0  0  0  0  0  0
   14.0209   21.6462   -0.4962 O   0  0  0  0  0  0  0  0  0  0  0  0
   14.2314   23.8864   -1.8741 C   0  0  0  0  0  0  0  0  0  0  0  0
   15.2132   23.3439   -2.7102 C   0  0  0  0  0  0  0  0  0  0  0  0
   15.4739   23.9602   -3.9001 C   0  0  0  0  0  0  0  0  0  0  0  0
   14.7856   25.1000   -4.2805 C   0  0  0  0  0  0  0  0  0  0  0  0
   15.1317   25.8766   -5.8036 Cl  0  0  0  0  0  0  0  0  0  0  0  0
   13.8105   25.6419   -3.4534 C   0  0  0  0  0  0  0  0  0  0  0  0
   12.9674   27.0782   -3.9707 Cl  0  0  0  0  0  0  0  0  0  0  0  0
   13.5434   25.0164   -2.2426 C   0  0  0  0  0  0  0  0  0  0  0  0
   10.9376   22.2102    2.2906 O   0  0  0  0  0  0  0  0  0  0  0  0
    8.5076   24.6177    4.7201 C   0  0  0  0  0  0  0  0  0  0  0  0
    9.0217   25.1068    3.5098 C   0  0  0  0  0  0  0  0  0  0  0  0
    9.8226   24.3047    2.7165 C   0  0  0  0  0  0  0  0  0  0  0  0
   10.1385   23.0175    3.0806 C   0  0  0  0  0  0  0  0  0  0  0  0
    9.6235   22.5627    4.2694 C   0  0  0  0  0  0  0  0  0  0  0  0
    8.8200   23.3448    5.0815 C   0  0  0  0  0  0  0  0  0  0  0  0
    8.1218   25.9774    6.6190 O   0  0  0  0  0  0  0  0  0  0  0  0
    7.6564   25.4726    5.5330 C   0  0  0  0  0  0  0  0  0  0  0  0
    6.3259   25.7815    5.1855 N   0  0  0  0  0  0  0  0  0  0  0  0
    5.9683   25.3560    4.2951 H   0  0  0  0  0  0  0  0  0  0  0  0
    5.4189   26.6109    5.9265 C   0  0  0  0  0  0  0  0  0  0  0  0
    5.3602   27.9757    5.2974 C   0  0  0  0  0  0  0  0  0  0  0  0
    5.5898   27.8816    3.8846 N   0  0  0  0  0  0  0  0  0  0  0  0
    6.7928   28.4759    3.4113 C   0  0  0  0  0  0  0  0  0  0  0  0
    6.4112   29.7545    2.6841 C   0  0  0  0  0  0  0  0  0  0  0  0
    5.0085   29.4637    2.2323 C   0  0  0  0  0  0  0  0  0  0  0  0
    4.5042   28.3121    3.0622 C   0  0  0  0  0  0  0  0  0  0  0  0
 28 29  2  0  0  0
 29 30  1  0  0  0
 30 32  1  0  0  0
 32 33  1  0  0  0
 33 34  1  0  0  0
 34 35  1  0  0  0
 35 36  1  0  0  0
 36 37  1  0  0  0
 37 38  1  0  0  0
 29 22  1  0  0  0
 22 23  2  0  0  0
 23 24  1  0  0  0
 24 25  2  0  0  0
 25 21  1  0  0  0
 21  1  1  0  0  0
  1  2  2  0  0  0
  2  3  1  0  0  0
  3  4  2  0  0  0
  4  5  1  0  0  0
  4  6  1  0  0  0
  6  7  2  0  0  0
  7  8  1  0  0  0
  8 10  1  0  0  0
 10 11  2  0  0  0
 10 12  2  0  0  0
 10 13  1  0  0  0
 13 14  2  0  0  0
 14 15  1  0  0  0
 15 16  2  0  0  0
 16 17  1  0  0  0
 16 18  1  0  0  0
 18 19  1  0  0  0
 18 20  2  0  0  0
 25 26  1  0  0  0
 26 27  2  0  0  0
 38 34  1  0  0  0
 27 22  1  0  0  0
  7  1  1  0  0  0
 20 13  1  0  0  0
 30 31  1  0  0  0
  8  9  1  0  0  0
M  END
> <minimizedAffinity>
-9.29892

> <CNNscore>
0.1717970222

> <CNNaffinity>
7.2557191849

> <CNN_VS>
1.2465109825

> <CNNaffinity_variance>
0.2873276770

$$$$
[H]c1nc(Oc2c([H])c([H])c(C(=O)N([H])C([H])([H])C([H])([H])N3C([H])([H])C([H])([H])C([H])([H])C3([H])[H])c([H])c2[H])c(N([H])S(=O)(=O)c2c([H])c([H])c(Cl)c(Cl)c2[H])c([H])c1Cl


 38 41  0  0  0  0  0  0  0  0999 V2000
   13.6163   25.1380   -1.5872 C   0  0  0  0  0  0  0  0  0  0  0  0
   13.2017   26.0148   -2.5194 N   0  0  0  0  0  0  0  0  0  0  0  0
   13.6913   25.9991   -3.7625 C   0  0  0  0  0  0  0  0  0  0  0  0
   14.6317   25.0715   -4.0887 C   0  0  0  0  0  0  0  0  0  0  0  0
   15.2688   25.0596   -5.7241 Cl  0  0  0  0  0  0  0  0  0  0  0  0
   15.0783   24.1473   -3.1321 C   0  0  0  0  0  0  0  0  0  0  0  0
   14.5632   24.1803   -1.8595 C   0  0  0  0  0  0  0  0  0  0  0  0
   14.9331   23.2774   -0.8363 N   0  0  0  0  0  0  0  0  0  0  0  0
   15.5563   23.5913   -0.0352 H   0  0  0  0  0  0  0  0  0  0  0  0
   14.3730   21.6574   -0.8833 S   0  0  0  0  0  0  0  0  0  0  0  0
   14.0141   21.3137   -2.3233 O   0  0  0  0  0  0  0  0  0  0  0  0
   15.5319   20.7654   -0.4440 O   0  0  0  0  0  0  0  0  0  0  0  0
   13.0145   21.3174    0.1216 C   0  0  0  0  0  0  0  0  0  0  0  0
   13.0209   21.6564    1.4790 C   0  0  0  0  0  0  0  0  0  0  0  0
   11.9212   21.3629    2.2327 C   0  0  0  0  0  0  0  0  0  0  0  0
   10.8167   20.7422    1.6738 C   0  0  0  0  0  0  0  0  0  0  0  0
    9.4197   20.3725    2.6508 Cl  0  0  0  0  0  0  0  0  0  0  0  0
   10.8063   20.4038    0.3269 C   0  0  0  0  0  0  0  0  0  0  0  0
    9.3950   19.6233   -0.3368 Cl  0  0  0  0  0  0  0  0  0  0  0  0
   11.9239   20.7016   -0.4417 C   0  0  0  0  0  0  0  0  0  0  0  0
   13.0552   25.2191   -0.3084 O   0  0  0  0  0  0  0  0  0  0  0  0
    9.2575   23.6594    0.5566 C   0  0  0  0  0  0  0  0  0  0  0  0
    9.7878   23.5803   -0.7399 C   0  0  0  0  0  0  0  0  0  0  0  0
   11.0409   24.0985   -1.0145 C   0  0  0  0  0  0  0  0  0  0  0  0
   11.8007   24.7006   -0.0401 C   0  0  0  0  0  0  0  0  0  0  0  0
   11.2593   24.7658    1.2200 C   0  0  0  0  0  0  0  0  0  0  0  0
   10.0080   24.2553    1.5210 C   0  0  0  0  0  0  0  0  0  0  0  0
    7.3201   23.4355    1.8983 O   0  0  0  0  0  0  0  0  0  0  0  0
    7.9437   23.0964    0.8274 C   0  0  0  0  0  0  0  0  0  0  0  0
    7.3086   22.1833   -0.0382 N   0  0  0  0  0  0  0  0  0  0  0  0
    7.8386   21.9206   -0.9053 H   0  0  0  0  0  0  0  0  0  0  0  0
    6.0203   21.5798    0.1509 C   0  0  0  0  0  0  0  0  0  0  0  0
    6.1914   20.2110    0.7501 C   0  0  0  0  0  0  0  0  0  0  0  0
    5.3095   20.0450    1.8692 N   0  0  0  0  0  0  0  0  0  0  0  0
    5.7899   20.5363    3.1150 C   0  0  0  0  0  0  0  0  0  0  0  0
    6.1639   19.3323    3.9634 C   0  0  0  0  0  0  0  0  0  0  0  0
    5.2736   18.2568    3.4093 C   0  0  0  0  0  0  0  0  0  0  0  0
    4.8055   18.7215    2.0550 C   0  0  0  0  0  0  0  0  0  0  0  0
 28 29  2  0  0  0
 29 30  1  0  0  0
 30 32  1  0  0  0
 32 33  1  0  0  0
 33 34  1  0  0  0
 34 35  1  0  0  0
 35 36  1  0  0  0
 36 37  1  0  0  0
 37 38  1  0  0  0
 29 22  1  0  0  0
 22 23  2  0  0  0
 23 24  1  0  0  0
 24 25  2  0  0  0
 25 21  1  0  0  0
 21  1  1  0  0  0
  1  2  2  0  0  0
  2  3  1  0  0  0
  3  4  2  0  0  0
  4  5  1  0  0  0
  4  6  1  0  0  0
  6  7  2  0  0  0
  7  8  1  0  0  0
  8 10  1  0  0  0
 10 11  2  0  0  0
 10 12  2  0  0  0
 10 13  1  0  0  0
 13 14  2  0  0  0
 14 15  1  0  0  0
 15 16  2  0  0  0
 16 17  1  0  0  0
 16 18  1  0  0  0
 18 19  1  0  0  0
 18 20  2  0  0  0
 25 26  1  0  0  0
 26 27  2  0  0  0
 38 34  1  0  0  0
 27 22  1  0  0  0
  7  1  1  0  0  0
 20 13  1  0  0  0
 30 31  1  0  0  0
  8  9  1  0  0  0
M  END
> <minimizedAffinity>
-6.83849

> <CNNscore>
0.1625027955

> <CNNaffinity>
7.2104659081

> <CNN_VS>
1.1717208624

> <CNNaffinity_variance>
0.2503660917

$$$$
[H]c1nc(Oc2c([H])c([H])c(C(=O)N([H])C([H])([H])C([H])([H])N3C([H])([H])C([H])([H])C([H])([H])C3([H])[H])c([H])c2[H])c(N([H])S(=O)(=O)c2c([H])c([H])c(Cl)c(Cl)c2[H])c([H])c1Cl


 38 41  0  0  0  0  0  0  0  0999 V2000
   12.3218   22.8432    0.8894 C   0  0  0  0  0  0  0  0  0  0  0  0
   12.3018   21.6238    1.4573 N   0  0  0  0  0  0  0  0  0  0  0  0
   13.3352   20.7838    1.3489 C   0  0  0  0  0  0  0  0  0  0  0  0
   14.4323   21.1761    0.6462 C   0  0  0  0  0  0  0  0  0  0  0  0
   15.7842   20.0651    0.5094 Cl  0  0  0  0  0  0  0  0  0  0  0  0
   14.4745   22.4436    0.0460 C   0  0  0  0  0  0  0  0  0  0  0  0
   13.4018   23.2922    0.1684 C   0  0  0  0  0  0  0  0  0  0  0  0
   13.3611   24.5946   -0.3802 N   0  0  0  0  0  0  0  0  0  0  0  0
   13.2415   25.4438    0.2470 H   0  0  0  0  0  0  0  0  0  0  0  0
   13.5060   24.8125   -2.0748 S   0  0  0  0  0  0  0  0  0  0  0  0
   13.5502   23.4401   -2.7345 O   0  0  0  0  0  0  0  0  0  0  0  0
   12.2486   25.5393   -2.5463 O   0  0  0  0  0  0  0  0  0  0  0  0
   14.8808   25.7171   -2.5871 C   0  0  0  0  0  0  0  0  0  0  0  0
   16.0502   25.7454   -1.8196 C   0  0  0  0  0  0  0  0  0  0  0  0
   17.1104   26.4795   -2.2678 C   0  0  0  0  0  0  0  0  0  0  0  0
   17.0391   27.1853   -3.4571 C   0  0  0  0  0  0  0  0  0  0  0  0
   18.4021   28.1198   -4.0154 Cl  0  0  0  0  0  0  0  0  0  0  0  0
   15.8801   27.1600   -4.2219 C   0  0  0  0  0  0  0  0  0  0  0  0
   15.8327   28.0629   -5.7131 Cl  0  0  0  0  0  0  0  0  0  0  0  0
   14.8005   26.4137   -3.7679 C   0  0  0  0  0  0  0  0  0  0  0  0
   11.2005   23.6642    1.0487 O   0  0  0  0  0  0  0  0  0  0  0  0
    7.7142   22.2836    2.9311 C   0  0  0  0  0  0  0  0  0  0  0  0
    8.9039   22.4495    3.6559 C   0  0  0  0  0  0  0  0  0  0  0  0
   10.0481   22.9048    3.0253 C   0  0  0  0  0  0  0  0  0  0  0  0
   10.0597   23.2070    1.6845 C   0  0  0  0  0  0  0  0  0  0  0  0
    8.8833   23.0359    0.9975 C   0  0  0  0  0  0  0  0  0  0  0  0
    7.7249   22.5818    1.6046 C   0  0  0  0  0  0  0  0  0  0  0  0
    5.6218   21.1769    2.9549 O   0  0  0  0  0  0  0  0  0  0  0  0
    6.5187   21.8167    3.6159 C   0  0  0  0  0  0  0  0  0  0  0  0
    6.2894   22.0328    4.9896 N   0  0  0  0  0  0  0  0  0  0  0  0
    7.0355   22.5590    5.5074 H   0  0  0  0  0  0  0  0  0  0  0  0
    5.1427   21.6104    5.7422 C   0  0  0  0  0  0  0  0  0  0  0  0
    5.5915   20.7971    6.9250 C   0  0  0  0  0  0  0  0  0  0  0  0
    5.2550   19.4158    6.7344 N   0  0  0  0  0  0  0  0  0  0  0  0
    6.3504   18.5369    6.5067 C   0  0  0  0  0  0  0  0  0  0  0  0
    6.3254   18.1525    5.0366 C   0  0  0  0  0  0  0  0  0  0  0  0
    4.8727   18.3060    4.6867 C   0  0  0  0  0  0  0  0  0  0  0  0
    4.2469   19.1652    5.7540 C   0  0  0  0  0  0  0  0  0  0  0  0
 28 29  2  0  0  0
 29 30  1  0  0  0
 30 32  1  0  0  0
 32 33  1  0  0  0
 33 34  1  0  0  0
 34 35  1  0  0  0
 35 36  1  0  0  0
 36 37  1  0  0  0
 37 38  1  0  0  0
 29 22  1  0  0  0
 22 23  2  0  0  0
 23 24  1  0  0  0
 24 25  2  0  0  0
 25 21  1  0  0  0
 21  1  1  0  0  0
  1  2  2  0  0  0
  2  3  1  0  0  0
  3  4  2  0  0  0
  4  5  1  0  0  0
  4  6  1  0  0  0
  6  7  2  0  0  0
  7  8  1  0  0  0
  8 10  1  0  0  0
 10 11  2  0  0  0
 10 12  2  0  0  0
 10 13  1  0  0  0
 13 14  2  0  0  0
 14 15  1  0  0  0
 15 16  2  0  0  0
 16 17  1  0  0  0
 16 18  1  0  0  0
 18 19  1  0  0  0
 18 20  2  0  0  0
 25 26  1  0  0  0
 26 27  2  0  0  0
 38 34  1  0  0  0
 27 22  1  0  0  0
  7  1  1  0  0  0
 20 13  1  0  0  0
 30 31  1  0  0  0
  8  9  1  0  0  0
M  END
> <minimizedAffinity>
-6.92807

> <CNNscore>
0.1586388648

> <CNNaffinity>
6.9573173523

> <CNN_VS>
1.1037008762

> <CNNaffinity_variance>
0.4506343901

$$$$
[H]c1c([H])c(N([H])c2nc(N([H])[H])nc(C([H])([H])Cl)n2)c([H])c([H])c1OC([H])([H])[H]


 21 22  0  0  0  0  0  0  0  0999 V2000
   14.2163   22.4595   -1.9404 C   0  0  0  0  0  0  0  0  0  0  0  0
   14.7869   21.6506   -1.0410 N   0  0  0  0  0  0  0  0  0  0  0  0
   14.2493   21.2506    0.1130 C   0  0  0  0  0  0  0  0  0  0  0  0
   14.9197   20.3867    1.0206 N   0  0  0  0  0  0  0  0  0  0  0  0
   12.9987   21.7004    0.4201 N   0  0  0  0  0  0  0  0  0  0  0  0
   12.3619   22.5219   -0.4437 C   0  0  0  0  0  0  0  0  0  0  0  0
   12.9582   22.8830   -1.5815 N   0  0  0  0  0  0  0  0  0  0  0  0
   15.7086   19.7937    0.6872 H   0  0  0  0  0  0  0  0  0  0  0  0
   14.6260   20.3438    2.0173 H   0  0  0  0  0  0  0  0  0  0  0  0
   14.7780   22.8856   -3.1604 N   0  0  0  0  0  0  0  0  0  0  0  0
   14.8692   22.1322   -3.8976 H   0  0  0  0  0  0  0  0  0  0  0  0
   16.2777   26.7384   -3.8144 C   0  0  0  0  0  0  0  0  0  0  0  0
   15.4972   26.1695   -4.7889 C   0  0  0  0  0  0  0  0  0  0  0  0
   14.9630   24.8848   -4.6185 C   0  0  0  0  0  0  0  0  0  0  0  0
   15.2177   24.1758   -3.4651 C   0  0  0  0  0  0  0  0  0  0  0  0
   16.0242   24.7863   -2.4785 C   0  0  0  0  0  0  0  0  0  0  0  0
   16.5433   26.0479   -2.6556 C   0  0  0  0  0  0  0  0  0  0  0  0
   18.1582   28.2286   -3.8824 C   0  0  0  0  0  0  0  0  0  0  0  0
   16.7902   27.9991   -4.0040 O   0  0  0  0  0  0  0  0  0  0  0  0
   10.9911   23.0380   -0.1468 C   0  0  0  0  0  0  0  0  0  0  0  0
   11.1225   24.5471    0.7837 Cl  0  0  0  0  0  0  0  0  0  0  0  0
 18 19  1  0  0  0
 19 12  1  0  0  0
 12 13  2  0  0  0
 13 14  1  0  0  0
 14 15  2  0  0  0
 15 10  1  0  0  0
 10  1  1  0  0  0
  1  2  2  0  0  0
  2  3  1  0  0  0
  3  4  1  0  0  0
  3  5  2  0  0  0
  5  6  1  0  0  0
  6 20  1  0  0  0
 20 21  1  0  0  0
  6  7  2  0  0  0
 15 16  1  0  0  0
 16 17  2  0  0  0
 17 12  1  0  0  0
  7  1  1  0  0  0
 10 11  1  0  0  0
  4  8  1  0  0  0
  4  9  1  0  0  0
M  END
> <minimizedAffinity>
-7.04045

> <CNNscore>
0.4564422369

> <CNNaffinity>
6.3641519547

> <CNN_VS>
2.9048676491

> <CNNaffinity_variance>
0.1893682182

$$$$
[H]c1c([H])c(N([H])c2nc(N([H])[H])nc(C([H])([H])Cl)n2)c([H])c([H])c1OC([H])([H])[H]


 21 22  0  0  0  0  0  0  0  0999 V2000
   15.6299   25.5621   -3.3924 C   0  0  0  0  0  0  0  0  0  0  0  0
   16.4655   26.5732   -3.1312 N   0  0  0  0  0  0  0  0  0  0  0  0
   16.7905   27.5631   -3.9651 C   0  0  0  0  0  0  0  0  0  0  0  0
   17.6894   28.6065   -3.6145 N   0  0  0  0  0  0  0  0  0  0  0  0
   16.2253   27.5584   -5.2065 N   0  0  0  0  0  0  0  0  0  0  0  0
   15.3706   26.5658   -5.5391 C   0  0  0  0  0  0  0  0  0  0  0  0
   15.0891   25.6058   -4.6560 N   0  0  0  0  0  0  0  0  0  0  0  0
   17.8832   28.8103   -2.6115 H   0  0  0  0  0  0  0  0  0  0  0  0
   18.1551   29.1682   -4.3555 H   0  0  0  0  0  0  0  0  0  0  0  0
   15.2824   24.5141   -2.5170 N   0  0  0  0  0  0  0  0  0  0  0  0
   15.8358   23.6217   -2.6466 H   0  0  0  0  0  0  0  0  0  0  0  0
   12.1158   24.7035    0.2138 C   0  0  0  0  0  0  0  0  0  0  0  0
   13.3229   24.2178    0.6493 C   0  0  0  0  0  0  0  0  0  0  0  0
   14.4187   24.1395   -0.2212 C   0  0  0  0  0  0  0  0  0  0  0  0
   14.2948   24.5509   -1.5301 C   0  0  0  0  0  0  0  0  0  0  0  0
   13.0405   25.0470   -1.9509 C   0  0  0  0  0  0  0  0  0  0  0  0
   11.9713   25.1199   -1.0884 C   0  0  0  0  0  0  0  0  0  0  0  0
   10.5207   23.6083    1.6343 C   0  0  0  0  0  0  0  0  0  0  0  0
   11.0559   24.7708    1.0856 O   0  0  0  0  0  0  0  0  0  0  0  0
   14.7290   26.5220   -6.8882 C   0  0  0  0  0  0  0  0  0  0  0  0
   15.7429   25.5613   -7.9878 Cl  0  0  0  0  0  0  0  0  0  0  0  0
 18 19  1  0  0  0
 19 12  1  0  0  0
 12 13  2  0  0  0
 13 14  1  0  0  0
 14 15  2  0  0  0
 15 10  1  0  0  0
 10  1  1  0  0  0
  1  2  2  0  0  0
  2  3  1  0  0  0
  3  4  1  0  0  0
  3  5  2  0  0  0
  5  6  1  0  0  0
  6 20  1  0  0  0
 20 21  1  0  0  0
  6  7  2  0  0  0
 15 16  1  0  0  0
 16 17  2  0  0  0
 17 12  1  0  0  0
  7  1  1  0  0  0
 10 11  1  0  0  0
  4  8  1  0  0  0
  4  9  1  0  0  0
M  END
> <minimizedAffinity>
-7.16447

> <CNNscore>
0.4468705356

> <CNNaffinity>
6.0942640305

> <CNN_VS>
2.7233469486

> <CNNaffinity_variance>
0.0798954964

$$$$
[H]c1c([H])c(N([H])c2nc(N([H])[H])nc(C([H])([H])Cl)n2)c([H])c([H])c1OC([H])([H])[H]


 21 22  0  0  0  0  0  0  0  0999 V2000
   14.4279   24.9278   -2.6594 C   0  0  0  0  0  0  0  0  0  0  0  0
   14.7444   25.3754   -1.4395 N   0  0  0  0  0  0  0  0  0  0  0  0
   14.9786   24.6256   -0.3607 C   0  0  0  0  0  0  0  0  0  0  0  0
   15.3109   25.1759    0.9067 N   0  0  0  0  0  0  0  0  0  0  0  0
   14.8910   23.2713   -0.4978 N   0  0  0  0  0  0  0  0  0  0  0  0
   14.5749   22.7489   -1.7035 C   0  0  0  0  0  0  0  0  0  0  0  0
   14.3530   23.5571   -2.7418 N   0  0  0  0  0  0  0  0  0  0  0  0
   15.6843   26.1464    0.9702 H   0  0  0  0  0  0  0  0  0  0  0  0
   15.1831   24.6136    1.7721 H   0  0  0  0  0  0  0  0  0  0  0  0
   14.1795   25.7134   -3.8025 N   0  0  0  0  0  0  0  0  0  0  0  0
   14.4642   25.2699   -4.7199 H   0  0  0  0  0  0  0  0  0  0  0  0
   12.7075   29.6218   -4.0813 C   0  0  0  0  0  0  0  0  0  0  0  0
   11.9889   28.7058   -3.3553 C   0  0  0  0  0  0  0  0  0  0  0  0
   12.4399   27.3851   -3.2231 C   0  0  0  0  0  0  0  0  0  0  0  0
   13.6150   26.9908   -3.8242 C   0  0  0  0  0  0  0  0  0  0  0  0
   14.3344   27.9551   -4.5652 C   0  0  0  0  0  0  0  0  0  0  0  0
   13.8831   29.2487   -4.6885 C   0  0  0  0  0  0  0  0  0  0  0  0
   10.8977   31.1556   -4.4473 C   0  0  0  0  0  0  0  0  0  0  0  0
   12.2454   30.9106   -4.1967 O   0  0  0  0  0  0  0  0  0  0  0  0
   14.4682   21.2709   -1.8981 C   0  0  0  0  0  0  0  0  0  0  0  0
   14.9202   20.8663   -3.5691 Cl  0  0  0  0  0  0  0  0  0  0  0  0
 18 19  1  0  0  0
 19 12  1  0  0  0
 12 13  2  0  0  0
 13 14  1  0  0  0
 14 15  2  0  0  0
 15 10  1  0  0  0
 10  1  1  0  0  0
  1  2  2  0  0  0
  2  3  1  0  0  0
  3  4  1  0  0  0
  3  5  2  0  0  0
  5  6  1  0  0  0
  6 20  1  0  0  0
 20 21  1  0  0  0
  6  7  2  0  0  0
 15 16  1  0  0  0
 16 17  2  0  0  0
 17 12  1  0  0  0
  7  1  1  0  0  0
 10 11  1  0  0  0
  4  8  1  0  0  0
  4  9  1  0  0  0
M  END
> <minimizedAffinity>
13.06988

> <CNNscore>
0.4405340850

> <CNNaffinity>
5.5365896225

> <CNN_VS>
2.4390563965

> <CNNaffinity_variance>
0.8707515597

$$$$
[H]c1c([H])c(N([H])c2nc(N([H])[H])nc(C([H])([H])Cl)n2)c([H])c([H])c1OC([H])([H])[H]


 21 22  0  0  0  0  0  0  0  0999 V2000
   13.4227   23.4371   -0.8523 C   0  0  0  0  0  0  0  0  0  0  0  0
   14.2724   22.6163   -0.2253 N   0  0  0  0  0  0  0  0  0  0  0  0
   14.0278   21.3558    0.1381 C   0  0  0  0  0  0  0  0  0  0  0  0
   14.9848   20.5429    0.8037 N   0  0  0  0  0  0  0  0  0  0  0  0
   12.7986   20.8394   -0.1497 N   0  0  0  0  0  0  0  0  0  0  0  0
   11.8891   21.6132   -0.7827 C   0  0  0  0  0  0  0  0  0  0  0  0
   12.1998   22.8668   -1.1181 N   0  0  0  0  0  0  0  0  0  0  0  0
   15.9965   20.7864    0.7560 H   0  0  0  0  0  0  0  0  0  0  0  0
   14.6794   19.7051    1.3387 H   0  0  0  0  0  0  0  0  0  0  0  0
   13.6743   24.7685   -1.2390 N   0  0  0  0  0  0  0  0  0  0  0  0
   13.5929   25.4822   -0.4623 H   0  0  0  0  0  0  0  0  0  0  0  0
   14.4424   26.3234   -5.0486 C   0  0  0  0  0  0  0  0  0  0  0  0
   15.2680   25.3381   -4.5689 C   0  0  0  0  0  0  0  0  0  0  0  0
   15.0519   24.7770   -3.3027 C   0  0  0  0  0  0  0  0  0  0  0  0
   14.0031   25.2114   -2.5221 C   0  0  0  0  0  0  0  0  0  0  0  0
   13.1690   26.2267   -3.0415 C   0  0  0  0  0  0  0  0  0  0  0  0
   13.3897   26.7705   -4.2857 C   0  0  0  0  0  0  0  0  0  0  0  0
   15.5921   26.2639   -7.1547 C   0  0  0  0  0  0  0  0  0  0  0  0
   14.6741   26.8582   -6.2928 O   0  0  0  0  0  0  0  0  0  0  0  0
   10.5306   21.0876   -1.1172 C   0  0  0  0  0  0  0  0  0  0  0  0
   10.2248   19.6126   -0.1733 Cl  0  0  0  0  0  0  0  0  0  0  0  0
 18 19  1  0  0  0
 19 12  1  0  0  0
 12 13  2  0  0  0
 13 14  1  0  0  0
 14 15  2  0  0  0
 15 10  1  0  0  0
 10  1  1  0  0  0
  1  2  2  0  0  0
  2  3  1  0  0  0
  3  4  1  0  0  0
  3  5  2  0  0  0
  5  6  1  0  0  0
  6 20  1  0  0  0
 20 21  1  0  0  0
  6  7  2  0  0  0
 15 16  1  0  0  0
 16 17  2  0  0  0
 17 12  1  0  0  0
  7  1  1  0  0  0
 10 11  1  0  0  0
  4  8  1  0  0  0
  4  9  1  0  0  0
M  END
> <minimizedAffinity>
-7.41283

> <CNNscore>
0.4375882745

> <CNNaffinity>
6.2804622650

> <CNN_VS>
2.7482566833

> <CNNaffinity_variance>
0.3240586519

$$$$
[H]c1c([H])c(N([H])c2nc(N([H])[H])nc(C([H])([H])Cl)n2)c([H])c([H])c1OC([H])([H])[H]


 21 22  0  0  0  0  0  0  0  0999 V2000
   14.6343   24.2598   -0.5878 C   0  0  0  0  0  0  0  0  0  0  0  0
   13.5392   24.8765   -0.1303 N   0  0  0  0  0  0  0  0  0  0  0  0
   12.4773   24.2892    0.4249 C   0  0  0  0  0  0  0  0  0  0  0  0
   11.3467   25.0143    0.8890 N   0  0  0  0  0  0  0  0  0  0  0  0
   12.4939   22.9306    0.5449 N   0  0  0  0  0  0  0  0  0  0  0  0
   13.5696   22.2418    0.1033 C   0  0  0  0  0  0  0  0  0  0  0  0
   14.5988   22.8927   -0.4425 N   0  0  0  0  0  0  0  0  0  0  0  0
   11.4311   26.0315    1.0970 H   0  0  0  0  0  0  0  0  0  0  0  0
   10.4342   24.5335    1.0222 H   0  0  0  0  0  0  0  0  0  0  0  0
   15.7587   24.8734   -1.1748 N   0  0  0  0  0  0  0  0  0  0  0  0
   16.6332   24.8665   -0.5792 H   0  0  0  0  0  0  0  0  0  0  0  0
   15.6834   26.4898   -5.0351 C   0  0  0  0  0  0  0  0  0  0  0  0
   16.4639   27.1028   -4.0877 C   0  0  0  0  0  0  0  0  0  0  0  0
   16.5317   26.5991   -2.7813 C   0  0  0  0  0  0  0  0  0  0  0  0
   15.8114   25.4777   -2.4328 C   0  0  0  0  0  0  0  0  0  0  0  0
   15.0167   24.8668   -3.4286 C   0  0  0  0  0  0  0  0  0  0  0  0
   14.9574   25.3691   -4.7079 C   0  0  0  0  0  0  0  0  0  0  0  0
   15.6287   26.1502   -7.4106 C   0  0  0  0  0  0  0  0  0  0  0  0
   15.6330   27.0019   -6.3091 O   0  0  0  0  0  0  0  0  0  0  0  0
   13.6295   20.7527    0.2152 C   0  0  0  0  0  0  0  0  0  0  0  0
   15.3211   20.2491    0.4273 Cl  0  0  0  0  0  0  0  0  0  0  0  0
 18 19  1  0  0  0
 19 12  1  0  0  0
 12 13  2  0  0  0
 13 14  1  0  0  0
 14 15  2  0  0  0
 15 10  1  0  0  0
 10  1  1  0  0  0
  1  2  2  0  0  0
  2  3  1  0  0  0
  3  4  1  0  0  0
  3  5  2  0  0  0
  5  6  1  0  0  0
  6 20  1  0  0  0
 20 21  1  0  0  0
  6  7  2  0  0  0
 15 16  1  0  0  0
 16 17  2  0  0  0
 17 12  1  0  0  0
  7  1  1  0  0  0
 10 11  1  0  0  0
  4  8  1  0  0  0
  4  9  1  0  0  0
M  END
> <minimizedAffinity>
-6.60546

> <CNNscore>
0.3466254473

> <CNNaffinity>
6.1825041771

> <CNN_VS>
2.1430132389

> <CNNaffinity_variance>
0.0659236535

$$$$
[H]c1c([H])c(N([H])c2nc(N([H])[H])nc(C([H])([H])Cl)n2)c([H])c([H])c1OC([H])([H])[H]


 21 22  0  0  0  0  0  0  0  0999 V2000
   14.6925   22.0844   -3.6522 C   0  0  0  0  0  0  0  0  0  0  0  0
   15.7844   21.8340   -4.3830 N   0  0  0  0  0  0  0  0  0  0  0  0
   15.9225   20.8619   -5.2868 C   0  0  0  0  0  0  0  0  0  0  0  0
   17.1183   20.6577   -6.0268 N   0  0  0  0  0  0  0  0  0  0  0  0
   14.8579   20.0356   -5.4978 N   0  0  0  0  0  0  0  0  0  0  0  0
   13.7210   20.2306   -4.7935 C   0  0  0  0  0  0  0  0  0  0  0  0
   13.6506   21.2230   -3.9042 N   0  0  0  0  0  0  0  0  0  0  0  0
   17.8102   21.4309   -6.1202 H   0  0  0  0  0  0  0  0  0  0  0  0
   17.3062   19.7389   -6.4762 H   0  0  0  0  0  0  0  0  0  0  0  0
   14.5399   23.1087   -2.6967 N   0  0  0  0  0  0  0  0  0  0  0  0
   13.7915   22.9334   -1.9696 H   0  0  0  0  0  0  0  0  0  0  0  0
   16.5700   26.7681   -2.7852 C   0  0  0  0  0  0  0  0  0  0  0  0
   16.6903   25.9837   -1.6658 C   0  0  0  0  0  0  0  0  0  0  0  0
   16.0378   24.7456   -1.5862 C   0  0  0  0  0  0  0  0  0  0  0  0
   15.2646   24.3011   -2.6361 C   0  0  0  0  0  0  0  0  0  0  0  0
   15.1590   25.1291   -3.7761 C   0  0  0  0  0  0  0  0  0  0  0  0
   15.8037   26.3425   -3.8442 C   0  0  0  0  0  0  0  0  0  0  0  0
   17.9337   28.3424   -3.9781 C   0  0  0  0  0  0  0  0  0  0  0  0
   17.2190   27.9779   -2.8401 O   0  0  0  0  0  0  0  0  0  0  0  0
   12.5309   19.3489   -4.9932 C   0  0  0  0  0  0  0  0  0  0  0  0
   11.0500   20.3197   -4.8359 Cl  0  0  0  0  0  0  0  0  0  0  0  0
 18 19  1  0  0  0
 19 12  1  0  0  0
 12 13  2  0  0  0
 13 14  1  0  0  0
 14 15  2  0  0  0
 15 10  1  0  0  0
 10  1  1  0  0  0
  1  2  2  0  0  0
  2  3  1  0  0  0
  3  4  1  0  0  0
  3  5  2  0  0  0
  5  6  1  0  0  0
  6 20  1  0  0  0
 20 21  1  0  0  0
  6  7  2  0  0  0
 15 16  1  0  0  0
 16 17  2  0  0  0
 17 12  1  0  0  0
  7  1  1  0  0  0
 10 11  1  0  0  0
  4  8  1  0  0  0
  4  9  1  0  0  0
M  END
> <minimizedAffinity>
16.41269

> <CNNscore>
0.3209674060

> <CNNaffinity>
5.4022207260

> <CNN_VS>
1.7339367867

> <CNNaffinity_variance>
0.8517364264

$$$$
[H]c1c([H])c(N([H])c2nc(N([H])[H])nc(C([H])([H])Cl)n2)c([H])c([H])c1OC([H])([H])[H]


 21 22  0  0  0  0  0  0  0  0999 V2000
   14.1692   22.9494   -0.7630 C   0  0  0  0  0  0  0  0  0  0  0  0
   14.1407   21.8796    0.0393 N   0  0  0  0  0  0  0  0  0  0  0  0
   13.3174   21.6904    1.0723 C   0  0  0  0  0  0  0  0  0  0  0  0
   13.3471   20.5226    1.8816 N   0  0  0  0  0  0  0  0  0  0  0  0
   12.4121   22.6721    1.3505 N   0  0  0  0  0  0  0  0  0  0  0  0
   12.3845   23.7823    0.5803 C   0  0  0  0  0  0  0  0  0  0  0  0
   13.2373   23.9072   -0.4384 N   0  0  0  0  0  0  0  0  0  0  0  0
   13.7883   19.6509    1.5202 H   0  0  0  0  0  0  0  0  0  0  0  0
   12.9299   20.5343    2.8341 H   0  0  0  0  0  0  0  0  0  0  0  0
   15.0354   23.1556   -1.8551 N   0  0  0  0  0  0  0  0  0  0  0  0
   15.5577   22.2948   -2.1798 H   0  0  0  0  0  0  0  0  0  0  0  0
   15.4245   26.7457   -3.9718 C   0  0  0  0  0  0  0  0  0  0  0  0
   16.3862   26.4281   -3.0462 C   0  0  0  0  0  0  0  0  0  0  0  0
   16.3090   25.2349   -2.3147 C   0  0  0  0  0  0  0  0  0  0  0  0
   15.2610   24.3642   -2.5179 C   0  0  0  0  0  0  0  0  0  0  0  0
   14.2854   24.7166   -3.4773 C   0  0  0  0  0  0  0  0  0  0  0  0
   14.3708   25.8901   -4.1902 C   0  0  0  0  0  0  0  0  0  0  0  0
   15.9853   27.9182   -5.9897 C   0  0  0  0  0  0  0  0  0  0  0  0
   15.5216   27.9211   -4.6768 O   0  0  0  0  0  0  0  0  0  0  0  0
   11.4091   24.8821    0.8496 C   0  0  0  0  0  0  0  0  0  0  0  0
   10.1821   24.3077    2.0006 Cl  0  0  0  0  0  0  0  0  0  0  0  0
 18 19  1  0  0  0
 19 12  1  0  0  0
 12 13  2  0  0  0
 13 14  1  0  0  0
 14 15  2  0  0  0
 15 10  1  0  0  0
 10  1  1  0  0  0
  1  2  2  0  0  0
  2  3  1  0  0  0
  3  4  1  0  0  0
  3  5  2  0  0  0
  5  6  1  0  0  0
  6 20  1  0  0  0
 20 21  1  0  0  0
  6  7  2  0  0  0
 15 16  1  0  0  0
 16 17  2  0  0  0
 17 12  1  0  0  0
  7  1  1  0  0  0
 10 11  1  0  0  0
  4  8  1  0  0  0
  4  9  1  0  0  0
M  END
> <minimizedAffinity>
-6.50104

> <CNNscore>
0.3113918304

> <CNNaffinity>
6.1183528900

> <CNN_VS>
1.9052051306

> <CNNaffinity_variance>
0.0545246527

$$$$
[H]c1c([H])c(N([H])c2nc(N([H])[H])nc(C([H])([H])Cl)n2)c([H])c([H])c1OC([H])([H])[H]


 21 22  0  0  0  0  0  0  0  0999 V2000
   16.3760   25.9554   -2.4279 C   0  0  0  0  0  0  0  0  0  0  0  0
   17.3837   26.7867   -2.7148 N   0  0  0  0  0  0  0  0  0  0  0  0
   17.4269   27.6528   -3.7291 C   0  0  0  0  0  0  0  0  0  0  0  0
   18.5368   28.5069   -3.9705 N   0  0  0  0  0  0  0  0  0  0  0  0
   16.3486   27.7084   -4.5627 N   0  0  0  0  0  0  0  0  0  0  0  0
   15.2935   26.8959   -4.3323 C   0  0  0  0  0  0  0  0  0  0  0  0
   15.3160   26.0524   -3.2986 N   0  0  0  0  0  0  0  0  0  0  0  0
   19.2120   28.7109   -3.2039 H   0  0  0  0  0  0  0  0  0  0  0  0
   18.6783   28.9296   -4.9100 H   0  0  0  0  0  0  0  0  0  0  0  0
   16.3237   25.0388   -1.3590 N   0  0  0  0  0  0  0  0  0  0  0  0
   17.2135   24.9628   -0.7917 H   0  0  0  0  0  0  0  0  0  0  0  0
   12.9982   22.8560   -0.0564 C   0  0  0  0  0  0  0  0  0  0  0  0
   13.6020   22.4836   -1.2309 C   0  0  0  0  0  0  0  0  0  0  0  0
   14.7233   23.1752   -1.7095 C   0  0  0  0  0  0  0  0  0  0  0  0
   15.2334   24.2419   -1.0025 C   0  0  0  0  0  0  0  0  0  0  0  0
   14.5918   24.6029    0.2035 C   0  0  0  0  0  0  0  0  0  0  0  0
   13.4920   23.9172    0.6646 C   0  0  0  0  0  0  0  0  0  0  0  0
   12.0190   21.2633    1.4489 C   0  0  0  0  0  0  0  0  0  0  0  0
   11.9001   22.1627    0.3927 O   0  0  0  0  0  0  0  0  0  0  0  0
   14.0918   26.9240   -5.2205 C   0  0  0  0  0  0  0  0  0  0  0  0
   12.6239   26.9601   -4.2183 Cl  0  0  0  0  0  0  0  0  0  0  0  0
 18 19  1  0  0  0
 19 12  1  0  0  0
 12 13  2  0  0  0
 13 14  1  0  0  0
 14 15  2  0  0  0
 15 10  1  0  0  0
 10  1  1  0  0  0
  1  2  2  0  0  0
  2  3  1  0  0  0
  3  4  1  0  0  0
  3  5  2  0  0  0
  5  6  1  0  0  0
  6 20  1  0  0  0
 20 21  1  0  0  0
  6  7  2  0  0  0
 15 16  1  0  0  0
 16 17  2  0  0  0
 17 12  1  0  0  0
  7  1  1  0  0  0
 10 11  1  0  0  0
  4  8  1  0  0  0
  4  9  1  0  0  0
M  END
> <minimizedAffinity>
-6.24104

> <CNNscore>
0.2981273234

> <CNNaffinity>
5.9706444740

> <CNN_VS>
1.7800122499

> <CNNaffinity_variance>
0.2025579661

$$$$
[H]c1c([H])c(N([H])c2nc(N([H])[H])nc(C([H])([H])Cl)n2)c([H])c([H])c1OC([H])([H])[H]


 21 22  0  0  0  0  0  0  0  0999 V2000
   14.0861   22.2186   -1.6610 C   0  0  0  0  0  0  0  0  0  0  0  0
   12.9923   21.5826   -1.2276 N   0  0  0  0  0  0  0  0  0  0  0  0
   12.8036   21.0819   -0.0050 C   0  0  0  0  0  0  0  0  0  0  0  0
   11.6093   20.4166    0.3828 N   0  0  0  0  0  0  0  0  0  0  0  0
   13.8129   21.2237    0.9016 N   0  0  0  0  0  0  0  0  0  0  0  0
   14.9484   21.8566    0.5319 C   0  0  0  0  0  0  0  0  0  0  0  0
   15.0711   22.3338   -0.7082 N   0  0  0  0  0  0  0  0  0  0  0  0
   10.7323   20.5649   -0.1595 H   0  0  0  0  0  0  0  0  0  0  0  0
   11.6067   19.7817    1.2064 H   0  0  0  0  0  0  0  0  0  0  0  0
   14.2919   22.7496   -2.9498 N   0  0  0  0  0  0  0  0  0  0  0  0
   14.3358   22.0326   -3.7266 H   0  0  0  0  0  0  0  0  0  0  0  0
   15.0002   26.7089   -4.1083 C   0  0  0  0  0  0  0  0  0  0  0  0
   13.8670   26.4351   -3.3847 C   0  0  0  0  0  0  0  0  0  0  0  0
   13.5848   25.1279   -2.9647 C   0  0  0  0  0  0  0  0  0  0  0  0
   14.4462   24.0989   -3.2759 C   0  0  0  0  0  0  0  0  0  0  0  0
   15.6053   24.4100   -4.0216 C   0  0  0  0  0  0  0  0  0  0  0  0
   15.8731   25.6964   -4.4288 C   0  0  0  0  0  0  0  0  0  0  0  0
   16.0980   28.2458   -5.5896 C   0  0  0  0  0  0  0  0  0  0  0  0
   15.2556   27.9982   -4.5089 O   0  0  0  0  0  0  0  0  0  0  0  0
   16.0789   22.0339    1.4932 C   0  0  0  0  0  0  0  0  0  0  0  0
   16.9363   23.5449    1.1164 Cl  0  0  0  0  0  0  0  0  0  0  0  0
 18 19  1  0  0  0
 19 12  1  0  0  0
 12 13  2  0  0  0
 13 14  1  0  0  0
 14 15  2  0  0  0
 15 10  1  0  0  0
 10  1  1  0  0  0
  1  2  2  0  0  0
  2  3  1  0  0  0
  3  4  1  0  0  0
  3  5  2  0  0  0
  5  6  1  0  0  0
  6 20  1  0  0  0
 20 21  1  0  0  0
  6  7  2  0  0  0
 15 16  1  0  0  0
 16 17  2  0  0  0
 17 12  1  0  0  0
  7  1  1  0  0  0
 10 11  1  0  0  0
  4  8  1  0  0  0
  4  9  1  0  0  0
M  END
> <minimizedAffinity>
-5.01251

> <CNNscore>
0.2857817113

> <CNNaffinity>
5.9426598549

> <CNN_VS>
1.6983034611

> <CNNaffinity_variance>
0.0812856779

$$$$
[H]c1nc2sc3c(=O)n(C4([H])C([H])([H])C([H])([H])C([H])([H])C([H])([H])C4([H])[H])c([H])nc3c2c(N(C([H])([H])[H])C([H])([H])[H])c1[H]


 23 26  0  0  0  0  0  0  0  0999 V2000
   11.9765   22.1688    0.0453 C   0  0  0  0  0  0  0  0  0  0  0  0
   11.7872   21.2860    1.0894 C   0  0  0  0  0  0  0  0  0  0  0  0
   12.7933   20.7613    1.8672 C   0  0  0  0  0  0  0  0  0  0  0  0
   14.0327   21.1693    1.5465 N   0  0  0  0  0  0  0  0  0  0  0  0
   14.2777   22.0440    0.5188 C   0  0  0  0  0  0  0  0  0  0  0  0
   15.7057   22.7235   -0.1224 S   0  0  0  0  0  0  0  0  0  0  0  0
   15.0277   23.6648   -1.3700 C   0  0  0  0  0  0  0  0  0  0  0  0
   15.5398   24.5217   -2.3637 C   0  0  0  0  0  0  0  0  0  0  0  0
   16.7788   24.6533   -2.3563 O   0  0  0  0  0  0  0  0  0  0  0  0
   14.7341   25.1383   -3.2405 N   0  0  0  0  0  0  0  0  0  0  0  0
   13.4223   24.8884   -3.1108 C   0  0  0  0  0  0  0  0  0  0  0  0
   12.9222   24.0840   -2.1802 N   0  0  0  0  0  0  0  0  0  0  0  0
   13.6879   23.4229   -1.2530 C   0  0  0  0  0  0  0  0  0  0  0  0
   13.2931   22.5781   -0.2681 C   0  0  0  0  0  0  0  0  0  0  0  0
   15.2970   26.0073   -4.2421 C   0  0  0  0  0  0  0  0  0  0  0  0
   14.5788   25.9030   -5.5646 C   0  0  0  0  0  0  0  0  0  0  0  0
   15.3219   26.7457   -6.5601 C   0  0  0  0  0  0  0  0  0  0  0  0
   16.4336   27.5462   -5.9840 C   0  0  0  0  0  0  0  0  0  0  0  0
   16.1094   28.2524   -4.7062 C   0  0  0  0  0  0  0  0  0  0  0  0
   15.1603   27.4771   -3.8221 C   0  0  0  0  0  0  0  0  0  0  0  0
   10.1309   23.8763   -0.3452 C   0  0  0  0  0  0  0  0  0  0  0  0
   10.8255   22.6395   -0.6322 N   0  0  0  0  0  0  0  0  0  0  0  0
   10.3023   21.8108   -1.7018 C   0  0  0  0  0  0  0  0  0  0  0  0
 21 22  1  0  0  0
 22 23  1  0  0  0
 22  1  1  0  0  0
  1  2  2  0  0  0
  2  3  1  0  0  0
  3  4  2  0  0  0
  4  5  1  0  0  0
  5  6  1  0  0  0
  6  7  1  0  0  0
  7  8  1  0  0  0
  8  9  2  0  0  0
  8 10  1  0  0  0
 10 15  1  0  0  0
 15 16  1  0  0  0
 16 17  1  0  0  0
 17 18  1  0  0  0
 18 19  1  0  0  0
 19 20  1  0  0  0
 10 11  1  0  0  0
 11 12  2  0  0  0
 12 13  1  0  0  0
 13 14  1  0  0  0
 14  1  1  0  0  0
 14  5  2  0  0  0
 13  7  2  0  0  0
 20 15  1  0  0  0
M  END
> <minimizedAffinity>
-5.22358

> <CNNscore>
0.4624350667

> <CNNaffinity>
7.2456884384

> <CNN_VS>
3.3506603241

> <CNNaffinity_variance>
0.3909802735

$$$$
[H]c1nc2sc3c(=O)n(C4([H])C([H])([H])C([H])([H])C([H])([H])C([H])([H])C4([H])[H])c([H])nc3c2c(N(C([H])([H])[H])C([H])([H])[H])c1[H]


 23 26  0  0  0  0  0  0  0  0999 V2000
   15.4331   26.8046   -3.9711 C   0  0  0  0  0  0  0  0  0  0  0  0
   16.4083   27.6728   -4.4191 C   0  0  0  0  0  0  0  0  0  0  0  0
   17.6355   27.8511   -3.8237 C   0  0  0  0  0  0  0  0  0  0  0  0
   17.8518   27.1022   -2.7293 N   0  0  0  0  0  0  0  0  0  0  0  0
   16.9178   26.2246   -2.2405 C   0  0  0  0  0  0  0  0  0  0  0  0
   16.8943   25.1698   -0.8993 S   0  0  0  0  0  0  0  0  0  0  0  0
   15.3357   24.5099   -1.0942 C   0  0  0  0  0  0  0  0  0  0  0  0
   14.5563   23.5688   -0.3936 C   0  0  0  0  0  0  0  0  0  0  0  0
   15.1058   23.0742    0.6093 O   0  0  0  0  0  0  0  0  0  0  0  0
   13.3185   23.2460   -0.7956 N   0  0  0  0  0  0  0  0  0  0  0  0
   12.8755   23.8713   -1.8969 C   0  0  0  0  0  0  0  0  0  0  0  0
   13.5964   24.7606   -2.5697 N   0  0  0  0  0  0  0  0  0  0  0  0
   14.8675   25.1363   -2.2149 C   0  0  0  0  0  0  0  0  0  0  0  0
   15.6909   26.0311   -2.8158 C   0  0  0  0  0  0  0  0  0  0  0  0
   12.5532   22.2786   -0.0515 C   0  0  0  0  0  0  0  0  0  0  0  0
   11.6993   22.9171    1.0156 C   0  0  0  0  0  0  0  0  0  0  0  0
   11.0510   21.8176    1.8058 C   0  0  0  0  0  0  0  0  0  0  0  0
   11.2850   20.4513    1.2703 C   0  0  0  0  0  0  0  0  0  0  0  0
   11.1257   20.3157   -0.2106 C   0  0  0  0  0  0  0  0  0  0  0  0
   11.5690   21.5436   -0.9717 C   0  0  0  0  0  0  0  0  0  0  0  0
   12.9062   26.9756   -4.2150 C   0  0  0  0  0  0  0  0  0  0  0  0
   14.2365   26.7180   -4.7234 N   0  0  0  0  0  0  0  0  0  0  0  0
   14.3581   26.3397   -6.1185 C   0  0  0  0  0  0  0  0  0  0  0  0
 21 22  1  0  0  0
 22 23  1  0  0  0
 22  1  1  0  0  0
  1  2  2  0  0  0
  2  3  1  0  0  0
  3  4  2  0  0  0
  4  5  1  0  0  0
  5  6  1  0  0  0
  6  7  1  0  0  0
  7  8  1  0  0  0
  8  9  2  0  0  0
  8 10  1  0  0  0
 10 15  1  0  0  0
 15 16  1  0  0  0
 16 17  1  0  0  0
 17 18  1  0  0  0
 18 19  1  0  0  0
 19 20  1  0  0  0
 10 11  1  0  0  0
 11 12  2  0  0  0
 12 13  1  0  0  0
 13 14  1  0  0  0
 14  1  1  0  0  0
 14  5  2  0  0  0
 13  7  2  0  0  0
 20 15  1  0  0  0
M  END
> <minimizedAffinity>
-7.04326

> <CNNscore>
0.4591212571

> <CNNaffinity>
7.3689680099

> <CNN_VS>
3.3832497597

> <CNNaffinity_variance>
0.2540667653

$$$$
[H]c1nc2sc3c(=O)n(C4([H])C([H])([H])C([H])([H])C([H])([H])C([H])([H])C4([H])[H])c([H])nc3c2c(N(C([H])([H])[H])C([H])([H])[H])c1[H]


 23 26  0  0  0  0  0  0  0  0999 V2000
   15.0320   25.9818   -2.9560 C   0  0  0  0  0  0  0  0  0  0  0  0
   16.2981   26.4764   -3.1962 C   0  0  0  0  0  0  0  0  0  0  0  0
   17.3968   26.2430   -2.4019 C   0  0  0  0  0  0  0  0  0  0  0  0
   17.1682   25.4714   -1.3260 N   0  0  0  0  0  0  0  0  0  0  0  0
   15.9303   24.9546   -1.0394 C   0  0  0  0  0  0  0  0  0  0  0  0
   15.3370   23.9750    0.2256 S   0  0  0  0  0  0  0  0  0  0  0  0
   13.7052   23.8658   -0.2516 C   0  0  0  0  0  0  0  0  0  0  0  0
   12.5545   23.2393    0.2655 C   0  0  0  0  0  0  0  0  0  0  0  0
   12.7342   22.5971    1.3179 O   0  0  0  0  0  0  0  0  0  0  0  0
   11.3661   23.3411   -0.3471 N   0  0  0  0  0  0  0  0  0  0  0  0
   11.3448   24.0708   -1.4728 C   0  0  0  0  0  0  0  0  0  0  0  0
   12.4194   24.6679   -1.9746 N   0  0  0  0  0  0  0  0  0  0  0  0
   13.6640   24.6048   -1.4004 C   0  0  0  0  0  0  0  0  0  0  0  0
   14.8236   25.1737   -1.8146 C   0  0  0  0  0  0  0  0  0  0  0  0
   10.2127   22.6853    0.2138 C   0  0  0  0  0  0  0  0  0  0  0  0
    9.0746   23.6415    0.4708 C   0  0  0  0  0  0  0  0  0  0  0  0
    7.9835   22.8822    1.1682 C   0  0  0  0  0  0  0  0  0  0  0  0
    8.2276   21.4213    1.2892 C   0  0  0  0  0  0  0  0  0  0  0  0
    8.7363   20.7594    0.0483 C   0  0  0  0  0  0  0  0  0  0  0  0
    9.6531   21.6437   -0.7647 C   0  0  0  0  0  0  0  0  0  0  0  0
   12.7489   26.9125   -3.5847 C   0  0  0  0  0  0  0  0  0  0  0  0
   14.0183   26.2907   -3.8954 N   0  0  0  0  0  0  0  0  0  0  0  0
   14.2773   25.9549   -5.2826 C   0  0  0  0  0  0  0  0  0  0  0  0
 21 22  1  0  0  0
 22 23  1  0  0  0
 22  1  1  0  0  0
  1  2  2  0  0  0
  2  3  1  0  0  0
  3  4  2  0  0  0
  4  5  1  0  0  0
  5  6  1  0  0  0
  6  7  1  0  0  0
  7  8  1  0  0  0
  8  9  2  0  0  0
  8 10  1  0  0  0
 10 15  1  0  0  0
 15 16  1  0  0  0
 16 17  1  0  0  0
 17 18  1  0  0  0
 18 19  1  0  0  0
 19 20  1  0  0  0
 10 11  1  0  0  0
 11 12  2  0  0  0
 12 13  1  0  0  0
 13 14  1  0  0  0
 14  1  1  0  0  0
 14  5  2  0  0  0
 13  7  2  0  0  0
 20 15  1  0  0  0
M  END
> <minimizedAffinity>
-5.96833

> <CNNscore>
0.4273492992

> <CNNaffinity>
7.1794104576

> <CNN_VS>
3.0681159496

> <CNNaffinity_variance>
0.2772422433

$$$$
[H]c1nc2sc3c(=O)n(C4([H])C([H])([H])C([H])([H])C([H])([H])C([H])([H])C4([H])[H])c([H])nc3c2c(N(C([H])([H])[H])C([H])([H])[H])c1[H]


 23 26  0  0  0  0  0  0  0  0999 V2000
   12.7061   24.3323    0.6969 C   0  0  0  0  0  0  0  0  0  0  0  0
   12.3537   23.6219    1.8267 C   0  0  0  0  0  0  0  0  0  0  0  0
   12.6680   22.3021    2.0550 C   0  0  0  0  0  0  0  0  0  0  0  0
   13.3699   21.7063    1.0765 N   0  0  0  0  0  0  0  0  0  0  0  0
   13.7454   22.3645   -0.0668 C   0  0  0  0  0  0  0  0  0  0  0  0
   14.6093   21.8886   -1.4593 S   0  0  0  0  0  0  0  0  0  0  0  0
   14.5687   23.3557   -2.3244 C   0  0  0  0  0  0  0  0  0  0  0  0
   15.0533   23.7910   -3.5733 C   0  0  0  0  0  0  0  0  0  0  0  0
   15.6695   22.9279   -4.2274 O   0  0  0  0  0  0  0  0  0  0  0  0
   14.8537   25.0451   -4.0040 N   0  0  0  0  0  0  0  0  0  0  0  0
   14.1697   25.8496   -3.1765 C   0  0  0  0  0  0  0  0  0  0  0  0
   13.7059   25.4565   -1.9960 N   0  0  0  0  0  0  0  0  0  0  0  0
   13.8743   24.1904   -1.4946 C   0  0  0  0  0  0  0  0  0  0  0  0
   13.4438   23.6764   -0.3155 C   0  0  0  0  0  0  0  0  0  0  0  0
   15.3655   25.4514   -5.2878 C   0  0  0  0  0  0  0  0  0  0  0  0
   15.5371   24.2889   -6.2337 C   0  0  0  0  0  0  0  0  0  0  0  0
   16.1909   24.8041   -7.4829 C   0  0  0  0  0  0  0  0  0  0  0  0
   16.3592   26.2799   -7.5285 C   0  0  0  0  0  0  0  0  0  0  0  0
   15.1640   27.0673   -7.0946 C   0  0  0  0  0  0  0  0  0  0  0  0
   14.3822   26.4003   -5.9867 C   0  0  0  0  0  0  0  0  0  0  0  0
   11.1287   26.2089    0.0154 C   0  0  0  0  0  0  0  0  0  0  0  0
   12.3312   25.6966    0.6368 N   0  0  0  0  0  0  0  0  0  0  0  0
   13.2290   26.6570    1.2499 C   0  0  0  0  0  0  0  0  0  0  0  0
 21 22  1  0  0  0
 22 23  1  0  0  0
 22  1  1  0  0  0
  1  2  2  0  0  0
  2  3  1  0  0  0
  3  4  2  0  0  0
  4  5  1  0  0  0
  5  6  1  0  0  0
  6  7  1  0  0  0
  7  8  1  0  0  0
  8  9  2  0  0  0
  8 10  1  0  0  0
 10 15  1  0  0  0
 15 16  1  0  0  0
 16 17  1  0  0  0
 17 18  1  0  0  0
 18 19  1  0  0  0
 19 20  1  0  0  0
 10 11  1  0  0  0
 11 12  2  0  0  0
 12 13  1  0  0  0
 13 14  1  0  0  0
 14  1  1  0  0  0
 14  5  2  0  0  0
 13  7  2  0  0  0
 20 15  1  0  0  0
M  END
> <minimizedAffinity>
5.86763

> <CNNscore>
0.4161401987

> <CNNaffinity>
6.6398229599

> <CNN_VS>
2.7630972862

> <CNNaffinity_variance>
0.5849727988

$$$$
[H]c1nc2sc3c(=O)n(C4([H])C([H])([H])C([H])([H])C([H])([H])C([H])([H])C4([H])[H])c([H])nc3c2c(N(C([H])([H])[H])C([H])([H])[H])c1[H]


 23 26  0  0  0  0  0  0  0  0999 V2000
   15.1234   23.5471   -5.0770 C   0  0  0  0  0  0  0  0  0  0  0  0
   15.5999   22.5850   -5.9446 C   0  0  0  0  0  0  0  0  0  0  0  0
   15.7040   21.2449   -5.6517 C   0  0  0  0  0  0  0  0  0  0  0  0
   15.2994   20.8984   -4.4181 N   0  0  0  0  0  0  0  0  0  0  0  0
   14.8186   21.8131   -3.5162 C   0  0  0  0  0  0  0  0  0  0  0  0
   14.2529   21.6860   -1.9113 S   0  0  0  0  0  0  0  0  0  0  0  0
   13.8894   23.3240   -1.6159 C   0  0  0  0  0  0  0  0  0  0  0  0
   13.3837   24.0517   -0.5211 C   0  0  0  0  0  0  0  0  0  0  0  0
   13.1214   23.3688    0.4874 O   0  0  0  0  0  0  0  0  0  0  0  0
   13.2065   25.3794   -0.5840 N   0  0  0  0  0  0  0  0  0  0  0  0
   13.5389   25.9632   -1.7453 C   0  0  0  0  0  0  0  0  0  0  0  0
   14.0167   25.2929   -2.7874 N   0  0  0  0  0  0  0  0  0  0  0  0
   14.2220   23.9362   -2.7915 C   0  0  0  0  0  0  0  0  0  0  0  0
   14.7065   23.1506   -3.7853 C   0  0  0  0  0  0  0  0  0  0  0  0
   12.6867   26.0875    0.5577 C   0  0  0  0  0  0  0  0  0  0  0  0
   11.7297   25.2494    1.3685 C   0  0  0  0  0  0  0  0  0  0  0  0
   11.1559   26.1201    2.4484 C   0  0  0  0  0  0  0  0  0  0  0  0
   11.7569   27.4766    2.5327 C   0  0  0  0  0  0  0  0  0  0  0  0
   13.2495   27.5144    2.4454 C   0  0  0  0  0  0  0  0  0  0  0  0
   13.8187   26.4595    1.5252 C   0  0  0  0  0  0  0  0  0  0  0  0
   14.2981   25.9496   -4.9324 C   0  0  0  0  0  0  0  0  0  0  0  0
   15.0505   24.8794   -5.5513 N   0  0  0  0  0  0  0  0  0  0  0  0
   15.7927   25.1938   -6.7574 C   0  0  0  0  0  0  0  0  0  0  0  0
 21 22  1  0  0  0
 22 23  1  0  0  0
 22  1  1  0  0  0
  1  2  2  0  0  0
  2  3  1  0  0  0
  3  4  2  0  0  0
  4  5  1  0  0  0
  5  6  1  0  0  0
  6  7  1  0  0  0
  7  8  1  0  0  0
  8  9  2  0  0  0
  8 10  1  0  0  0
 10 15  1  0  0  0
 15 16  1  0  0  0
 16 17  1  0  0  0
 17 18  1  0  0  0
 18 19  1  0  0  0
 19 20  1  0  0  0
 10 11  1  0  0  0
 11 12  2  0  0  0
 12 13  1  0  0  0
 13 14  1  0  0  0
 14  1  1  0  0  0
 14  5  2  0  0  0
 13  7  2  0  0  0
 20 15  1  0  0  0
M  END
> <minimizedAffinity>
20.59252

> <CNNscore>
0.3463716209

> <CNNaffinity>
6.4284048080

> <CNN_VS>
2.2266170979

> <CNNaffinity_variance>
0.7646270990

$$$$
[H]c1nc2sc3c(=O)n(C4([H])C([H])([H])C([H])([H])C([H])([H])C([H])([H])C4([H])[H])c([H])nc3c2c(N(C([H])([H])[H])C([H])([H])[H])c1[H]


 23 26  0  0  0  0  0  0  0  0999 V2000
   13.4716   20.6097   -3.0665 C   0  0  0  0  0  0  0  0  0  0  0  0
   13.3020   19.7209   -4.1089 C   0  0  0  0  0  0  0  0  0  0  0  0
   13.8658   19.8561   -5.3565 C   0  0  0  0  0  0  0  0  0  0  0  0
   14.6283   20.9500   -5.5215 N   0  0  0  0  0  0  0  0  0  0  0  0
   14.8298   21.8657   -4.5203 C   0  0  0  0  0  0  0  0  0  0  0  0
   15.7128   23.3230   -4.4296 S   0  0  0  0  0  0  0  0  0  0  0  0
   15.3655   23.7567   -2.8190 C   0  0  0  0  0  0  0  0  0  0  0  0
   15.7116   24.8331   -1.9791 C   0  0  0  0  0  0  0  0  0  0  0  0
   16.4524   25.6888   -2.5002 O   0  0  0  0  0  0  0  0  0  0  0  0
   15.2649   24.9089   -0.7171 N   0  0  0  0  0  0  0  0  0  0  0  0
   14.4752   23.9033   -0.3109 C   0  0  0  0  0  0  0  0  0  0  0  0
   14.1390   22.8809   -1.0887 N   0  0  0  0  0  0  0  0  0  0  0  0
   14.5601   22.7407   -2.3871 C   0  0  0  0  0  0  0  0  0  0  0  0
   14.2791   21.7520   -3.2722 C   0  0  0  0  0  0  0  0  0  0  0  0
   15.6417   26.0264    0.1102 C   0  0  0  0  0  0  0  0  0  0  0  0
   16.2256   25.5935    1.4321 C   0  0  0  0  0  0  0  0  0  0  0  0
   16.4604   26.8252    2.2574 C   0  0  0  0  0  0  0  0  0  0  0  0
   16.2102   28.1042    1.5434 C   0  0  0  0  0  0  0  0  0  0  0  0
   16.7744   28.1782    0.1603 C   0  0  0  0  0  0  0  0  0  0  0  0
   16.7427   26.8541   -0.5670 C   0  0  0  0  0  0  0  0  0  0  0  0
   11.4229   20.3570   -1.5787 C   0  0  0  0  0  0  0  0  0  0  0  0
   12.8464   20.3015   -1.8338 N   0  0  0  0  0  0  0  0  0  0  0  0
   13.7072   19.8968   -0.7385 C   0  0  0  0  0  0  0  0  0  0  0  0
 21 22  1  0  0  0
 22 23  1  0  0  0
 22  1  1  0  0  0
  1  2  2  0  0  0
  2  3  1  0  0  0
  3  4  2  0  0  0
  4  5  1  0  0  0
  5  6  1  0  0  0
  6  7  1  0  0  0
  7  8  1  0  0  0
  8  9  2  0  0  0
  8 10  1  0  0  0
 10 15  1  0  0  0
 15 16  1  0  0  0
 16 17  1  0  0  0
 17 18  1  0  0  0
 18 19  1  0  0  0
 19 20  1  0  0  0
 10 11  1  0  0  0
 11 12  2  0  0  0
 12 13  1  0  0  0
 13 14  1  0  0  0
 14  1  1  0  0  0
 14  5  2  0  0  0
 13  7  2  0  0  0
 20 15  1  0  0  0
M  END
> <minimizedAffinity>
33.36931

> <CNNscore>
0.3462927341

> <CNNaffinity>
6.1497488022

> <CNN_VS>
2.1296133995

> <CNNaffinity_variance>
0.7496531606

$$$$
[H]c1nc2sc3c(=O)n(C4([H])C([H])([H])C([H])([H])C([H])([H])C([H])([H])C4([H])[H])c([H])nc3c2c(N(C([H])([H])[H])C([H])([H])[H])c1[H]


 23 26  0  0  0  0  0  0  0  0999 V2000
   12.9767   24.0852    0.2500 C   0  0  0  0  0  0  0  0  0  0  0  0
   12.8073   23.3205    1.3866 C   0  0  0  0  0  0  0  0  0  0  0  0
   13.4030   22.1006    1.6092 C   0  0  0  0  0  0  0  0  0  0  0  0
   14.1985   21.6659    0.6174 N   0  0  0  0  0  0  0  0  0  0  0  0
   14.4016   22.3845   -0.5331 C   0  0  0  0  0  0  0  0  0  0  0  0
   15.3214   22.1000   -1.9419 S   0  0  0  0  0  0  0  0  0  0  0  0
   14.9490   23.5199   -2.8065 C   0  0  0  0  0  0  0  0  0  0  0  0
   15.3047   24.0438   -4.0647 C   0  0  0  0  0  0  0  0  0  0  0  0
   16.0801   23.3311   -4.7303 O   0  0  0  0  0  0  0  0  0  0  0  0
   14.8312   25.2235   -4.4918 N   0  0  0  0  0  0  0  0  0  0  0  0
   14.0054   25.8652   -3.6514 C   0  0  0  0  0  0  0  0  0  0  0  0
   13.6596   25.3865   -2.4621 N   0  0  0  0  0  0  0  0  0  0  0  0
   14.1066   24.1888   -1.9636 C   0  0  0  0  0  0  0  0  0  0  0  0
   13.8194   23.5994   -0.7763 C   0  0  0  0  0  0  0  0  0  0  0  0
   15.2190   25.7249   -5.7853 C   0  0  0  0  0  0  0  0  0  0  0  0
   15.6809   27.1600   -5.7320 C   0  0  0  0  0  0  0  0  0  0  0  0
   15.9346   27.6149   -7.1399 C   0  0  0  0  0  0  0  0  0  0  0  0
   15.8157   26.5460   -8.1653 C   0  0  0  0  0  0  0  0  0  0  0  0
   16.4786   25.2528   -7.8118 C   0  0  0  0  0  0  0  0  0  0  0  0
   16.4143   24.9352   -6.3358 C   0  0  0  0  0  0  0  0  0  0  0  0
   12.2827   26.3134    1.2637 C   0  0  0  0  0  0  0  0  0  0  0  0
   12.3152   25.3362    0.1967 N   0  0  0  0  0  0  0  0  0  0  0  0
   11.6134   25.6616   -1.0304 C   0  0  0  0  0  0  0  0  0  0  0  0
 21 22  1  0  0  0
 22 23  1  0  0  0
 22  1  1  0  0  0
  1  2  2  0  0  0
  2  3  1  0  0  0
  3  4  2  0  0  0
  4  5  1  0  0  0
  5  6  1  0  0  0
  6  7  1  0  0  0
  7  8  1  0  0  0
  8  9  2  0  0  0
  8 10  1  0  0  0
 10 15  1  0  0  0
 15 16  1  0  0  0
 16 17  1  0  0  0
 17 18  1  0  0  0
 18 19  1  0  0  0
 19 20  1  0  0  0
 10 11  1  0  0  0
 11 12  2  0  0  0
 12 13  1  0  0  0
 13 14  1  0  0  0
 14  1  1  0  0  0
 14  5  2  0  0  0
 13  7  2  0  0  0
 20 15  1  0  0  0
M  END
> <minimizedAffinity>
2.80604

> <CNNscore>
0.3181197047

> <CNNaffinity>
6.5193991661

> <CNN_VS>
2.0739493370

> <CNNaffinity_variance>
0.1866931021

$$$$
[H]c1nc2sc3c(=O)n(C4([H])C([H])([H])C([H])([H])C([H])([H])C([H])([H])C4([H])[H])c([H])nc3c2c(N(C([H])([H])[H])C([H])([H])[H])c1[H]


 23 26  0  0  0  0  0  0  0  0999 V2000
   10.3792   22.6656    2.2240 C   0  0  0  0  0  0  0  0  0  0  0  0
   10.0812   21.8056    3.2618 C   0  0  0  0  0  0  0  0  0  0  0  0
   10.8222   20.6974    3.6015 C   0  0  0  0  0  0  0  0  0  0  0  0
   11.9051   20.4800    2.8365 N   0  0  0  0  0  0  0  0  0  0  0  0
   12.2471   21.3017    1.7928 C   0  0  0  0  0  0  0  0  0  0  0  0
   13.5231   21.2827    0.6599 S   0  0  0  0  0  0  0  0  0  0  0  0
   13.1155   22.6716   -0.2386 C   0  0  0  0  0  0  0  0  0  0  0  0
   13.6658   23.3365   -1.3517 C   0  0  0  0  0  0  0  0  0  0  0  0
   14.7015   22.8198   -1.8129 O   0  0  0  0  0  0  0  0  0  0  0  0
   13.0992   24.4411   -1.8587 N   0  0  0  0  0  0  0  0  0  0  0  0
   11.9859   24.8670   -1.2431 C   0  0  0  0  0  0  0  0  0  0  0  0
   11.4535   24.2530   -0.1929 N   0  0  0  0  0  0  0  0  0  0  0  0
   11.9806   23.1210    0.3759 C   0  0  0  0  0  0  0  0  0  0  0  0
   11.5252   22.4088    1.4366 C   0  0  0  0  0  0  0  0  0  0  0  0
   13.6931   25.0921   -2.9983 C   0  0  0  0  0  0  0  0  0  0  0  0
   12.9293   26.3222   -3.4216 C   0  0  0  0  0  0  0  0  0  0  0  0
   13.5555   26.8417   -4.6832 C   0  0  0  0  0  0  0  0  0  0  0  0
   14.7972   26.1355   -5.0927 C   0  0  0  0  0  0  0  0  0  0  0  0
   15.7718   25.8762   -3.9883 C   0  0  0  0  0  0  0  0  0  0  0  0
   15.1060   25.5884   -2.6625 C   0  0  0  0  0  0  0  0  0  0  0  0
    8.2933   23.7732    1.2771 C   0  0  0  0  0  0  0  0  0  0  0  0
    9.5281   23.7811    2.0319 N   0  0  0  0  0  0  0  0  0  0  0  0
    9.9305   25.0333    2.6437 C   0  0  0  0  0  0  0  0  0  0  0  0
 21 22  1  0  0  0
 22 23  1  0  0  0
 22  1  1  0  0  0
  1  2  2  0  0  0
  2  3  1  0  0  0
  3  4  2  0  0  0
  4  5  1  0  0  0
  5  6  1  0  0  0
  6  7  1  0  0  0
  7  8  1  0  0  0
  8  9  2  0  0  0
  8 10  1  0  0  0
 10 15  1  0  0  0
 15 16  1  0  0  0
 16 17  1  0  0  0
 17 18  1  0  0  0
 18 19  1  0  0  0
 19 20  1  0  0  0
 10 11  1  0  0  0
 11 12  2  0  0  0
 12 13  1  0  0  0
 13 14  1  0  0  0
 14  1  1  0  0  0
 14  5  2  0  0  0
 13  7  2  0  0  0
 20 15  1  0  0  0
M  END
> <minimizedAffinity>
-8.29782

> <CNNscore>
0.2987622917

> <CNNaffinity>
6.7078542709

> <CNN_VS>
2.0040538311

> <CNNaffinity_variance>
0.2209479511

$$$$
[H]c1nc2sc3c(=O)n(C4([H])C([H])([H])C([H])([H])C([H])([H])C([H])([H])C4([H])[H])c([H])nc3c2c(N(C([H])([H])[H])C([H])([H])[H])c1[H]


 23 26  0  0  0  0  0  0  0  0999 V2000
    9.5196   28.5662   -4.9791 C   0  0  0  0  0  0  0  0  0  0  0  0
    9.1692   29.8144   -5.4529 C   0  0  0  0  0  0  0  0  0  0  0  0
    9.9814   30.9243   -5.4192 C   0  0  0  0  0  0  0  0  0  0  0  0
   11.1940   30.7264   -4.8754 N   0  0  0  0  0  0  0  0  0  0  0  0
   11.5934   29.5077   -4.3887 C   0  0  0  0  0  0  0  0  0  0  0  0
   13.0295   28.9585   -3.6485 S   0  0  0  0  0  0  0  0  0  0  0  0
   12.5986   27.3317   -3.3829 C   0  0  0  0  0  0  0  0  0  0  0  0
   13.2333   26.2126   -2.8096 C   0  0  0  0  0  0  0  0  0  0  0  0
   14.3886   26.4207   -2.3920 O   0  0  0  0  0  0  0  0  0  0  0  0
   12.6196   25.0230   -2.7307 N   0  0  0  0  0  0  0  0  0  0  0  0
   11.3748   24.9688   -3.2282 C   0  0  0  0  0  0  0  0  0  0  0  0
   10.7613   26.0133   -3.7722 N   0  0  0  0  0  0  0  0  0  0  0  0
   11.3299   27.2570   -3.8852 C   0  0  0  0  0  0  0  0  0  0  0  0
   10.8027   28.3906   -4.4113 C   0  0  0  0  0  0  0  0  0  0  0  0
   13.3031   23.9025   -2.1370 C   0  0  0  0  0  0  0  0  0  0  0  0
   14.5724   23.5473   -2.8708 C   0  0  0  0  0  0  0  0  0  0  0  0
   15.1289   22.2986   -2.2508 C   0  0  0  0  0  0  0  0  0  0  0  0
   14.4060   21.8362   -1.0377 C   0  0  0  0  0  0  0  0  0  0  0  0
   14.0697   22.9104   -0.0529 C   0  0  0  0  0  0  0  0  0  0  0  0
   13.7429   24.2340   -0.7045 C   0  0  0  0  0  0  0  0  0  0  0  0
    7.3135   27.4288   -4.4187 C   0  0  0  0  0  0  0  0  0  0  0  0
    8.5747   27.5213   -5.1227 N   0  0  0  0  0  0  0  0  0  0  0  0
    8.9011   26.4575   -6.0534 C   0  0  0  0  0  0  0  0  0  0  0  0
 21 22  1  0  0  0
 22 23  1  0  0  0
 22  1  1  0  0  0
  1  2  2  0  0  0
  2  3  1  0  0  0
  3  4  2  0  0  0
  4  5  1  0  0  0
  5  6  1  0  0  0
  6  7  1  0  0  0
  7  8  1  0  0  0
  8  9  2  0  0  0
  8 10  1  0  0  0
 10 15  1  0  0  0
 15 16  1  0  0  0
 16 17  1  0  0  0
 17 18  1  0  0  0
 18 19  1  0  0  0
 19 20  1  0  0  0
 10 11  1  0  0  0
 11 12  2  0  0  0
 12 13  1  0  0  0
 13 14  1  0  0  0
 14  1  1  0  0  0
 14  5  2  0  0  0
 13  7  2  0  0  0
 20 15  1  0  0  0
M  END
> <minimizedAffinity>
48.95306

> <CNNscore>
0.2817702293

> <CNNaffinity>
5.5853066444

> <CNN_VS>
1.5737731457

> <CNNaffinity_variance>
0.8506135941

$$$$
[H]c1c([H])c(-c2c(C([H])([H])C([H])([H])[H])c(C3=NC4(C(=O)N3[H])C([H])([H])C([H])([H])C4([H])[H])nn2-c2c([H])c([H])c(Cl)c([H])c2Cl)c([H])c([H])c1Cl


 32 36  0  0  0  0  0  0  0  0999 V2000
   11.5093   23.9836   -0.6607 C   0  0  0  0  0  0  0  0  0  0  0  0
   11.2667   23.6789    0.6442 C   0  0  0  0  0  0  0  0  0  0  0  0
   12.5198   23.6319    1.1983 N   0  0  0  0  0  0  0  0  0  0  0  0
   13.4608   23.8913    0.3096 N   0  0  0  0  0  0  0  0  0  0  0  0
   12.8966   24.1241   -0.8708 C   0  0  0  0  0  0  0  0  0  0  0  0
   10.0544   23.4776    1.4197 C   0  0  0  0  0  0  0  0  0  0  0  0
    9.6293   22.2513    1.7251 N   0  0  0  0  0  0  0  0  0  0  0  0
    8.4344   22.2738    2.4829 C   0  0  0  0  0  0  0  0  0  0  0  0
    8.4303   21.4613    3.7581 C   0  0  0  0  0  0  0  0  0  0  0  0
    7.5659   20.4455    3.0729 C   0  0  0  0  0  0  0  0  0  0  0  0
    7.2863   21.4393    1.9707 C   0  0  0  0  0  0  0  0  0  0  0  0
    8.1095   23.6910    2.7050 C   0  0  0  0  0  0  0  0  0  0  0  0
    7.1726   24.2241    3.3392 O   0  0  0  0  0  0  0  0  0  0  0  0
    9.1663   24.3935    1.9918 N   0  0  0  0  0  0  0  0  0  0  0  0
    9.1726   25.4343    1.9764 H   0  0  0  0  0  0  0  0  0  0  0  0
   14.8568   23.9200    0.6103 C   0  0  0  0  0  0  0  0  0  0  0  0
   15.6621   22.7844    0.6278 C   0  0  0  0  0  0  0  0  0  0  0  0
   16.9938   22.8521    0.9483 C   0  0  0  0  0  0  0  0  0  0  0  0
   17.5712   24.0508    1.2626 C   0  0  0  0  0  0  0  0  0  0  0  0
   19.2658   24.2091    1.6805 Cl  0  0  0  0  0  0  0  0  0  0  0  0
   16.8080   25.1908    1.2563 C   0  0  0  0  0  0  0  0  0  0  0  0
   15.4439   25.1131    0.9273 C   0  0  0  0  0  0  0  0  0  0  0  0
   14.5142   26.6092    0.9815 Cl  0  0  0  0  0  0  0  0  0  0  0  0
   13.4980   24.6156   -2.0940 C   0  0  0  0  0  0  0  0  0  0  0  0
   13.0521   25.7646   -2.6904 C   0  0  0  0  0  0  0  0  0  0  0  0
   13.5416   26.1705   -3.9253 C   0  0  0  0  0  0  0  0  0  0  0  0
   14.4920   25.4470   -4.6082 C   0  0  0  0  0  0  0  0  0  0  0  0
   15.1200   25.9459   -6.1651 Cl  0  0  0  0  0  0  0  0  0  0  0  0
   14.9492   24.2875   -4.0185 C   0  0  0  0  0  0  0  0  0  0  0  0
   14.4514   23.8966   -2.7906 C   0  0  0  0  0  0  0  0  0  0  0  0
   10.0489   22.5480   -2.0317 C   0  0  0  0  0  0  0  0  0  0  0  0
   10.4336   24.0222   -1.7043 C   0  0  0  0  0  0  0  0  0  0  0  0
 31 32  1  0  0  0
 32  1  1  0  0  0
  1  2  1  0  0  0
  2  6  1  0  0  0
  6  7  2  0  0  0
  7  8  1  0  0  0
  8  9  1  0  0  0
  9 10  1  0  0  0
 10 11  1  0  0  0
  8 12  1  0  0  0
 12 13  2  0  0  0
 12 14  1  0  0  0
  2  3  2  0  0  0
  3  4  1  0  0  0
  4 16  1  0  0  0
 16 17  2  0  0  0
 17 18  1  0  0  0
 18 19  2  0  0  0
 19 20  1  0  0  0
 19 21  1  0  0  0
 21 22  2  0  0  0
 22 23  1  0  0  0
  4  5  1  0  0  0
  5 24  1  0  0  0
 24 25  2  0  0  0
 25 26  1  0  0  0
 26 27  2  0  0  0
 27 28  1  0  0  0
 27 29  1  0  0  0
 29 30  2  0  0  0
  5  1  2  0  0  0
 30 24  1  0  0  0
 14  6  1  0  0  0
 22 16  1  0  0  0
 11  8  1  0  0  0
 14 15  1  0  0  0
M  END
> <minimizedAffinity>
-1.43905

> <CNNscore>
0.5719275475

> <CNNaffinity>
7.7795953751

> <CNN_VS>
4.4493651390

> <CNNaffinity_variance>
0.5793110728

$$$$
[H]c1c([H])c(-c2c(C([H])([H])C([H])([H])[H])c(C3=NC4(C(=O)N3[H])C([H])([H])C([H])([H])C4([H])[H])nn2-c2c([H])c([H])c(Cl)c([H])c2Cl)c([H])c([H])c1Cl


 32 36  0  0  0  0  0  0  0  0999 V2000
   11.4098   23.6153   -0.5871 C   0  0  0  0  0  0  0  0  0  0  0  0
   11.2651   23.2524    0.7175 C   0  0  0  0  0  0  0  0  0  0  0  0
   12.5429   23.3191    1.2100 N   0  0  0  0  0  0  0  0  0  0  0  0
   13.4070   23.6972    0.2864 N   0  0  0  0  0  0  0  0  0  0  0  0
   12.7636   23.9026   -0.8580 C   0  0  0  0  0  0  0  0  0  0  0  0
   10.1199   22.9074    1.5427 C   0  0  0  0  0  0  0  0  0  0  0  0
   10.2783   22.4952    2.8007 N   0  0  0  0  0  0  0  0  0  0  0  0
    9.0424   22.2107    3.4289 C   0  0  0  0  0  0  0  0  0  0  0  0
    8.8057   22.8592    4.7740 C   0  0  0  0  0  0  0  0  0  0  0  0
    9.0451   21.5293    5.4240 C   0  0  0  0  0  0  0  0  0  0  0  0
    8.9042   20.8562    4.0795 C   0  0  0  0  0  0  0  0  0  0  0  0
    7.9942   22.5278    2.4471 C   0  0  0  0  0  0  0  0  0  0  0  0
    6.7480   22.4722    2.5366 O   0  0  0  0  0  0  0  0  0  0  0  0
    8.7482   22.9464    1.2744 N   0  0  0  0  0  0  0  0  0  0  0  0
    8.2410   23.2231    0.4084 H   0  0  0  0  0  0  0  0  0  0  0  0
   14.8063   23.8605    0.5214 C   0  0  0  0  0  0  0  0  0  0  0  0
   15.4518   25.0937    0.4882 C   0  0  0  0  0  0  0  0  0  0  0  0
   16.8034   25.2035    0.6930 C   0  0  0  0  0  0  0  0  0  0  0  0
   17.5602   24.0916    0.9381 C   0  0  0  0  0  0  0  0  0  0  0  0
   19.2902   24.1600    1.2091 Cl  0  0  0  0  0  0  0  0  0  0  0  0
   16.9580   22.8596    0.9774 C   0  0  0  0  0  0  0  0  0  0  0  0
   15.5726   22.7551    0.7659 C   0  0  0  0  0  0  0  0  0  0  0  0
   14.8724   21.1380    0.7872 Cl  0  0  0  0  0  0  0  0  0  0  0  0
   13.2500   24.4857   -2.0920 C   0  0  0  0  0  0  0  0  0  0  0  0
   14.2743   23.9075   -2.7929 C   0  0  0  0  0  0  0  0  0  0  0  0
   14.8244   24.5291   -3.9066 C   0  0  0  0  0  0  0  0  0  0  0  0
   14.3731   25.7469   -4.3610 C   0  0  0  0  0  0  0  0  0  0  0  0
   15.0551   26.5430   -5.7640 Cl  0  0  0  0  0  0  0  0  0  0  0  0
   13.3419   26.3401   -3.6637 C   0  0  0  0  0  0  0  0  0  0  0  0
   12.8066   25.7097   -2.5571 C   0  0  0  0  0  0  0  0  0  0  0  0
   10.1335   22.0933   -2.0458 C   0  0  0  0  0  0  0  0  0  0  0  0
   10.2846   23.5716   -1.5768 C   0  0  0  0  0  0  0  0  0  0  0  0
 31 32  1  0  0  0
 32  1  1  0  0  0
  1  2  1  0  0  0
  2  6  1  0  0  0
  6  7  2  0  0  0
  7  8  1  0  0  0
  8  9  1  0  0  0
  9 10  1  0  0  0
 10 11  1  0  0  0
  8 12  1  0  0  0
 12 13  2  0  0  0
 12 14  1  0  0  0
  2  3  2  0  0  0
  3  4  1  0  0  0
  4 16  1  0  0  0
 16 17  2  0  0  0
 17 18  1  0  0  0
 18 19  2  0  0  0
 19 20  1  0  0  0
 19 21  1  0  0  0
 21 22  2  0  0  0
 22 23  1  0  0  0
  4  5  1  0  0  0
  5 24  1  0  0  0
 24 25  2  0  0  0
 25 26  1  0  0  0
 26 27  2  0  0  0
 27 28  1  0  0  0
 27 29  1  0  0  0
 29 30  2  0  0  0
  5  1  2  0  0  0
 30 24  1  0  0  0
 14  6  1  0  0  0
 22 16  1  0  0  0
 11  8  1  0  0  0
 14 15  1  0  0  0
M  END
> <minimizedAffinity>
-5.62493

> <CNNscore>
0.5142041445

> <CNNaffinity>
7.9456834793

> <CNN_VS>
4.0857033730

> <CNNaffinity_variance>
0.4888451695

$$$$
[H]c1c([H])c(-c2c(C([H])([H])C([H])([H])[H])c(C3=NC4(C(=O)N3[H])C([H])([H])C([H])([H])C4([H])[H])nn2-c2c([H])c([H])c(Cl)c([H])c2Cl)c([H])c([H])c1Cl


 32 36  0  0  0  0  0  0  0  0999 V2000
   14.2963   25.3780   -2.9842 C   0  0  0  0  0  0  0  0  0  0  0  0
   13.3179   25.0558   -2.0935 C   0  0  0  0  0  0  0  0  0  0  0  0
   12.3030   25.9221   -2.4083 N   0  0  0  0  0  0  0  0  0  0  0  0
   12.6256   26.7126   -3.4151 N   0  0  0  0  0  0  0  0  0  0  0  0
   13.8560   26.4217   -3.8240 C   0  0  0  0  0  0  0  0  0  0  0  0
   13.1991   24.0480   -1.0534 C   0  0  0  0  0  0  0  0  0  0  0  0
   13.9851   22.9711   -1.0466 N   0  0  0  0  0  0  0  0  0  0  0  0
   13.7097   22.1160    0.0470 C   0  0  0  0  0  0  0  0  0  0  0  0
   14.8935   21.6971    0.8890 C   0  0  0  0  0  0  0  0  0  0  0  0
   14.8237   20.3386    0.2580 C   0  0  0  0  0  0  0  0  0  0  0  0
   13.4475   20.6646   -0.2716 C   0  0  0  0  0  0  0  0  0  0  0  0
   12.6517   22.7712    0.8310 C   0  0  0  0  0  0  0  0  0  0  0  0
   12.0931   22.4277    1.8959 O   0  0  0  0  0  0  0  0  0  0  0  0
   12.3672   23.9781    0.0683 N   0  0  0  0  0  0  0  0  0  0  0  0
   11.6323   24.6358    0.4013 H   0  0  0  0  0  0  0  0  0  0  0  0
   11.7562   27.7061   -3.9602 C   0  0  0  0  0  0  0  0  0  0  0  0
   10.7179   27.4178   -4.8419 C   0  0  0  0  0  0  0  0  0  0  0  0
    9.9225   28.4057   -5.3637 C   0  0  0  0  0  0  0  0  0  0  0  0
   10.1315   29.7143   -5.0273 C   0  0  0  0  0  0  0  0  0  0  0  0
    9.1531   31.0253   -5.6560 Cl  0  0  0  0  0  0  0  0  0  0  0  0
   11.1460   30.0356   -4.1616 C   0  0  0  0  0  0  0  0  0  0  0  0
   11.9572   29.0178   -3.6315 C   0  0  0  0  0  0  0  0  0  0  0  0
   13.2685   29.5062   -2.5603 Cl  0  0  0  0  0  0  0  0  0  0  0  0
   14.5695   26.8934   -4.9936 C   0  0  0  0  0  0  0  0  0  0  0  0
   14.5768   26.1720   -6.1573 C   0  0  0  0  0  0  0  0  0  0  0  0
   15.3594   26.5582   -7.2379 C   0  0  0  0  0  0  0  0  0  0  0  0
   16.1607   27.6760   -7.1972 C   0  0  0  0  0  0  0  0  0  0  0  0
   17.1522   28.1768   -8.5512 Cl  0  0  0  0  0  0  0  0  0  0  0  0
   16.1626   28.4112   -6.0306 C   0  0  0  0  0  0  0  0  0  0  0  0
   15.3798   28.0130   -4.9643 C   0  0  0  0  0  0  0  0  0  0  0  0
   15.6809   23.5899   -3.9634 C   0  0  0  0  0  0  0  0  0  0  0  0
   15.6668   24.7713   -2.9473 C   0  0  0  0  0  0  0  0  0  0  0  0
 31 32  1  0  0  0
 32  1  1  0  0  0
  1  2  1  0  0  0
  2  6  1  0  0  0
  6  7  2  0  0  0
  7  8  1  0  0  0
  8  9  1  0  0  0
  9 10  1  0  0  0
 10 11  1  0  0  0
  8 12  1  0  0  0
 12 13  2  0  0  0
 12 14  1  0  0  0
  2  3  2  0  0  0
  3  4  1  0  0  0
  4 16  1  0  0  0
 16 17  2  0  0  0
 17 18  1  0  0  0
 18 19  2  0  0  0
 19 20  1  0  0  0
 19 21  1  0  0  0
 21 22  2  0  0  0
 22 23  1  0  0  0
  4  5  1  0  0  0
  5 24  1  0  0  0
 24 25  2  0  0  0
 25 26  1  0  0  0
 26 27  2  0  0  0
 27 28  1  0  0  0
 27 29  1  0  0  0
 29 30  2  0  0  0
  5  1  2  0  0  0
 30 24  1  0  0  0
 14  6  1  0  0  0
 22 16  1  0  0  0
 11  8  1  0  0  0
 14 15  1  0  0  0
M  END
> <minimizedAffinity>
21.62071

> <CNNscore>
0.5032208562

> <CNNaffinity>
7.5643897057

> <CNN_VS>
3.8065586090

> <CNNaffinity_variance>
0.8839851618

$$$$
[H]c1c([H])c(-c2c(C([H])([H])C([H])([H])[H])c(C3=NC4(C(=O)N3[H])C([H])([H])C([H])([H])C4([H])[H])nn2-c2c([H])c([H])c(Cl)c([H])c2Cl)c([H])c([H])c1Cl


 32 36  0  0  0  0  0  0  0  0999 V2000
   15.0060   25.2471   -2.3709 C   0  0  0  0  0  0  0  0  0  0  0  0
   14.9795   24.3519   -3.3968 C   0  0  0  0  0  0  0  0  0  0  0  0
   14.3254   23.2728   -2.8609 N   0  0  0  0  0  0  0  0  0  0  0  0
   13.9717   23.4850   -1.6068 N   0  0  0  0  0  0  0  0  0  0  0  0
   14.3631   24.7010   -1.2408 C   0  0  0  0  0  0  0  0  0  0  0  0
   15.4317   24.3930   -4.7772 C   0  0  0  0  0  0  0  0  0  0  0  0
   15.0948   25.4018   -5.5812 N   0  0  0  0  0  0  0  0  0  0  0  0
   15.6351   25.2521   -6.8806 C   0  0  0  0  0  0  0  0  0  0  0  0
   16.3918   26.4375   -7.4359 C   0  0  0  0  0  0  0  0  0  0  0  0
   15.2245   26.7250   -8.3322 C   0  0  0  0  0  0  0  0  0  0  0  0
   14.6698   25.3520   -8.0361 C   0  0  0  0  0  0  0  0  0  0  0  0
   16.4372   24.0195   -6.8581 C   0  0  0  0  0  0  0  0  0  0  0  0
   17.1303   23.4799   -7.7484 O   0  0  0  0  0  0  0  0  0  0  0  0
   16.2495   23.5216   -5.5031 N   0  0  0  0  0  0  0  0  0  0  0  0
   16.7095   22.6341   -5.2128 H   0  0  0  0  0  0  0  0  0  0  0  0
   13.2683   22.5358   -0.8043 C   0  0  0  0  0  0  0  0  0  0  0  0
   11.9231   22.2250   -0.9842 C   0  0  0  0  0  0  0  0  0  0  0  0
   11.2780   21.3265   -0.1734 C   0  0  0  0  0  0  0  0  0  0  0  0
   11.9476   20.7057    0.8442 C   0  0  0  0  0  0  0  0  0  0  0  0
   11.1854   19.5477    1.9164 Cl  0  0  0  0  0  0  0  0  0  0  0  0
   13.2740   20.9881    1.0516 C   0  0  0  0  0  0  0  0  0  0  0  0
   13.9279   21.9104    0.2168 C   0  0  0  0  0  0  0  0  0  0  0  0
   15.6196   22.2580    0.5673 Cl  0  0  0  0  0  0  0  0  0  0  0  0
   14.0539   25.4394   -0.0331 C   0  0  0  0  0  0  0  0  0  0  0  0
   12.7750   25.8436    0.2419 C   0  0  0  0  0  0  0  0  0  0  0  0
   12.4967   26.6563    1.3335 C   0  0  0  0  0  0  0  0  0  0  0  0
   13.4818   27.0937    2.1886 C   0  0  0  0  0  0  0  0  0  0  0  0
   13.1471   28.1176    3.5696 Cl  0  0  0  0  0  0  0  0  0  0  0  0
   14.7743   26.6939    1.9225 C   0  0  0  0  0  0  0  0  0  0  0  0
   15.0349   25.8867    0.8322 C   0  0  0  0  0  0  0  0  0  0  0  0
   17.2600   26.2418   -2.3167 C   0  0  0  0  0  0  0  0  0  0  0  0
   15.7385   26.5530   -2.4448 C   0  0  0  0  0  0  0  0  0  0  0  0
 31 32  1  0  0  0
 32  1  1  0  0  0
  1  2  1  0  0  0
  2  6  1  0  0  0
  6  7  2  0  0  0
  7  8  1  0  0  0
  8  9  1  0  0  0
  9 10  1  0  0  0
 10 11  1  0  0  0
  8 12  1  0  0  0
 12 13  2  0  0  0
 12 14  1  0  0  0
  2  3  2  0  0  0
  3  4  1  0  0  0
  4 16  1  0  0  0
 16 17  2  0  0  0
 17 18  1  0  0  0
 18 19  2  0  0  0
 19 20  1  0  0  0
 19 21  1  0  0  0
 21 22  2  0  0  0
 22 23  1  0  0  0
  4  5  1  0  0  0
  5 24  1  0  0  0
 24 25  2  0  0  0
 25 26  1  0  0  0
 26 27  2  0  0  0
 27 28  1  0  0  0
 27 29  1  0  0  0
 29 30  2  0  0  0
  5  1  2  0  0  0
 30 24  1  0  0  0
 14  6  1  0  0  0
 22 16  1  0  0  0
 11  8  1  0  0  0
 14 15  1  0  0  0
M  END
> <minimizedAffinity>
15.46281

> <CNNscore>
0.4835423827

> <CNNaffinity>
7.7691206932

> <CNN_VS>
3.7566990852

> <CNNaffinity_variance>
0.6155829430

$$$$
[H]c1c([H])c(-c2c(C([H])([H])C([H])([H])[H])c(C3=NC4(C(=O)N3[H])C([H])([H])C([H])([H])C4([H])[H])nn2-c2c([H])c([H])c(Cl)c([H])c2Cl)c([H])c([H])c1Cl


 32 36  0  0  0  0  0  0  0  0999 V2000
   12.6919   26.4387   -2.3547 C   0  0  0  0  0  0  0  0  0  0  0  0
   12.6682   27.2310   -3.4621 C   0  0  0  0  0  0  0  0  0  0  0  0
   13.5231   26.5965   -4.3258 N   0  0  0  0  0  0  0  0  0  0  0  0
   14.0307   25.4984   -3.7975 N   0  0  0  0  0  0  0  0  0  0  0  0
   13.5490   25.3396   -2.5693 C   0  0  0  0  0  0  0  0  0  0  0  0
   11.9401   28.4370   -3.8184 C   0  0  0  0  0  0  0  0  0  0  0  0
   10.6775   28.3778   -4.2426 N   0  0  0  0  0  0  0  0  0  0  0  0
   10.1525   29.6586   -4.5367 C   0  0  0  0  0  0  0  0  0  0  0  0
    8.8242   30.0039   -3.9021 C   0  0  0  0  0  0  0  0  0  0  0  0
    8.1701   29.8123   -5.2377 C   0  0  0  0  0  0  0  0  0  0  0  0
    9.5280   29.8434   -5.8979 C   0  0  0  0  0  0  0  0  0  0  0  0
   11.2115   30.6266   -4.2128 C   0  0  0  0  0  0  0  0  0  0  0  0
   11.2220   31.8758   -4.2727 O   0  0  0  0  0  0  0  0  0  0  0  0
   12.3164   29.7832   -3.7805 N   0  0  0  0  0  0  0  0  0  0  0  0
   13.2172   30.2208   -3.4967 H   0  0  0  0  0  0  0  0  0  0  0  0
   14.9436   24.6344   -4.4759 C   0  0  0  0  0  0  0  0  0  0  0  0
   15.3202   23.3838   -3.9933 C   0  0  0  0  0  0  0  0  0  0  0  0
   16.2213   22.5962   -4.6630 C   0  0  0  0  0  0  0  0  0  0  0  0
   16.7794   23.0243   -5.8354 C   0  0  0  0  0  0  0  0  0  0  0  0
   17.9357   22.0692   -6.7421 Cl  0  0  0  0  0  0  0  0  0  0  0  0
   16.4323   24.2516   -6.3405 C   0  0  0  0  0  0  0  0  0  0  0  0
   15.5086   25.0531   -5.6482 C   0  0  0  0  0  0  0  0  0  0  0  0
   15.1416   26.6356   -6.3314 Cl  0  0  0  0  0  0  0  0  0  0  0  0
   13.6764   24.2082   -1.6731 C   0  0  0  0  0  0  0  0  0  0  0  0
   14.7682   24.0696   -0.8586 C   0  0  0  0  0  0  0  0  0  0  0  0
   14.9525   22.9264   -0.0913 C   0  0  0  0  0  0  0  0  0  0  0  0
   14.0559   21.8829   -0.1082 C   0  0  0  0  0  0  0  0  0  0  0  0
   14.2733   20.4357    0.8540 Cl  0  0  0  0  0  0  0  0  0  0  0  0
   12.9521   22.0099   -0.9248 C   0  0  0  0  0  0  0  0  0  0  0  0
   12.7840   23.1525   -1.6828 C   0  0  0  0  0  0  0  0  0  0  0  0
   12.7354   26.0656    0.0809 C   0  0  0  0  0  0  0  0  0  0  0  0
   11.9943   26.7987   -1.0775 C   0  0  0  0  0  0  0  0  0  0  0  0
 31 32  1  0  0  0
 32  1  1  0  0  0
  1  2  1  0  0  0
  2  6  1  0  0  0
  6  7  2  0  0  0
  7  8  1  0  0  0
  8  9  1  0  0  0
  9 10  1  0  0  0
 10 11  1  0  0  0
  8 12  1  0  0  0
 12 13  2  0  0  0
 12 14  1  0  0  0
  2  3  2  0  0  0
  3  4  1  0  0  0
  4 16  1  0  0  0
 16 17  2  0  0  0
 17 18  1  0  0  0
 18 19  2  0  0  0
 19 20  1  0  0  0
 19 21  1  0  0  0
 21 22  2  0  0  0
 22 23  1  0  0  0
  4  5  1  0  0  0
  5 24  1  0  0  0
 24 25  2  0  0  0
 25 26  1  0  0  0
 26 27  2  0  0  0
 27 28  1  0  0  0
 27 29  1  0  0  0
 29 30  2  0  0  0
  5  1  2  0  0  0
 30 24  1  0  0  0
 14  6  1  0  0  0
 22 16  1  0  0  0
 11  8  1  0  0  0
 14 15  1  0  0  0
M  END
> <minimizedAffinity>
23.87239

> <CNNscore>
0.4749170840

> <CNNaffinity>
7.3602409363

> <CNN_VS>
3.4955041409

> <CNNaffinity_variance>
0.6779317856

$$$$
[H]c1c([H])c(-c2c(C([H])([H])C([H])([H])[H])c(C3=NC4(C(=O)N3[H])C([H])([H])C([H])([H])C4([H])[H])nn2-c2c([H])c([H])c(Cl)c([H])c2Cl)c([H])c([H])c1Cl


 32 36  0  0  0  0  0  0  0  0999 V2000
   12.0588   22.6489    0.1549 C   0  0  0  0  0  0  0  0  0  0  0  0
   11.8136   23.7121    0.9698 C   0  0  0  0  0  0  0  0  0  0  0  0
   12.7255   24.6480    0.5550 N   0  0  0  0  0  0  0  0  0  0  0  0
   13.4709   24.2018   -0.4389 N   0  0  0  0  0  0  0  0  0  0  0  0
   13.1029   22.9610   -0.7401 C   0  0  0  0  0  0  0  0  0  0  0  0
   10.8410   23.9704    2.0181 C   0  0  0  0  0  0  0  0  0  0  0  0
   10.0974   25.0770    2.0085 N   0  0  0  0  0  0  0  0  0  0  0  0
    9.2159   25.1374    3.1140 C   0  0  0  0  0  0  0  0  0  0  0  0
    7.7621   25.4115    2.8018 C   0  0  0  0  0  0  0  0  0  0  0  0
    7.9458   26.8081    3.3158 C   0  0  0  0  0  0  0  0  0  0  0  0
    9.2535   26.3944    3.9480 C   0  0  0  0  0  0  0  0  0  0  0  0
    9.4147   23.8934    3.8729 C   0  0  0  0  0  0  0  0  0  0  0  0
    8.8519   23.4682    4.9057 O   0  0  0  0  0  0  0  0  0  0  0  0
   10.4666   23.2126    3.1319 N   0  0  0  0  0  0  0  0  0  0  0  0
   10.8164   22.2905    3.4651 H   0  0  0  0  0  0  0  0  0  0  0  0
   14.4959   24.9673   -1.0740 C   0  0  0  0  0  0  0  0  0  0  0  0
   15.8172   24.9945   -0.6359 C   0  0  0  0  0  0  0  0  0  0  0  0
   16.7656   25.7649   -1.2587 C   0  0  0  0  0  0  0  0  0  0  0  0
   16.4336   26.5349   -2.3385 C   0  0  0  0  0  0  0  0  0  0  0  0
   17.5946   27.5414   -3.1813 Cl  0  0  0  0  0  0  0  0  0  0  0  0
   15.1408   26.5335   -2.7976 C   0  0  0  0  0  0  0  0  0  0  0  0
   14.1746   25.7418   -2.1536 C   0  0  0  0  0  0  0  0  0  0  0  0
   12.5251   25.8217   -2.7690 Cl  0  0  0  0  0  0  0  0  0  0  0  0
   13.5045   22.1307   -1.8576 C   0  0  0  0  0  0  0  0  0  0  0  0
   14.4912   22.5308   -2.7183 C   0  0  0  0  0  0  0  0  0  0  0  0
   14.7919   21.7969   -3.8587 C   0  0  0  0  0  0  0  0  0  0  0  0
   14.1212   20.6395   -4.1805 C   0  0  0  0  0  0  0  0  0  0  0  0
   14.4891   19.7024   -5.6136 Cl  0  0  0  0  0  0  0  0  0  0  0  0
   13.1248   20.2257   -3.3219 C   0  0  0  0  0  0  0  0  0  0  0  0
   12.8368   20.9675   -2.1927 C   0  0  0  0  0  0  0  0  0  0  0  0
   12.1271   20.5497    1.4442 C   0  0  0  0  0  0  0  0  0  0  0  0
   11.3794   21.3222    0.3161 C   0  0  0  0  0  0  0  0  0  0  0  0
 31 32  1  0  0  0
 32  1  1  0  0  0
  1  2  1  0  0  0
  2  6  1  0  0  0
  6  7  2  0  0  0
  7  8  1  0  0  0
  8  9  1  0  0  0
  9 10  1  0  0  0
 10 11  1  0  0  0
  8 12  1  0  0  0
 12 13  2  0  0  0
 12 14  1  0  0  0
  2  3  2  0  0  0
  3  4  1  0  0  0
  4 16  1  0  0  0
 16 17  2  0  0  0
 17 18  1  0  0  0
 18 19  2  0  0  0
 19 20  1  0  0  0
 19 21  1  0  0  0
 21 22  2  0  0  0
 22 23  1  0  0  0
  4  5  1  0  0  0
  5 24  1  0  0  0
 24 25  2  0  0  0
 25 26  1  0  0  0
 26 27  2  0  0  0
 27 28  1  0  0  0
 27 29  1  0  0  0
 29 30  2  0  0  0
  5  1  2  0  0  0
 30 24  1  0  0  0
 14  6  1  0  0  0
 22 16  1  0  0  0
 11  8  1  0  0  0
 14 15  1  0  0  0
M  END
> <minimizedAffinity>
2.49879

> <CNNscore>
0.4433948994

> <CNNaffinity>
7.4287481308

> <CNN_VS>
3.2938690186

> <CNNaffinity_variance>
0.5274852514

$$$$
[H]c1c([H])c(-c2c(C([H])([H])C([H])([H])[H])c(C3=NC4(C(=O)N3[H])C([H])([H])C([H])([H])C4([H])[H])nn2-c2c([H])c([H])c(Cl)c([H])c2Cl)c([H])c([H])c1Cl


 32 36  0  0  0  0  0  0  0  0999 V2000
   12.8369   22.3732   -1.0225 C   0  0  0  0  0  0  0  0  0  0  0  0
   13.6646   23.0991   -1.8241 C   0  0  0  0  0  0  0  0  0  0  0  0
   13.7946   24.2880   -1.1540 N   0  0  0  0  0  0  0  0  0  0  0  0
   13.1072   24.2953   -0.0270 N   0  0  0  0  0  0  0  0  0  0  0  0
   12.4895   23.1276    0.1171 C   0  0  0  0  0  0  0  0  0  0  0  0
   14.3593   22.8163   -3.0687 C   0  0  0  0  0  0  0  0  0  0  0  0
   14.7539   23.8020   -3.8751 N   0  0  0  0  0  0  0  0  0  0  0  0
   15.4097   23.3158   -5.0311 C   0  0  0  0  0  0  0  0  0  0  0  0
   16.7567   23.9252   -5.3476 C   0  0  0  0  0  0  0  0  0  0  0  0
   16.1132   24.6959   -6.4613 C   0  0  0  0  0  0  0  0  0  0  0  0
   14.8968   23.8061   -6.3629 C   0  0  0  0  0  0  0  0  0  0  0  0
   15.4600   21.8521   -4.8961 C   0  0  0  0  0  0  0  0  0  0  0  0
   15.9613   20.9803   -5.6397 O   0  0  0  0  0  0  0  0  0  0  0  0
   14.7638   21.6066   -3.6415 N   0  0  0  0  0  0  0  0  0  0  0  0
   14.6430   20.6297   -3.3028 H   0  0  0  0  0  0  0  0  0  0  0  0
   13.0676   25.4005    0.8767 C   0  0  0  0  0  0  0  0  0  0  0  0
   11.8857   25.9888    1.3192 C   0  0  0  0  0  0  0  0  0  0  0  0
   11.8926   27.0669    2.1668 C   0  0  0  0  0  0  0  0  0  0  0  0
   13.0743   27.5976    2.6041 C   0  0  0  0  0  0  0  0  0  0  0  0
   13.1555   28.9727    3.6875 Cl  0  0  0  0  0  0  0  0  0  0  0  0
   14.2586   27.0441    2.1881 C   0  0  0  0  0  0  0  0  0  0  0  0
   14.2433   25.9398    1.3190 C   0  0  0  0  0  0  0  0  0  0  0  0
   15.8009   25.3069    0.7907 Cl  0  0  0  0  0  0  0  0  0  0  0  0
   11.7690   22.6061    1.2609 C   0  0  0  0  0  0  0  0  0  0  0  0
   10.5641   23.1346    1.6400 C   0  0  0  0  0  0  0  0  0  0  0  0
    9.9322   22.7210    2.8058 C   0  0  0  0  0  0  0  0  0  0  0  0
   10.4778   21.7668    3.6334 C   0  0  0  0  0  0  0  0  0  0  0  0
    9.6932   21.2339    5.1057 Cl  0  0  0  0  0  0  0  0  0  0  0  0
   11.6913   21.2268    3.2631 C   0  0  0  0  0  0  0  0  0  0  0  0
   12.3076   21.6498    2.1015 C   0  0  0  0  0  0  0  0  0  0  0  0
   10.7481   21.1425   -1.4645 C   0  0  0  0  0  0  0  0  0  0  0  0
   12.3010   21.0269   -1.4070 C   0  0  0  0  0  0  0  0  0  0  0  0
 31 32  1  0  0  0
 32  1  1  0  0  0
  1  2  1  0  0  0
  2  6  1  0  0  0
  6  7  2  0  0  0
  7  8  1  0  0  0
  8  9  1  0  0  0
  9 10  1  0  0  0
 10 11  1  0  0  0
  8 12  1  0  0  0
 12 13  2  0  0  0
 12 14  1  0  0  0
  2  3  2  0  0  0
  3  4  1  0  0  0
  4 16  1  0  0  0
 16 17  2  0  0  0
 17 18  1  0  0  0
 18 19  2  0  0  0
 19 20  1  0  0  0
 19 21  1  0  0  0
 21 22  2  0  0  0
 22 23  1  0  0  0
  4  5  1  0  0  0
  5 24  1  0  0  0
 24 25  2  0  0  0
 25 26  1  0  0  0
 26 27  2  0  0  0
 27 28  1  0  0  0
 27 29  1  0  0  0
 29 30  2  0  0  0
  5  1  2  0  0  0
 30 24  1  0  0  0
 14  6  1  0  0  0
 22 16  1  0  0  0
 11  8  1  0  0  0
 14 15  1  0  0  0
M  END
> <minimizedAffinity>
20.41988

> <CNNscore>
0.4400537312

> <CNNaffinity>
7.3567247391

> <CNN_VS>
3.2373542786

> <CNNaffinity_variance>
0.7888328433

$$$$
[H]c1c([H])c(-c2c(C([H])([H])C([H])([H])[H])c(C3=NC4(C(=O)N3[H])C([H])([H])C([H])([H])C4([H])[H])nn2-c2c([H])c([H])c(Cl)c([H])c2Cl)c([H])c([H])c1Cl


 32 36  0  0  0  0  0  0  0  0999 V2000
   14.0972   24.7014   -1.7913 C   0  0  0  0  0  0  0  0  0  0  0  0
   12.7856   24.3905   -1.5972 C   0  0  0  0  0  0  0  0  0  0  0  0
   12.1288   25.5348   -1.9694 N   0  0  0  0  0  0  0  0  0  0  0  0
   12.9656   26.4755   -2.3661 N   0  0  0  0  0  0  0  0  0  0  0  0
   14.2105   26.0180   -2.2835 C   0  0  0  0  0  0  0  0  0  0  0  0
   12.0917   23.1886   -1.1665 C   0  0  0  0  0  0  0  0  0  0  0  0
   12.2303   22.7223    0.0749 N   0  0  0  0  0  0  0  0  0  0  0  0
   11.4735   21.5462    0.2910 C   0  0  0  0  0  0  0  0  0  0  0  0
   10.5738   21.5381    1.5061 C   0  0  0  0  0  0  0  0  0  0  0  0
   11.5463   20.6194    2.1833 C   0  0  0  0  0  0  0  0  0  0  0  0
   12.2100   20.3550    0.8528 C   0  0  0  0  0  0  0  0  0  0  0  0
   10.7483   21.2824   -0.9611 C   0  0  0  0  0  0  0  0  0  0  0  0
    9.9333   20.3815   -1.2584 O   0  0  0  0  0  0  0  0  0  0  0  0
   11.1995   22.3501   -1.8417 N   0  0  0  0  0  0  0  0  0  0  0  0
   10.8420   22.3972   -2.8183 H   0  0  0  0  0  0  0  0  0  0  0  0
   12.5581   27.7676   -2.8183 C   0  0  0  0  0  0  0  0  0  0  0  0
   12.2286   28.8130   -1.9597 C   0  0  0  0  0  0  0  0  0  0  0  0
   11.8157   30.0312   -2.4354 C   0  0  0  0  0  0  0  0  0  0  0  0
   11.7159   30.2526   -3.7808 C   0  0  0  0  0  0  0  0  0  0  0  0
   11.1960   31.7839   -4.4562 Cl  0  0  0  0  0  0  0  0  0  0  0  0
   12.0317   29.2450   -4.6566 C   0  0  0  0  0  0  0  0  0  0  0  0
   12.4535   27.9993   -4.1614 C   0  0  0  0  0  0  0  0  0  0  0  0
   12.8011   26.7373   -5.3414 Cl  0  0  0  0  0  0  0  0  0  0  0  0
   15.4404   26.6134   -2.7652 C   0  0  0  0  0  0  0  0  0  0  0  0
   15.5735   27.0062   -4.0701 C   0  0  0  0  0  0  0  0  0  0  0  0
   16.7894   27.4614   -4.5637 C   0  0  0  0  0  0  0  0  0  0  0  0
   17.9140   27.5418   -3.7751 C   0  0  0  0  0  0  0  0  0  0  0  0
   19.4538   28.1146   -4.3820 Cl  0  0  0  0  0  0  0  0  0  0  0  0
   17.7934   27.1489   -2.4589 C   0  0  0  0  0  0  0  0  0  0  0  0
   16.5776   26.6972   -1.9836 C   0  0  0  0  0  0  0  0  0  0  0  0
   15.5097   24.0295    0.1130 C   0  0  0  0  0  0  0  0  0  0  0  0
   15.2199   23.7886   -1.3990 C   0  0  0  0  0  0  0  0  0  0  0  0
 31 32  1  0  0  0
 32  1  1  0  0  0
  1  2  1  0  0  0
  2  6  1  0  0  0
  6  7  2  0  0  0
  7  8  1  0  0  0
  8  9  1  0  0  0
  9 10  1  0  0  0
 10 11  1  0  0  0
  8 12  1  0  0  0
 12 13  2  0  0  0
 12 14  1  0  0  0
  2  3  2  0  0  0
  3  4  1  0  0  0
  4 16  1  0  0  0
 16 17  2  0  0  0
 17 18  1  0  0  0
 18 19  2  0  0  0
 19 20  1  0  0  0
 19 21  1  0  0  0
 21 22  2  0  0  0
 22 23  1  0  0  0
  4  5  1  0  0  0
  5 24  1  0  0  0
 24 25  2  0  0  0
 25 26  1  0  0  0
 26 27  2  0  0  0
 27 28  1  0  0  0
 27 29  1  0  0  0
 29 30  2  0  0  0
  5  1  2  0  0  0
 30 24  1  0  0  0
 14  6  1  0  0  0
 22 16  1  0  0  0
 11  8  1  0  0  0
 14 15  1  0  0  0
M  END
> <minimizedAffinity>
19.66790

> <CNNscore>
0.4362219572

> <CNNaffinity>
7.5057802200

> <CNN_VS>
3.2741861343

> <CNNaffinity_variance>
1.1355764866

$$$$
[H]c1c([H])c(-c2c(C([H])([H])C([H])([H])[H])c(C3=NC4(C(=O)N3[H])C([H])([H])C([H])([H])C4([H])[H])nn2-c2c([H])c([H])c(Cl)c([H])c2Cl)c([H])c([H])c1Cl


 32 36  0  0  0  0  0  0  0  0999 V2000
   14.0644   25.2538   -2.7476 C   0  0  0  0  0  0  0  0  0  0  0  0
   13.0976   25.1919   -1.7906 C   0  0  0  0  0  0  0  0  0  0  0  0
   12.3684   26.3337   -2.0005 N   0  0  0  0  0  0  0  0  0  0  0  0
   12.8426   27.0419   -3.0086 N   0  0  0  0  0  0  0  0  0  0  0  0
   13.8992   26.4208   -3.5219 C   0  0  0  0  0  0  0  0  0  0  0  0
   12.7549   24.2146   -0.7712 C   0  0  0  0  0  0  0  0  0  0  0  0
   11.4827   23.9269   -0.4947 N   0  0  0  0  0  0  0  0  0  0  0  0
   11.3652   22.9533    0.5255 C   0  0  0  0  0  0  0  0  0  0  0  0
   10.4776   21.7667    0.2249 C   0  0  0  0  0  0  0  0  0  0  0  0
    9.4418   22.3473    1.1406 C   0  0  0  0  0  0  0  0  0  0  0  0
   10.4770   23.2963    1.6962 C   0  0  0  0  0  0  0  0  0  0  0  0
   12.7362   22.5658    0.8905 C   0  0  0  0  0  0  0  0  0  0  0  0
   13.1546   21.7242    1.7157 O   0  0  0  0  0  0  0  0  0  0  0  0
   13.5617   23.4141    0.0432 N   0  0  0  0  0  0  0  0  0  0  0  0
   14.5988   23.3514    0.1070 H   0  0  0  0  0  0  0  0  0  0  0  0
   12.2740   28.2733   -3.4563 C   0  0  0  0  0  0  0  0  0  0  0  0
   12.6956   29.5220   -3.0071 C   0  0  0  0  0  0  0  0  0  0  0  0
   12.1041   30.6801   -3.4426 C   0  0  0  0  0  0  0  0  0  0  0  0
   11.0731   30.6374   -4.3395 C   0  0  0  0  0  0  0  0  0  0  0  0
   10.2733   32.0774   -4.9377 Cl  0  0  0  0  0  0  0  0  0  0  0  0
   10.6308   29.4244   -4.8032 C   0  0  0  0  0  0  0  0  0  0  0  0
   11.2417   28.2420   -4.3518 C   0  0  0  0  0  0  0  0  0  0  0  0
   10.5946   26.7179   -4.9553 Cl  0  0  0  0  0  0  0  0  0  0  0  0
   14.6393   26.7172   -4.7317 C   0  0  0  0  0  0  0  0  0  0  0  0
   14.3992   26.0345   -5.8940 C   0  0  0  0  0  0  0  0  0  0  0  0
   15.1899   26.2295   -7.0192 C   0  0  0  0  0  0  0  0  0  0  0  0
   16.2460   27.1114   -7.0260 C   0  0  0  0  0  0  0  0  0  0  0  0
   17.2514   27.3695   -8.4366 Cl  0  0  0  0  0  0  0  0  0  0  0  0
   16.4987   27.8052   -5.8615 C   0  0  0  0  0  0  0  0  0  0  0  0
   15.7040   27.5988   -4.7505 C   0  0  0  0  0  0  0  0  0  0  0  0
   14.9070   23.3450   -4.0590 C   0  0  0  0  0  0  0  0  0  0  0  0
   15.1907   24.2683   -2.8362 C   0  0  0  0  0  0  0  0  0  0  0  0
 31 32  1  0  0  0
 32  1  1  0  0  0
  1  2  1  0  0  0
  2  6  1  0  0  0
  6  7  2  0  0  0
  7  8  1  0  0  0
  8  9  1  0  0  0
  9 10  1  0  0  0
 10 11  1  0  0  0
  8 12  1  0  0  0
 12 13  2  0  0  0
 12 14  1  0  0  0
  2  3  2  0  0  0
  3  4  1  0  0  0
  4 16  1  0  0  0
 16 17  2  0  0  0
 17 18  1  0  0  0
 18 19  2  0  0  0
 19 20  1  0  0  0
 19 21  1  0  0  0
 21 22  2  0  0  0
 22 23  1  0  0  0
  4  5  1  0  0  0
  5 24  1  0  0  0
 24 25  2  0  0  0
 25 26  1  0  0  0
 26 27  2  0  0  0
 27 28  1  0  0  0
 27 29  1  0  0  0
 29 30  2  0  0  0
  5  1  2  0  0  0
 30 24  1  0  0  0
 14  6  1  0  0  0
 22 16  1  0  0  0
 11  8  1  0  0  0
 14 15  1  0  0  0
M  END
> <minimizedAffinity>
20.43591

> <CNNscore>
0.4360073209

> <CNNaffinity>
7.3738036156

> <CNN_VS>
3.2150323391

> <CNNaffinity_variance>
0.9289457202

$$$$
[H]c1nc(OC([H])([H])C([H])([H])Oc2nc([H])c(Br)c([H])n2)c(-c2c([H])c([H])c(C([H])([H])[H])c([H])c2[H])c(N([H])S(=O)(=O)c2c([H])c([H])c(Cl)c([H])c2[H])n1


 36 39  0  0  0  0  0  0  0  0999 V2000
   14.0929   23.3954   -0.3649 C   0  0  0  0  0  0  0  0  0  0  0  0
   15.3193   23.6535    0.1413 C   0  0  0  0  0  0  0  0  0  0  0  0
   15.9484   22.6053    0.9356 N   0  0  0  0  0  0  0  0  0  0  0  0
   15.3704   21.4614    1.1567 C   0  0  0  0  0  0  0  0  0  0  0  0
   14.1566   21.1933    0.6605 N   0  0  0  0  0  0  0  0  0  0  0  0
   13.5422   22.0701   -0.0353 C   0  0  0  0  0  0  0  0  0  0  0  0
   12.3515   27.4255   -3.9622 C   0  0  0  0  0  0  0  0  0  0  0  0
   12.5482   26.3040   -3.0217 C   0  0  0  0  0  0  0  0  0  0  0  0
   12.5152   26.4138   -1.6834 C   0  0  0  0  0  0  0  0  0  0  0  0
   12.8675   25.4595   -0.7754 C   0  0  0  0  0  0  0  0  0  0  0  0
   13.3120   24.1982   -1.2430 C   0  0  0  0  0  0  0  0  0  0  0  0
   13.3215   24.0466   -2.6215 C   0  0  0  0  0  0  0  0  0  0  0  0
   12.9589   25.0231   -3.5543 C   0  0  0  0  0  0  0  0  0  0  0  0
   15.9777   24.8588    0.0237 N   0  0  0  0  0  0  0  0  0  0  0  0
   15.8855   25.6775    0.5472 H   0  0  0  0  0  0  0  0  0  0  0  0
   17.1216   24.9612   -1.3509 S   0  0  0  0  0  0  0  0  0  0  0  0
   17.9887   26.2041   -0.9193 O   0  0  0  0  0  0  0  0  0  0  0  0
   18.0750   23.8240   -1.3273 O   0  0  0  0  0  0  0  0  0  0  0  0
   16.4480   25.3189   -2.8536 C   0  0  0  0  0  0  0  0  0  0  0  0
   16.1869   24.3556   -3.7472 C   0  0  0  0  0  0  0  0  0  0  0  0
   15.7501   24.4566   -5.0046 C   0  0  0  0  0  0  0  0  0  0  0  0
   15.5427   25.7288   -5.4919 C   0  0  0  0  0  0  0  0  0  0  0  0
   14.9796   26.0046   -7.1391 Cl  0  0  0  0  0  0  0  0  0  0  0  0
   15.7939   26.8741   -4.6868 C   0  0  0  0  0  0  0  0  0  0  0  0
   16.2439   26.6394   -3.3634 C   0  0  0  0  0  0  0  0  0  0  0  0
   12.2816   21.9561   -0.5413 O   0  0  0  0  0  0  0  0  0  0  0  0
   11.0763   22.0063   -0.1873 C   0  0  0  0  0  0  0  0  0  0  0  0
    9.9255   21.2018    0.1802 C   0  0  0  0  0  0  0  0  0  0  0  0
    9.0758   21.2076    1.1432 O   0  0  0  0  0  0  0  0  0  0  0  0
    8.2308   21.2091    2.0905 C   0  0  0  0  0  0  0  0  0  0  0  0
    6.9141   20.5970    1.8593 N   0  0  0  0  0  0  0  0  0  0  0  0
    5.9768   20.5181    2.8020 C   0  0  0  0  0  0  0  0  0  0  0  0
    6.2353   21.0347    4.0782 C   0  0  0  0  0  0  0  0  0  0  0  0
    4.8774   20.9619    5.4067 Br  0  0  0  0  0  0  0  0  0  0  0  0
    7.4487   21.6235    4.3184 C   0  0  0  0  0  0  0  0  0  0  0  0
    8.2915   21.6726    3.3708 N   0  0  0  0  0  0  0  0  0  0  0  0
  7  8  1  0  0  0
  8  9  2  0  0  0
  9 10  1  0  0  0
 10 11  2  0  0  0
 11  1  1  0  0  0
  1  2  1  0  0  0
  2 14  1  0  0  0
 14 16  1  0  0  0
 16 17  2  0  0  0
 16 18  2  0  0  0
 16 19  1  0  0  0
 19 20  2  0  0  0
 20 21  1  0  0  0
 21 22  2  0  0  0
 22 23  1  0  0  0
 22 24  1  0  0  0
 24 25  2  0  0  0
  2  3  2  0  0  0
  3  4  1  0  0  0
  4  5  2  0  0  0
  5  6  1  0  0  0
  6 26  1  0  0  0
 26 27  1  0  0  0
 27 28  1  0  0  0
 28 29  1  0  0  0
 29 30  1  0  0  0
 30 31  2  0  0  0
 31 32  1  0  0  0
 32 33  2  0  0  0
 33 34  1  0  0  0
 33 35  1  0  0  0
 35 36  2  0  0  0
 11 12  1  0  0  0
 12 13  2  0  0  0
 13  8  1  0  0  0
  6  1  2  0  0  0
 36 30  1  0  0  0
 25 19  1  0  0  0
 14 15  1  0  0  0
M  END
> <minimizedAffinity>
-0.17674

> <CNNscore>
0.5235136747

> <CNNaffinity>
7.5889129639

> <CNN_VS>
3.9728996754

> <CNNaffinity_variance>
0.4737336040

$$$$
[H]c1nc(OC([H])([H])C([H])([H])Oc2nc([H])c(Br)c([H])n2)c(-c2c([H])c([H])c(C([H])([H])[H])c([H])c2[H])c(N([H])S(=O)(=O)c2c([H])c([H])c(Cl)c([H])c2[H])n1


 36 39  0  0  0  0  0  0  0  0999 V2000
   14.2812   23.1980   -0.2613 C   0  0  0  0  0  0  0  0  0  0  0  0
   15.5169   23.5157    0.1848 C   0  0  0  0  0  0  0  0  0  0  0  0
   16.1786   22.5555    1.0599 N   0  0  0  0  0  0  0  0  0  0  0  0
   15.6201   21.4332    1.4061 C   0  0  0  0  0  0  0  0  0  0  0  0
   14.3973   21.1067    0.9706 N   0  0  0  0  0  0  0  0  0  0  0  0
   13.7549   21.9060    0.2097 C   0  0  0  0  0  0  0  0  0  0  0  0
   12.2213   27.0954   -3.8365 C   0  0  0  0  0  0  0  0  0  0  0  0
   12.5220   25.9606   -2.9404 C   0  0  0  0  0  0  0  0  0  0  0  0
   12.3048   25.9548   -1.6148 C   0  0  0  0  0  0  0  0  0  0  0  0
   12.7273   25.0159   -0.7208 C   0  0  0  0  0  0  0  0  0  0  0  0
   13.4686   23.9044   -1.1919 C   0  0  0  0  0  0  0  0  0  0  0  0
   13.6762   23.8681   -2.5626 C   0  0  0  0  0  0  0  0  0  0  0  0
   13.2423   24.8286   -3.4814 C   0  0  0  0  0  0  0  0  0  0  0  0
   16.1577   24.7099   -0.0664 N   0  0  0  0  0  0  0  0  0  0  0  0
   16.1533   25.5432    0.4420 H   0  0  0  0  0  0  0  0  0  0  0  0
   17.0759   24.7632   -1.6035 S   0  0  0  0  0  0  0  0  0  0  0  0
   18.5400   24.9811   -1.0634 O   0  0  0  0  0  0  0  0  0  0  0  0
   17.1160   23.4224   -2.2387 O   0  0  0  0  0  0  0  0  0  0  0  0
   16.7264   26.0499   -2.6341 C   0  0  0  0  0  0  0  0  0  0  0  0
   16.0353   25.8671   -3.7672 C   0  0  0  0  0  0  0  0  0  0  0  0
   15.7501   26.7358   -4.7398 C   0  0  0  0  0  0  0  0  0  0  0  0
   16.2388   28.0161   -4.5949 C   0  0  0  0  0  0  0  0  0  0  0  0
   15.9466   29.2576   -5.8113 Cl  0  0  0  0  0  0  0  0  0  0  0  0
   17.0173   28.3816   -3.4620 C   0  0  0  0  0  0  0  0  0  0  0  0
   17.2434   27.3754   -2.4897 C   0  0  0  0  0  0  0  0  0  0  0  0
   12.4833   21.7314   -0.2492 O   0  0  0  0  0  0  0  0  0  0  0  0
   11.3115   22.1501   -0.0695 C   0  0  0  0  0  0  0  0  0  0  0  0
   10.1743   22.1079    0.8314 C   0  0  0  0  0  0  0  0  0  0  0  0
    9.6832   22.8928    1.7213 O   0  0  0  0  0  0  0  0  0  0  0  0
    9.1924   23.6713    2.5956 C   0  0  0  0  0  0  0  0  0  0  0  0
    8.0768   24.5480    2.2097 N   0  0  0  0  0  0  0  0  0  0  0  0
    7.4734   25.3710    3.0654 C   0  0  0  0  0  0  0  0  0  0  0  0
    7.9042   25.4200    4.3974 C   0  0  0  0  0  0  0  0  0  0  0  0
    7.0708   26.6303    5.6035 Br  0  0  0  0  0  0  0  0  0  0  0  0
    8.9510   24.6243    4.7820 C   0  0  0  0  0  0  0  0  0  0  0  0
    9.4855   23.8712    3.9116 N   0  0  0  0  0  0  0  0  0  0  0  0
  7  8  1  0  0  0
  8  9  2  0  0  0
  9 10  1  0  0  0
 10 11  2  0  0  0
 11  1  1  0  0  0
  1  2  1  0  0  0
  2 14  1  0  0  0
 14 16  1  0  0  0
 16 17  2  0  0  0
 16 18  2  0  0  0
 16 19  1  0  0  0
 19 20  2  0  0  0
 20 21  1  0  0  0
 21 22  2  0  0  0
 22 23  1  0  0  0
 22 24  1  0  0  0
 24 25  2  0  0  0
  2  3  2  0  0  0
  3  4  1  0  0  0
  4  5  2  0  0  0
  5  6  1  0  0  0
  6 26  1  0  0  0
 26 27  1  0  0  0
 27 28  1  0  0  0
 28 29  1  0  0  0
 29 30  1  0  0  0
 30 31  2  0  0  0
 31 32  1  0  0  0
 32 33  2  0  0  0
 33 34  1  0  0  0
 33 35  1  0  0  0
 35 36  2  0  0  0
 11 12  1  0  0  0
 12 13  2  0  0  0
 13  8  1  0  0  0
  6  1  2  0  0  0
 36 30  1  0  0  0
 25 19  1  0  0  0
 14 15  1  0  0  0
M  END
> <minimizedAffinity>
-1.52403

> <CNNscore>
0.4884420037

> <CNNaffinity>
7.4233489037

> <CNN_VS>
3.6258754730

> <CNNaffinity_variance>
0.1299255490

$$$$
[H]c1nc(OC([H])([H])C([H])([H])Oc2nc([H])c(Br)c([H])n2)c(-c2c([H])c([H])c(C([H])([H])[H])c([H])c2[H])c(N([H])S(=O)(=O)c2c([H])c([H])c(Cl)c([H])c2[H])n1


 36 39  0  0  0  0  0  0  0  0999 V2000
   14.0553   23.3126   -0.1044 C   0  0  0  0  0  0  0  0  0  0  0  0
   15.3556   23.4597    0.2341 C   0  0  0  0  0  0  0  0  0  0  0  0
   15.9438   22.4346    1.0878 N   0  0  0  0  0  0  0  0  0  0  0  0
   15.2623   21.4122    1.5140 C   0  0  0  0  0  0  0  0  0  0  0  0
   13.9744   21.2548    1.1853 N   0  0  0  0  0  0  0  0  0  0  0  0
   13.3918   22.1205    0.4494 C   0  0  0  0  0  0  0  0  0  0  0  0
   12.3415   27.2801   -3.7837 C   0  0  0  0  0  0  0  0  0  0  0  0
   12.5298   26.1798   -2.8167 C   0  0  0  0  0  0  0  0  0  0  0  0
   12.5165   26.3250   -1.4813 C   0  0  0  0  0  0  0  0  0  0  0  0
   12.8630   25.3881   -0.5532 C   0  0  0  0  0  0  0  0  0  0  0  0
   13.2779   24.1070   -0.9933 C   0  0  0  0  0  0  0  0  0  0  0  0
   13.2664   23.9195   -2.3673 C   0  0  0  0  0  0  0  0  0  0  0  0
   12.9098   24.8781   -3.3207 C   0  0  0  0  0  0  0  0  0  0  0  0
   16.1361   24.5437   -0.1062 N   0  0  0  0  0  0  0  0  0  0  0  0
   16.3269   25.3606    0.3929 H   0  0  0  0  0  0  0  0  0  0  0  0
   16.8451   24.4750   -1.7497 S   0  0  0  0  0  0  0  0  0  0  0  0
   18.3825   24.4481   -1.4053 O   0  0  0  0  0  0  0  0  0  0  0  0
   16.5880   23.1553   -2.3784 O   0  0  0  0  0  0  0  0  0  0  0  0
   16.5761   25.8173   -2.7322 C   0  0  0  0  0  0  0  0  0  0  0  0
   15.8986   25.7137   -3.8834 C   0  0  0  0  0  0  0  0  0  0  0  0
   15.6730   26.6335   -4.8241 C   0  0  0  0  0  0  0  0  0  0  0  0
   16.2187   27.8821   -4.6184 C   0  0  0  0  0  0  0  0  0  0  0  0
   16.0082   29.1842   -5.7873 Cl  0  0  0  0  0  0  0  0  0  0  0  0
   16.9921   28.1639   -3.4584 C   0  0  0  0  0  0  0  0  0  0  0  0
   17.1522   27.1097   -2.5246 C   0  0  0  0  0  0  0  0  0  0  0  0
   12.0753   22.1198    0.0959 O   0  0  0  0  0  0  0  0  0  0  0  0
   10.9892   22.6932    0.3648 C   0  0  0  0  0  0  0  0  0  0  0  0
    9.6092   22.4713    0.7559 C   0  0  0  0  0  0  0  0  0  0  0  0
    8.7296   21.5631    0.5303 O   0  0  0  0  0  0  0  0  0  0  0  0
    7.8631   20.6612    0.3137 C   0  0  0  0  0  0  0  0  0  0  0  0
    8.1449   19.6473   -0.7132 N   0  0  0  0  0  0  0  0  0  0  0  0
    7.3145   18.6425   -0.9856 C   0  0  0  0  0  0  0  0  0  0  0  0
    6.1132   18.5267   -0.2744 C   0  0  0  0  0  0  0  0  0  0  0  0
    4.9095   17.1179   -0.6992 Br  0  0  0  0  0  0  0  0  0  0  0  0
    5.8177   19.4653    0.6788 C   0  0  0  0  0  0  0  0  0  0  0  0
    6.6506   20.4016    0.8795 N   0  0  0  0  0  0  0  0  0  0  0  0
  7  8  1  0  0  0
  8  9  2  0  0  0
  9 10  1  0  0  0
 10 11  2  0  0  0
 11  1  1  0  0  0
  1  2  1  0  0  0
  2 14  1  0  0  0
 14 16  1  0  0  0
 16 17  2  0  0  0
 16 18  2  0  0  0
 16 19  1  0  0  0
 19 20  2  0  0  0
 20 21  1  0  0  0
 21 22  2  0  0  0
 22 23  1  0  0  0
 22 24  1  0  0  0
 24 25  2  0  0  0
  2  3  2  0  0  0
  3  4  1  0  0  0
  4  5  2  0  0  0
  5  6  1  0  0  0
  6 26  1  0  0  0
 26 27  1  0  0  0
 27 28  1  0  0  0
 28 29  1  0  0  0
 29 30  1  0  0  0
 30 31  2  0  0  0
 31 32  1  0  0  0
 32 33  2  0  0  0
 33 34  1  0  0  0
 33 35  1  0  0  0
 35 36  2  0  0  0
 11 12  1  0  0  0
 12 13  2  0  0  0
 13  8  1  0  0  0
  6  1  2  0  0  0
 36 30  1  0  0  0
 25 19  1  0  0  0
 14 15  1  0  0  0
M  END
> <minimizedAffinity>
-1.36369

> <CNNscore>
0.3976228237

> <CNNaffinity>
7.3492650986

> <CNN_VS>
2.9222354889

> <CNNaffinity_variance>
0.3649309874

$$$$
[H]c1nc(OC([H])([H])C([H])([H])Oc2nc([H])c(Br)c([H])n2)c(-c2c([H])c([H])c(C([H])([H])[H])c([H])c2[H])c(N([H])S(=O)(=O)c2c([H])c([H])c(Cl)c([H])c2[H])n1


 36 39  0  0  0  0  0  0  0  0999 V2000
   13.8752   23.5830   -2.6564 C   0  0  0  0  0  0  0  0  0  0  0  0
   14.3568   24.0770   -3.8187 C   0  0  0  0  0  0  0  0  0  0  0  0
   15.1479   23.1778   -4.6500 N   0  0  0  0  0  0  0  0  0  0  0  0
   15.3888   21.9471   -4.3056 C   0  0  0  0  0  0  0  0  0  0  0  0
   14.9171   21.4458   -3.1578 N   0  0  0  0  0  0  0  0  0  0  0  0
   14.2256   22.1807   -2.3754 C   0  0  0  0  0  0  0  0  0  0  0  0
   10.3411   24.5988    1.6672 C   0  0  0  0  0  0  0  0  0  0  0  0
   11.2048   24.5848    0.4693 C   0  0  0  0  0  0  0  0  0  0  0  0
   10.8170   24.1692   -0.7478 C   0  0  0  0  0  0  0  0  0  0  0  0
   11.6146   23.9642   -1.8346 C   0  0  0  0  0  0  0  0  0  0  0  0
   13.0050   24.2113   -1.7218 C   0  0  0  0  0  0  0  0  0  0  0  0
   13.4263   24.6756   -0.4848 C   0  0  0  0  0  0  0  0  0  0  0  0
   12.6101   24.8885    0.6304 C   0  0  0  0  0  0  0  0  0  0  0  0
   14.2174   25.3846   -4.2318 N   0  0  0  0  0  0  0  0  0  0  0  0
   13.5965   25.7764   -4.8751 H   0  0  0  0  0  0  0  0  0  0  0  0
   15.4120   26.5250   -3.5383 S   0  0  0  0  0  0  0  0  0  0  0  0
   16.4830   26.5667   -4.6934 O   0  0  0  0  0  0  0  0  0  0  0  0
   14.8622   27.9031   -3.4993 O   0  0  0  0  0  0  0  0  0  0  0  0
   16.2032   26.0141   -2.1409 C   0  0  0  0  0  0  0  0  0  0  0  0
   17.1999   25.1203   -2.1918 C   0  0  0  0  0  0  0  0  0  0  0  0
   17.8696   24.5345   -1.1966 C   0  0  0  0  0  0  0  0  0  0  0  0
   17.4927   24.8645    0.0872 C   0  0  0  0  0  0  0  0  0  0  0  0
   18.2853   24.1543    1.4920 Cl  0  0  0  0  0  0  0  0  0  0  0  0
   16.4323   25.7812    0.3290 C   0  0  0  0  0  0  0  0  0  0  0  0
   15.8045   26.3475   -0.8086 C   0  0  0  0  0  0  0  0  0  0  0  0
   13.7436   21.8215   -1.1519 O   0  0  0  0  0  0  0  0  0  0  0  0
   13.2260   20.8456   -0.5516 C   0  0  0  0  0  0  0  0  0  0  0  0
   12.0302   20.0293   -0.4496 C   0  0  0  0  0  0  0  0  0  0  0  0
   10.7821   20.2569   -0.2503 O   0  0  0  0  0  0  0  0  0  0  0  0
    9.5472   20.4739   -0.0522 C   0  0  0  0  0  0  0  0  0  0  0  0
    8.5678   19.5408   -0.6285 N   0  0  0  0  0  0  0  0  0  0  0  0
    7.2547   19.6647   -0.4447 C   0  0  0  0  0  0  0  0  0  0  0  0
    6.7622   20.7236    0.3288 C   0  0  0  0  0  0  0  0  0  0  0  0
    4.8845   20.9233    0.5495 Br  0  0  0  0  0  0  0  0  0  0  0  0
    7.6508   21.6168    0.8668 C   0  0  0  0  0  0  0  0  0  0  0  0
    8.8879   21.4433    0.6429 N   0  0  0  0  0  0  0  0  0  0  0  0
  7  8  1  0  0  0
  8  9  2  0  0  0
  9 10  1  0  0  0
 10 11  2  0  0  0
 11  1  1  0  0  0
  1  2  1  0  0  0
  2 14  1  0  0  0
 14 16  1  0  0  0
 16 17  2  0  0  0
 16 18  2  0  0  0
 16 19  1  0  0  0
 19 20  2  0  0  0
 20 21  1  0  0  0
 21 22  2  0  0  0
 22 23  1  0  0  0
 22 24  1  0  0  0
 24 25  2  0  0  0
  2  3  2  0  0  0
  3  4  1  0  0  0
  4  5  2  0  0  0
  5  6  1  0  0  0
  6 26  1  0  0  0
 26 27  1  0  0  0
 27 28  1  0  0  0
 28 29  1  0  0  0
 29 30  1  0  0  0
 30 31  2  0  0  0
 31 32  1  0  0  0
 32 33  2  0  0  0
 33 34  1  0  0  0
 33 35  1  0  0  0
 35 36  2  0  0  0
 11 12  1  0  0  0
 12 13  2  0  0  0
 13  8  1  0  0  0
  6  1  2  0  0  0
 36 30  1  0  0  0
 25 19  1  0  0  0
 14 15  1  0  0  0
M  END
> <minimizedAffinity>
0.94900

> <CNNscore>
0.3794769645

> <CNNaffinity>
7.3582448959

> <CNN_VS>
2.7922844887

> <CNNaffinity_variance>
0.2793865502

$$$$
[H]c1nc(OC([H])([H])C([H])([H])Oc2nc([H])c(Br)c([H])n2)c(-c2c([H])c([H])c(C([H])([H])[H])c([H])c2[H])c(N([H])S(=O)(=O)c2c([H])c([H])c(Cl)c([H])c2[H])n1


 36 39  0  0  0  0  0  0  0  0999 V2000
   12.5702   22.9550   -0.5447 C   0  0  0  0  0  0  0  0  0  0  0  0
   13.4353   23.6169   -1.3451 C   0  0  0  0  0  0  0  0  0  0  0  0
   14.3926   24.5083   -0.7015 N   0  0  0  0  0  0  0  0  0  0  0  0
   14.4300   24.6711    0.5883 C   0  0  0  0  0  0  0  0  0  0  0  0
   13.5795   24.0210    1.3916 N   0  0  0  0  0  0  0  0  0  0  0  0
   12.7068   23.2324    0.8949 C   0  0  0  0  0  0  0  0  0  0  0  0
    8.2978   19.2197   -0.4553 C   0  0  0  0  0  0  0  0  0  0  0  0
    9.4614   20.0898   -0.7194 C   0  0  0  0  0  0  0  0  0  0  0  0
   10.7238   19.8097   -0.3554 C   0  0  0  0  0  0  0  0  0  0  0  0
   11.7963   20.6499   -0.4098 C   0  0  0  0  0  0  0  0  0  0  0  0
   11.6136   21.9647   -0.9046 C   0  0  0  0  0  0  0  0  0  0  0  0
   10.3259   22.2680   -1.3208 C   0  0  0  0  0  0  0  0  0  0  0  0
    9.2251   21.4076   -1.2678 C   0  0  0  0  0  0  0  0  0  0  0  0
   13.4237   23.5664   -2.7225 N   0  0  0  0  0  0  0  0  0  0  0  0
   12.6759   23.4548   -3.3399 H   0  0  0  0  0  0  0  0  0  0  0  0
   15.0395   23.6387   -3.4924 S   0  0  0  0  0  0  0  0  0  0  0  0
   15.9725   23.5093   -2.2292 O   0  0  0  0  0  0  0  0  0  0  0  0
   15.3060   22.4043   -4.2721 O   0  0  0  0  0  0  0  0  0  0  0  0
   15.4336   25.0867   -4.2591 C   0  0  0  0  0  0  0  0  0  0  0  0
   15.8896   26.1396   -3.5675 C   0  0  0  0  0  0  0  0  0  0  0  0
   16.1587   27.3793   -3.9833 C   0  0  0  0  0  0  0  0  0  0  0  0
   15.9281   27.6541   -5.3138 C   0  0  0  0  0  0  0  0  0  0  0  0
   16.2287   29.2535   -5.9904 Cl  0  0  0  0  0  0  0  0  0  0  0  0
   15.4187   26.6581   -6.1923 C   0  0  0  0  0  0  0  0  0  0  0  0
   15.1834   25.3754   -5.6372 C   0  0  0  0  0  0  0  0  0  0  0  0
   11.7414   22.5633    1.5867 O   0  0  0  0  0  0  0  0  0  0  0  0
   10.9230   22.7226    2.5277 C   0  0  0  0  0  0  0  0  0  0  0  0
    9.5203   22.9207    2.8436 C   0  0  0  0  0  0  0  0  0  0  0  0
    8.7825   23.9306    3.1355 O   0  0  0  0  0  0  0  0  0  0  0  0
    8.0524   24.9259    3.4314 C   0  0  0  0  0  0  0  0  0  0  0  0
    8.6238   26.2759    3.3176 N   0  0  0  0  0  0  0  0  0  0  0  0
    7.9254   27.3813    3.5704 C   0  0  0  0  0  0  0  0  0  0  0  0
    6.5850   27.2769    3.9636 C   0  0  0  0  0  0  0  0  0  0  0  0
    5.6060   28.8554    4.3688 Br  0  0  0  0  0  0  0  0  0  0  0  0
    6.0300   26.0310    4.0916 C   0  0  0  0  0  0  0  0  0  0  0  0
    6.7568   25.0205    3.8439 N   0  0  0  0  0  0  0  0  0  0  0  0
  7  8  1  0  0  0
  8  9  2  0  0  0
  9 10  1  0  0  0
 10 11  2  0  0  0
 11  1  1  0  0  0
  1  2  1  0  0  0
  2 14  1  0  0  0
 14 16  1  0  0  0
 16 17  2  0  0  0
 16 18  2  0  0  0
 16 19  1  0  0  0
 19 20  2  0  0  0
 20 21  1  0  0  0
 21 22  2  0  0  0
 22 23  1  0  0  0
 22 24  1  0  0  0
 24 25  2  0  0  0
  2  3  2  0  0  0
  3  4  1  0  0  0
  4  5  2  0  0  0
  5  6  1  0  0  0
  6 26  1  0  0  0
 26 27  1  0  0  0
 27 28  1  0  0  0
 28 29  1  0  0  0
 29 30  1  0  0  0
 30 31  2  0  0  0
 31 32  1  0  0  0
 32 33  2  0  0  0
 33 34  1  0  0  0
 33 35  1  0  0  0
 35 36  2  0  0  0
 11 12  1  0  0  0
 12 13  2  0  0  0
 13  8  1  0  0  0
  6  1  2  0  0  0
 36 30  1  0  0  0
 25 19  1  0  0  0
 14 15  1  0  0  0
M  END
> <minimizedAffinity>
-6.51238

> <CNNscore>
0.3114424050

> <CNNaffinity>
7.1237993240

> <CNN_VS>
2.2186532021

> <CNNaffinity_variance>
0.1823674440

$$$$
[H]c1nc(OC([H])([H])C([H])([H])Oc2nc([H])c(Br)c([H])n2)c(-c2c([H])c([H])c(C([H])([H])[H])c([H])c2[H])c(N([H])S(=O)(=O)c2c([H])c([H])c(Cl)c([H])c2[H])n1


 36 39  0  0  0  0  0  0  0  0999 V2000
    7.6436   21.0011    2.2437 C   0  0  0  0  0  0  0  0  0  0  0  0
    6.4738   21.4231    2.7733 C   0  0  0  0  0  0  0  0  0  0  0  0
    5.2888   21.3384    1.9284 N   0  0  0  0  0  0  0  0  0  0  0  0
    5.3348   20.8765    0.7135 C   0  0  0  0  0  0  0  0  0  0  0  0
    6.4866   20.4550    0.1778 N   0  0  0  0  0  0  0  0  0  0  0  0
    7.5662   20.5107    0.8574 C   0  0  0  0  0  0  0  0  0  0  0  0
   12.6642   19.0974    4.0833 C   0  0  0  0  0  0  0  0  0  0  0  0
   11.4026   19.7978    3.7690 C   0  0  0  0  0  0  0  0  0  0  0  0
   10.2330   19.5836    4.3940 C   0  0  0  0  0  0  0  0  0  0  0  0
    9.0101   20.0627    4.0277 C   0  0  0  0  0  0  0  0  0  0  0  0
    8.9117   20.8866    2.8794 C   0  0  0  0  0  0  0  0  0  0  0  0
   10.1111   21.1525    2.2359 C   0  0  0  0  0  0  0  0  0  0  0  0
   11.3664   20.6640    2.6108 C   0  0  0  0  0  0  0  0  0  0  0  0
    6.3394   21.9950    4.0202 N   0  0  0  0  0  0  0  0  0  0  0  0
    5.8584   21.6768    4.8077 H   0  0  0  0  0  0  0  0  0  0  0  0
    7.1001   23.6073    4.1952 S   0  0  0  0  0  0  0  0  0  0  0  0
    5.8294   24.5380    4.1480 O   0  0  0  0  0  0  0  0  0  0  0  0
    7.6363   23.7895    5.5671 O   0  0  0  0  0  0  0  0  0  0  0  0
    8.1192   24.0885    2.9424 C   0  0  0  0  0  0  0  0  0  0  0  0
    7.7952   23.8758    1.6600 C   0  0  0  0  0  0  0  0  0  0  0  0
    8.5086   24.0978    0.5537 C   0  0  0  0  0  0  0  0  0  0  0  0
    9.7784   24.6059    0.7225 C   0  0  0  0  0  0  0  0  0  0  0  0
   10.8307   24.9332   -0.6529 Cl  0  0  0  0  0  0  0  0  0  0  0  0
   10.2978   24.8695    2.0201 C   0  0  0  0  0  0  0  0  0  0  0  0
    9.4413   24.6048    3.1180 C   0  0  0  0  0  0  0  0  0  0  0  0
    8.8126   20.1805    0.4151 O   0  0  0  0  0  0  0  0  0  0  0  0
    9.5594   20.3030   -0.5888 C   0  0  0  0  0  0  0  0  0  0  0  0
   10.4081   21.2295   -1.3155 C   0  0  0  0  0  0  0  0  0  0  0  0
   11.4809   21.8848   -1.0531 O   0  0  0  0  0  0  0  0  0  0  0  0
   12.5421   22.5285   -0.7868 C   0  0  0  0  0  0  0  0  0  0  0  0
   13.6697   22.4453   -1.7268 N   0  0  0  0  0  0  0  0  0  0  0  0
   14.8087   23.1129   -1.5521 C   0  0  0  0  0  0  0  0  0  0  0  0
   14.9612   23.9372   -0.4298 C   0  0  0  0  0  0  0  0  0  0  0  0
   16.6062   24.8512   -0.1603 Br  0  0  0  0  0  0  0  0  0  0  0  0
   13.9321   24.0232    0.4705 C   0  0  0  0  0  0  0  0  0  0  0  0
   12.8788   23.3518    0.2459 N   0  0  0  0  0  0  0  0  0  0  0  0
  7  8  1  0  0  0
  8  9  2  0  0  0
  9 10  1  0  0  0
 10 11  2  0  0  0
 11  1  1  0  0  0
  1  2  1  0  0  0
  2 14  1  0  0  0
 14 16  1  0  0  0
 16 17  2  0  0  0
 16 18  2  0  0  0
 16 19  1  0  0  0
 19 20  2  0  0  0
 20 21  1  0  0  0
 21 22  2  0  0  0
 22 23  1  0  0  0
 22 24  1  0  0  0
 24 25  2  0  0  0
  2  3  2  0  0  0
  3  4  1  0  0  0
  4  5  2  0  0  0
  5  6  1  0  0  0
  6 26  1  0  0  0
 26 27  1  0  0  0
 27 28  1  0  0  0
 28 29  1  0  0  0
 29 30  1  0  0  0
 30 31  2  0  0  0
 31 32  1  0  0  0
 32 33  2  0  0  0
 33 34  1  0  0  0
 33 35  1  0  0  0
 35 36  2  0  0  0
 11 12  1  0  0  0
 12 13  2  0  0  0
 13  8  1  0  0  0
  6  1  2  0  0  0
 36 30  1  0  0  0
 25 19  1  0  0  0
 14 15  1  0  0  0
M  END
> <minimizedAffinity>
-3.02687

> <CNNscore>
0.2730046213

> <CNNaffinity>
6.9010734558

> <CNN_VS>
1.8840249777

> <CNNaffinity_variance>
0.5810734630

$$$$
[H]c1nc(OC([H])([H])C([H])([H])Oc2nc([H])c(Br)c([H])n2)c(-c2c([H])c([H])c(C([H])([H])[H])c([H])c2[H])c(N([H])S(=O)(=O)c2c([H])c([H])c(Cl)c([H])c2[H])n1


 36 39  0  0  0  0  0  0  0  0999 V2000
    7.8912   21.3703    1.5609 C   0  0  0  0  0  0  0  0  0  0  0  0
    6.8532   21.9797    2.1759 C   0  0  0  0  0  0  0  0  0  0  0  0
    5.5541   21.9128    1.5177 N   0  0  0  0  0  0  0  0  0  0  0  0
    5.3807   21.2949    0.3866 C   0  0  0  0  0  0  0  0  0  0  0  0
    6.4001   20.6871   -0.2320 N   0  0  0  0  0  0  0  0  0  0  0  0
    7.5685   20.7152    0.2823 C   0  0  0  0  0  0  0  0  0  0  0  0
   12.7675   19.1659    3.4522 C   0  0  0  0  0  0  0  0  0  0  0  0
   11.6129   19.9747    3.0120 C   0  0  0  0  0  0  0  0  0  0  0  0
   10.5829   20.3283    3.7986 C   0  0  0  0  0  0  0  0  0  0  0  0
    9.4152   20.9114    3.4042 C   0  0  0  0  0  0  0  0  0  0  0  0
    9.2241   21.2049    2.0314 C   0  0  0  0  0  0  0  0  0  0  0  0
   10.2880   20.8821    1.2024 C   0  0  0  0  0  0  0  0  0  0  0  0
   11.4870   20.2859    1.6048 C   0  0  0  0  0  0  0  0  0  0  0  0
    6.9538   22.7197    3.3345 N   0  0  0  0  0  0  0  0  0  0  0  0
    6.5673   22.5598    4.2164 H   0  0  0  0  0  0  0  0  0  0  0  0
    7.8707   24.2500    3.1734 S   0  0  0  0  0  0  0  0  0  0  0  0
    9.1771   23.8957    3.9801 O   0  0  0  0  0  0  0  0  0  0  0  0
    8.3415   24.4365    1.7783 O   0  0  0  0  0  0  0  0  0  0  0  0
    7.1862   25.6070    3.9012 C   0  0  0  0  0  0  0  0  0  0  0  0
    5.9695   25.5588    4.4600 C   0  0  0  0  0  0  0  0  0  0  0  0
    5.2367   26.5407    4.9900 C   0  0  0  0  0  0  0  0  0  0  0  0
    5.7769   27.8080    4.9586 C   0  0  0  0  0  0  0  0  0  0  0  0
    4.9097   29.1962    5.6122 Cl  0  0  0  0  0  0  0  0  0  0  0  0
    7.0529   28.0487    4.3780 C   0  0  0  0  0  0  0  0  0  0  0  0
    7.7415   26.9242    3.8581 C   0  0  0  0  0  0  0  0  0  0  0  0
    8.7028   20.1995   -0.2705 O   0  0  0  0  0  0  0  0  0  0  0  0
    9.4305   20.3055   -1.2903 C   0  0  0  0  0  0  0  0  0  0  0  0
   10.3348   21.1905   -2.0013 C   0  0  0  0  0  0  0  0  0  0  0  0
   11.4138   21.8225   -1.7086 O   0  0  0  0  0  0  0  0  0  0  0  0
   12.4798   22.4444   -1.4117 C   0  0  0  0  0  0  0  0  0  0  0  0
   12.4284   23.4620   -0.3515 N   0  0  0  0  0  0  0  0  0  0  0  0
   13.5007   24.1394    0.0543 C   0  0  0  0  0  0  0  0  0  0  0  0
   14.7433   23.8876   -0.5413 C   0  0  0  0  0  0  0  0  0  0  0  0
   16.2618   24.8905    0.0087 Br  0  0  0  0  0  0  0  0  0  0  0  0
   14.8186   22.9546   -1.5416 C   0  0  0  0  0  0  0  0  0  0  0  0
   13.7548   22.3535   -1.8847 N   0  0  0  0  0  0  0  0  0  0  0  0
  7  8  1  0  0  0
  8  9  2  0  0  0
  9 10  1  0  0  0
 10 11  2  0  0  0
 11  1  1  0  0  0
  1  2  1  0  0  0
  2 14  1  0  0  0
 14 16  1  0  0  0
 16 17  2  0  0  0
 16 18  2  0  0  0
 16 19  1  0  0  0
 19 20  2  0  0  0
 20 21  1  0  0  0
 21 22  2  0  0  0
 22 23  1  0  0  0
 22 24  1  0  0  0
 24 25  2  0  0  0
  2  3  2  0  0  0
  3  4  1  0  0  0
  4  5  2  0  0  0
  5  6  1  0  0  0
  6 26  1  0  0  0
 26 27  1  0  0  0
 27 28  1  0  0  0
 28 29  1  0  0  0
 29 30  1  0  0  0
 30 31  2  0  0  0
 31 32  1  0  0  0
 32 33  2  0  0  0
 33 34  1  0  0  0
 33 35  1  0  0  0
 35 36  2  0  0  0
 11 12  1  0  0  0
 12 13  2  0  0  0
 13  8  1  0  0  0
  6  1  2  0  0  0
 36 30  1  0  0  0
 25 19  1  0  0  0
 14 15  1  0  0  0
M  END
> <minimizedAffinity>
-4.33898

> <CNNscore>
0.2625635266

> <CNNaffinity>
6.7707009315

> <CNN_VS>
1.7777391672

> <CNNaffinity_variance>
0.9314023852

$$$$
[H]c1nc(OC([H])([H])C([H])([H])Oc2nc([H])c(Br)c([H])n2)c(-c2c([H])c([H])c(C([H])([H])[H])c([H])c2[H])c(N([H])S(=O)(=O)c2c([H])c([H])c(Cl)c([H])c2[H])n1


 36 39  0  0  0  0  0  0  0  0999 V2000
   12.6398   21.8693    0.1490 C   0  0  0  0  0  0  0  0  0  0  0  0
   13.9237   22.2913    0.1723 C   0  0  0  0  0  0  0  0  0  0  0  0
   14.8578   21.6390   -0.7374 N   0  0  0  0  0  0  0  0  0  0  0  0
   14.4894   20.6903   -1.5470 C   0  0  0  0  0  0  0  0  0  0  0  0
   13.2210   20.2641   -1.5801 N   0  0  0  0  0  0  0  0  0  0  0  0
   12.3514   20.7833   -0.8026 C   0  0  0  0  0  0  0  0  0  0  0  0
    9.3473   24.6947    3.8085 C   0  0  0  0  0  0  0  0  0  0  0  0
    9.9769   23.8433    2.7790 C   0  0  0  0  0  0  0  0  0  0  0  0
   10.4946   22.6248    3.0066 C   0  0  0  0  0  0  0  0  0  0  0  0
   11.2428   21.8799    2.1438 C   0  0  0  0  0  0  0  0  0  0  0  0
   11.5227   22.3975    0.8551 C   0  0  0  0  0  0  0  0  0  0  0  0
   10.9693   23.6395    0.5819 C   0  0  0  0  0  0  0  0  0  0  0  0
   10.2002   24.4043    1.4643 C   0  0  0  0  0  0  0  0  0  0  0  0
   14.4227   23.2349    1.0444 N   0  0  0  0  0  0  0  0  0  0  0  0
   14.2754   23.3428    2.0033 H   0  0  0  0  0  0  0  0  0  0  0  0
   15.4343   24.5027    0.2842 S   0  0  0  0  0  0  0  0  0  0  0  0
   15.0551   25.7503    1.1689 O   0  0  0  0  0  0  0  0  0  0  0  0
   16.8716   24.2722    0.5736 O   0  0  0  0  0  0  0  0  0  0  0  0
   15.0636   24.8911   -1.3131 C   0  0  0  0  0  0  0  0  0  0  0  0
   16.0240   25.1875   -2.1990 C   0  0  0  0  0  0  0  0  0  0  0  0
   15.9172   25.6056   -3.4622 C   0  0  0  0  0  0  0  0  0  0  0  0
   14.6423   25.7850   -3.9536 C   0  0  0  0  0  0  0  0  0  0  0  0
   14.3594   26.3456   -5.6004 Cl  0  0  0  0  0  0  0  0  0  0  0  0
   13.5006   25.5415   -3.1410 C   0  0  0  0  0  0  0  0  0  0  0  0
   13.7408   25.0886   -1.8195 C   0  0  0  0  0  0  0  0  0  0  0  0
   11.0483   20.4010   -0.6844 O   0  0  0  0  0  0  0  0  0  0  0  0
    9.8968   20.7129   -1.0810 C   0  0  0  0  0  0  0  0  0  0  0  0
    8.5048   20.8152   -0.6827 C   0  0  0  0  0  0  0  0  0  0  0  0
    7.8690   20.7919    0.4329 O   0  0  0  0  0  0  0  0  0  0  0  0
    7.2340   20.7662    1.5316 C   0  0  0  0  0  0  0  0  0  0  0  0
    7.1000   22.0152    2.2959 N   0  0  0  0  0  0  0  0  0  0  0  0
    6.4218   22.0951    3.4393 C   0  0  0  0  0  0  0  0  0  0  0  0
    5.8002   20.9507    3.9554 C   0  0  0  0  0  0  0  0  0  0  0  0
    4.8731   21.0592    5.6115 Br  0  0  0  0  0  0  0  0  0  0  0  0
    5.9200   19.7696    3.2717 C   0  0  0  0  0  0  0  0  0  0  0  0
    6.5893   19.7641    2.1933 N   0  0  0  0  0  0  0  0  0  0  0  0
  7  8  1  0  0  0
  8  9  2  0  0  0
  9 10  1  0  0  0
 10 11  2  0  0  0
 11  1  1  0  0  0
  1  2  1  0  0  0
  2 14  1  0  0  0
 14 16  1  0  0  0
 16 17  2  0  0  0
 16 18  2  0  0  0
 16 19  1  0  0  0
 19 20  2  0  0  0
 20 21  1  0  0  0
 21 22  2  0  0  0
 22 23  1  0  0  0
 22 24  1  0  0  0
 24 25  2  0  0  0
  2  3  2  0  0  0
  3  4  1  0  0  0
  4  5  2  0  0  0
  5  6  1  0  0  0
  6 26  1  0  0  0
 26 27  1  0  0  0
 27 28  1  0  0  0
 28 29  1  0  0  0
 29 30  1  0  0  0
 30 31  2  0  0  0
 31 32  1  0  0  0
 32 33  2  0  0  0
 33 34  1  0  0  0
 33 35  1  0  0  0
 35 36  2  0  0  0
 11 12  1  0  0  0
 12 13  2  0  0  0
 13  8  1  0  0  0
  6  1  2  0  0  0
 36 30  1  0  0  0
 25 19  1  0  0  0
 14 15  1  0  0  0
M  END
> <minimizedAffinity>
-6.67817

> <CNNscore>
0.2510064244

> <CNNaffinity>
7.2379007339

> <CNN_VS>
1.8167595863

> <CNNaffinity_variance>
0.2629147768

$$$$
[H]c1nc(OC([H])([H])C([H])([H])Oc2nc([H])c(Br)c([H])n2)c(-c2c([H])c([H])c(C([H])([H])[H])c([H])c2[H])c(N([H])S(=O)(=O)c2c([H])c([H])c(Cl)c([H])c2[H])n1


 36 39  0  0  0  0  0  0  0  0999 V2000
    8.5070   22.3639    2.2693 C   0  0  0  0  0  0  0  0  0  0  0  0
    7.6314   22.0961    3.2635 C   0  0  0  0  0  0  0  0  0  0  0  0
    6.8337   23.2070    3.7685 N   0  0  0  0  0  0  0  0  0  0  0  0
    6.9440   24.4125    3.2930 C   0  0  0  0  0  0  0  0  0  0  0  0
    7.8068   24.6904    2.3082 N   0  0  0  0  0  0  0  0  0  0  0  0
    8.5454   23.7674    1.8256 C   0  0  0  0  0  0  0  0  0  0  0  0
   12.3207   20.0982   -1.2716 C   0  0  0  0  0  0  0  0  0  0  0  0
   11.2527   20.4355   -0.3089 C   0  0  0  0  0  0  0  0  0  0  0  0
    9.9870   20.7347   -0.6451 C   0  0  0  0  0  0  0  0  0  0  0  0
    9.0168   21.2266    0.1771 C   0  0  0  0  0  0  0  0  0  0  0  0
    9.3237   21.4536    1.5414 C   0  0  0  0  0  0  0  0  0  0  0  0
   10.6144   21.1189    1.9225 C   0  0  0  0  0  0  0  0  0  0  0  0
   11.6103   20.6127    1.0817 C   0  0  0  0  0  0  0  0  0  0  0  0
    7.4971   20.8708    3.8804 N   0  0  0  0  0  0  0  0  0  0  0  0
    8.1050   20.4022    4.4835 H   0  0  0  0  0  0  0  0  0  0  0  0
    6.0131   19.9670    3.4452 S   0  0  0  0  0  0  0  0  0  0  0  0
    6.3877   18.5242    3.9559 O   0  0  0  0  0  0  0  0  0  0  0  0
    4.8763   20.3765    4.3072 O   0  0  0  0  0  0  0  0  0  0  0  0
    5.6742   19.8426    1.7992 C   0  0  0  0  0  0  0  0  0  0  0  0
    6.0855   18.7892    1.0808 C   0  0  0  0  0  0  0  0  0  0  0  0
    5.9952   18.5668   -0.2323 C   0  0  0  0  0  0  0  0  0  0  0  0
    5.4115   19.5564   -0.9933 C   0  0  0  0  0  0  0  0  0  0  0  0
    5.2411   19.3965   -2.7401 Cl  0  0  0  0  0  0  0  0  0  0  0  0
    4.9389   20.7586   -0.3979 C   0  0  0  0  0  0  0  0  0  0  0  0
    5.0792   20.8745    1.0077 C   0  0  0  0  0  0  0  0  0  0  0  0
    9.5087   23.9237    0.8739 O   0  0  0  0  0  0  0  0  0  0  0  0
   10.5049   24.6391    0.5975 C   0  0  0  0  0  0  0  0  0  0  0  0
   11.6681   24.7511   -0.2633 C   0  0  0  0  0  0  0  0  0  0  0  0
   12.9390   24.6676   -0.0984 O   0  0  0  0  0  0  0  0  0  0  0  0
   14.1940   24.5799    0.0706 C   0  0  0  0  0  0  0  0  0  0  0  0
   14.7182   23.4751    0.8872 N   0  0  0  0  0  0  0  0  0  0  0  0
   16.0196   23.2794    1.0907 C   0  0  0  0  0  0  0  0  0  0  0  0
   16.9486   24.1527    0.5105 C   0  0  0  0  0  0  0  0  0  0  0  0
   18.8030   23.8969    0.8423 Br  0  0  0  0  0  0  0  0  0  0  0  0
   16.4884   25.1995   -0.2440 C   0  0  0  0  0  0  0  0  0  0  0  0
   15.2344   25.3313   -0.3882 N   0  0  0  0  0  0  0  0  0  0  0  0
  7  8  1  0  0  0
  8  9  2  0  0  0
  9 10  1  0  0  0
 10 11  2  0  0  0
 11  1  1  0  0  0
  1  2  1  0  0  0
  2 14  1  0  0  0
 14 16  1  0  0  0
 16 17  2  0  0  0
 16 18  2  0  0  0
 16 19  1  0  0  0
 19 20  2  0  0  0
 20 21  1  0  0  0
 21 22  2  0  0  0
 22 23  1  0  0  0
 22 24  1  0  0  0
 24 25  2  0  0  0
  2  3  2  0  0  0
  3  4  1  0  0  0
  4  5  2  0  0  0
  5  6  1  0  0  0
  6 26  1  0  0  0
 26 27  1  0  0  0
 27 28  1  0  0  0
 28 29  1  0  0  0
 29 30  1  0  0  0
 30 31  2  0  0  0
 31 32  1  0  0  0
 32 33  2  0  0  0
 33 34  1  0  0  0
 33 35  1  0  0  0
 35 36  2  0  0  0
 11 12  1  0  0  0
 12 13  2  0  0  0
 13  8  1  0  0  0
  6  1  2  0  0  0
 36 30  1  0  0  0
 25 19  1  0  0  0
 14 15  1  0  0  0
M  END
> <minimizedAffinity>
-3.05247

> <CNNscore>
0.2320947200

> <CNNaffinity>
6.5721511841

> <CNN_VS>
1.5253615379

> <CNNaffinity_variance>
0.3079186678

$$$$
[H]c1nc(N([H])[C@@]([H])(c2c([H])c([H])c(Cl)c([H])c2[H])C([H])([H])N([H])C([H])([H])[H])c2nc([H])c([H])c(C(=O)N([H])[H])c2n1


 29 31  0  0  0  0  0  0  0  0999 V2000
   12.7336   23.5509   -1.7781 C   0  0  0  0  0  0  0  0  0  0  0  0
   11.9568   24.5888   -1.4187 N   0  0  0  0  0  0  0  0  0  0  0  0
   12.1487   25.8275   -1.9496 C   0  0  0  0  0  0  0  0  0  0  0  0
   13.1255   26.0636   -2.8576 N   0  0  0  0  0  0  0  0  0  0  0  0
   13.9229   25.0716   -3.2488 C   0  0  0  0  0  0  0  0  0  0  0  0
   14.9181   25.3108   -4.1741 C   0  0  0  0  0  0  0  0  0  0  0  0
   15.7023   24.2355   -4.5294 C   0  0  0  0  0  0  0  0  0  0  0  0
   15.4905   22.9931   -3.9800 C   0  0  0  0  0  0  0  0  0  0  0  0
   14.5133   22.7990   -3.0836 N   0  0  0  0  0  0  0  0  0  0  0  0
   13.7230   23.8029   -2.7018 C   0  0  0  0  0  0  0  0  0  0  0  0
   15.1536   26.6221   -4.7675 C   0  0  0  0  0  0  0  0  0  0  0  0
   16.0240   27.5223   -4.1314 N   0  0  0  0  0  0  0  0  0  0  0  0
   14.5906   26.9707   -5.8465 O   0  0  0  0  0  0  0  0  0  0  0  0
   15.7318   28.5398   -4.1260 H   0  0  0  0  0  0  0  0  0  0  0  0
   16.9009   27.1965   -3.6947 H   0  0  0  0  0  0  0  0  0  0  0  0
   12.5184   22.2629   -1.2160 N   0  0  0  0  0  0  0  0  0  0  0  0
   12.0416   21.5515   -1.8197 H   0  0  0  0  0  0  0  0  0  0  0  0
   12.9330   21.9326    0.1288 C   0  0  0  0  0  0  0  0  0  0  0  0
   14.2421   22.5204    0.4147 C   0  0  0  0  0  0  0  0  0  0  0  0
   14.5116   23.8707    0.3687 C   0  0  0  0  0  0  0  0  0  0  0  0
   15.7646   24.3734    0.6481 C   0  0  0  0  0  0  0  0  0  0  0  0
   16.7902   23.5209    0.9848 C   0  0  0  0  0  0  0  0  0  0  0  0
   18.3890   24.1585    1.3418 Cl  0  0  0  0  0  0  0  0  0  0  0  0
   16.5457   22.1625    1.0382 C   0  0  0  0  0  0  0  0  0  0  0  0
   15.2880   21.6896    0.7548 C   0  0  0  0  0  0  0  0  0  0  0  0
   11.8436   22.3311    1.0933 C   0  0  0  0  0  0  0  0  0  0  0  0
   10.9529   21.3028    3.0827 C   0  0  0  0  0  0  0  0  0  0  0  0
   12.0790   21.9063    2.4362 N   0  0  0  0  0  0  0  0  0  0  0  0
   12.8639   21.2428    2.4470 H   0  0  0  0  0  0  0  0  0  0  0  0
 27 28  1  0  0  0
 28 26  1  0  0  0
 26 18  1  0  0  0
 18 16  1  0  0  0
 16  1  1  0  0  0
  1  2  2  0  0  0
  2  3  1  0  0  0
  3  4  2  0  0  0
  4  5  1  0  0  0
  5  6  2  0  0  0
  6 11  1  0  0  0
 11 12  1  0  0  0
 11 13  2  0  0  0
  6  7  1  0  0  0
  7  8  2  0  0  0
  8  9  1  0  0  0
  9 10  2  0  0  0
 18 19  1  0  0  0
 19 20  2  0  0  0
 20 21  1  0  0  0
 21 22  2  0  0  0
 22 23  1  0  0  0
 22 24  1  0  0  0
 24 25  2  0  0  0
 10  1  1  0  0  0
 25 19  1  0  0  0
 10  5  1  0  0  0
 28 29  1  0  0  0
 16 17  1  0  0  0
 12 14  1  0  0  0
 12 15  1  0  0  0
M  END
> <minimizedAffinity>
-5.64700

> <CNNscore>
0.6723143458

> <CNNaffinity>
7.4710569382

> <CNN_VS>
5.0228986740

> <CNNaffinity_variance>
0.3059290648

$$$$
[H]c1nc(N([H])[C@@]([H])(c2c([H])c([H])c(Cl)c([H])c2[H])C([H])([H])N([H])C([H])([H])[H])c2nc([H])c([H])c(C(=O)N([H])[H])c2n1


 29 31  0  0  0  0  0  0  0  0999 V2000
   13.7052   23.3302   -2.4972 C   0  0  0  0  0  0  0  0  0  0  0  0
   14.6171   22.4592   -2.9655 N   0  0  0  0  0  0  0  0  0  0  0  0
   15.4945   22.8173   -3.9428 C   0  0  0  0  0  0  0  0  0  0  0  0
   15.4845   24.0603   -4.4805 N   0  0  0  0  0  0  0  0  0  0  0  0
   14.6028   24.9620   -4.0533 C   0  0  0  0  0  0  0  0  0  0  0  0
   14.5920   26.2287   -4.6001 C   0  0  0  0  0  0  0  0  0  0  0  0
   13.6512   27.1060   -4.1071 C   0  0  0  0  0  0  0  0  0  0  0  0
   12.7748   26.7224   -3.1198 C   0  0  0  0  0  0  0  0  0  0  0  0
   12.8156   25.4824   -2.6127 N   0  0  0  0  0  0  0  0  0  0  0  0
   13.7046   24.5906   -3.0512 C   0  0  0  0  0  0  0  0  0  0  0  0
   15.5164   26.6513   -5.6459 C   0  0  0  0  0  0  0  0  0  0  0  0
   15.5650   25.9383   -6.8550 N   0  0  0  0  0  0  0  0  0  0  0  0
   16.2797   27.6493   -5.4904 O   0  0  0  0  0  0  0  0  0  0  0  0
   16.5241   25.7848   -7.2760 H   0  0  0  0  0  0  0  0  0  0  0  0
   14.7027   25.5865   -7.3005 H   0  0  0  0  0  0  0  0  0  0  0  0
   12.7976   22.9410   -1.4745 N   0  0  0  0  0  0  0  0  0  0  0  0
   11.7837   23.1562   -1.6280 H   0  0  0  0  0  0  0  0  0  0  0  0
   13.2379   22.2764   -0.2687 C   0  0  0  0  0  0  0  0  0  0  0  0
   14.5272   22.8152    0.1654 C   0  0  0  0  0  0  0  0  0  0  0  0
   14.8956   24.1370    0.0414 C   0  0  0  0  0  0  0  0  0  0  0  0
   16.1245   24.5938    0.4680 C   0  0  0  0  0  0  0  0  0  0  0  0
   17.0245   23.7227    1.0367 C   0  0  0  0  0  0  0  0  0  0  0  0
   18.5921   24.3018    1.5817 Cl  0  0  0  0  0  0  0  0  0  0  0  0
   16.6790   22.3923    1.1725 C   0  0  0  0  0  0  0  0  0  0  0  0
   15.4482   21.9650    0.7387 C   0  0  0  0  0  0  0  0  0  0  0  0
   12.1445   22.3577    0.7674 C   0  0  0  0  0  0  0  0  0  0  0  0
   11.0593   24.4945    1.0228 C   0  0  0  0  0  0  0  0  0  0  0  0
   11.0592   23.2078    0.3947 N   0  0  0  0  0  0  0  0  0  0  0  0
   11.0661   23.3353   -0.6252 H   0  0  0  0  0  0  0  0  0  0  0  0
 27 28  1  0  0  0
 28 26  1  0  0  0
 26 18  1  0  0  0
 18 16  1  0  0  0
 16  1  1  0  0  0
  1  2  2  0  0  0
  2  3  1  0  0  0
  3  4  2  0  0  0
  4  5  1  0  0  0
  5  6  2  0  0  0
  6 11  1  0  0  0
 11 12  1  0  0  0
 11 13  2  0  0  0
  6  7  1  0  0  0
  7  8  2  0  0  0
  8  9  1  0  0  0
  9 10  2  0  0  0
 18 19  1  0  0  0
 19 20  2  0  0  0
 20 21  1  0  0  0
 21 22  2  0  0  0
 22 23  1  0  0  0
 22 24  1  0  0  0
 24 25  2  0  0  0
 10  1  1  0  0  0
 25 19  1  0  0  0
 10  5  1  0  0  0
 28 29  1  0  0  0
 16 17  1  0  0  0
 12 14  1  0  0  0
 12 15  1  0  0  0
M  END
> <minimizedAffinity>
-5.34781

> <CNNscore>
0.5726526976

> <CNNaffinity>
7.3313636780

> <CNN_VS>
4.1983251572

> <CNNaffinity_variance>
0.4611790180

$$$$
[H]c1nc(N([H])[C@@]([H])(c2c([H])c([H])c(Cl)c([H])c2[H])C([H])([H])N([H])C([H])([H])[H])c2nc([H])c([H])c(C(=O)N([H])[H])c2n1


 29 31  0  0  0  0  0  0  0  0999 V2000
   13.5593   25.1806   -1.4770 C   0  0  0  0  0  0  0  0  0  0  0  0
   14.7203   24.7760   -0.9309 N   0  0  0  0  0  0  0  0  0  0  0  0
   15.9137   25.0804   -1.5106 C   0  0  0  0  0  0  0  0  0  0  0  0
   15.9798   25.8003   -2.6559 N   0  0  0  0  0  0  0  0  0  0  0  0
   14.8609   26.2262   -3.2385 C   0  0  0  0  0  0  0  0  0  0  0  0
   14.9270   26.9600   -4.4050 C   0  0  0  0  0  0  0  0  0  0  0  0
   13.7278   27.3653   -4.9484 C   0  0  0  0  0  0  0  0  0  0  0  0
   12.5340   27.0461   -4.3456 C   0  0  0  0  0  0  0  0  0  0  0  0
   12.5096   26.3312   -3.2123 N   0  0  0  0  0  0  0  0  0  0  0  0
   13.6390   25.9117   -2.6410 C   0  0  0  0  0  0  0  0  0  0  0  0
   16.1852   27.3086   -5.0549 C   0  0  0  0  0  0  0  0  0  0  0  0
   17.1874   27.9592   -4.3167 N   0  0  0  0  0  0  0  0  0  0  0  0
   16.3976   27.0382   -6.2733 O   0  0  0  0  0  0  0  0  0  0  0  0
   17.7206   28.7260   -4.8153 H   0  0  0  0  0  0  0  0  0  0  0  0
   17.3846   27.6947   -3.3384 H   0  0  0  0  0  0  0  0  0  0  0  0
   12.3214   24.8563   -0.8576 N   0  0  0  0  0  0  0  0  0  0  0  0
   11.8368   25.6203   -0.3292 H   0  0  0  0  0  0  0  0  0  0  0  0
   11.7427   23.5345   -0.9433 C   0  0  0  0  0  0  0  0  0  0  0  0
   12.7555   22.5178   -0.6583 C   0  0  0  0  0  0  0  0  0  0  0  0
   13.4430   21.8170   -1.6250 C   0  0  0  0  0  0  0  0  0  0  0  0
   14.3897   20.8681   -1.3022 C   0  0  0  0  0  0  0  0  0  0  0  0
   14.6723   20.5968    0.0164 C   0  0  0  0  0  0  0  0  0  0  0  0
   15.8787   19.3877    0.4315 Cl  0  0  0  0  0  0  0  0  0  0  0  0
   13.9968   21.2859    1.0046 C   0  0  0  0  0  0  0  0  0  0  0  0
   13.0588   22.2256    0.6541 C   0  0  0  0  0  0  0  0  0  0  0  0
   10.5243   23.4705   -0.0560 C   0  0  0  0  0  0  0  0  0  0  0  0
    9.3309   21.4756    0.5803 C   0  0  0  0  0  0  0  0  0  0  0  0
    9.5913   22.4561   -0.4302 N   0  0  0  0  0  0  0  0  0  0  0  0
    8.7040   22.8981   -0.7016 H   0  0  0  0  0  0  0  0  0  0  0  0
 27 28  1  0  0  0
 28 26  1  0  0  0
 26 18  1  0  0  0
 18 16  1  0  0  0
 16  1  1  0  0  0
  1  2  2  0  0  0
  2  3  1  0  0  0
  3  4  2  0  0  0
  4  5  1  0  0  0
  5  6  2  0  0  0
  6 11  1  0  0  0
 11 12  1  0  0  0
 11 13  2  0  0  0
  6  7  1  0  0  0
  7  8  2  0  0  0
  8  9  1  0  0  0
  9 10  2  0  0  0
 18 19  1  0  0  0
 19 20  2  0  0  0
 20 21  1  0  0  0
 21 22  2  0  0  0
 22 23  1  0  0  0
 22 24  1  0  0  0
 24 25  2  0  0  0
 10  1  1  0  0  0
 25 19  1  0  0  0
 10  5  1  0  0  0
 28 29  1  0  0  0
 16 17  1  0  0  0
 12 14  1  0  0  0
 12 15  1  0  0  0
M  END
> <minimizedAffinity>
-4.25301

> <CNNscore>
0.5359930992

> <CNNaffinity>
7.0774145126

> <CNN_VS>
3.7934453487

> <CNNaffinity_variance>
0.2926605046

$$$$
[H]c1nc(N([H])[C@@]([H])(c2c([H])c([H])c(Cl)c([H])c2[H])C([H])([H])N([H])C([H])([H])[H])c2nc([H])c([H])c(C(=O)N([H])[H])c2n1


 29 31  0  0  0  0  0  0  0  0999 V2000
   12.6640   24.1954   -0.0189 C   0  0  0  0  0  0  0  0  0  0  0  0
   11.7769   24.6127   -0.9401 N   0  0  0  0  0  0  0  0  0  0  0  0
   12.1886   25.1983   -2.0979 C   0  0  0  0  0  0  0  0  0  0  0  0
   13.5028   25.3833   -2.3678 N   0  0  0  0  0  0  0  0  0  0  0  0
   14.4233   24.9885   -1.4904 C   0  0  0  0  0  0  0  0  0  0  0  0
   15.7625   25.1760   -1.7645 C   0  0  0  0  0  0  0  0  0  0  0  0
   16.6550   24.7418   -0.8092 C   0  0  0  0  0  0  0  0  0  0  0  0
   16.2164   24.1531    0.3532 C   0  0  0  0  0  0  0  0  0  0  0  0
   14.9067   23.9877    0.5844 N   0  0  0  0  0  0  0  0  0  0  0  0
   13.9970   24.3887   -0.3042 C   0  0  0  0  0  0  0  0  0  0  0  0
   16.2433   25.7965   -2.9937 C   0  0  0  0  0  0  0  0  0  0  0  0
   17.0557   26.9398   -2.9189 N   0  0  0  0  0  0  0  0  0  0  0  0
   15.9455   25.3281   -4.1315 O   0  0  0  0  0  0  0  0  0  0  0  0
   16.8727   27.6983   -3.6344 H   0  0  0  0  0  0  0  0  0  0  0  0
   17.7900   27.0249   -2.1983 H   0  0  0  0  0  0  0  0  0  0  0  0
   12.2174   23.5835    1.1842 N   0  0  0  0  0  0  0  0  0  0  0  0
   12.8304   23.6848    2.0280 H   0  0  0  0  0  0  0  0  0  0  0  0
   10.9743   22.8496    1.2573 C   0  0  0  0  0  0  0  0  0  0  0  0
   10.0766   23.4682    2.2332 C   0  0  0  0  0  0  0  0  0  0  0  0
    9.3617   24.6235    2.0044 C   0  0  0  0  0  0  0  0  0  0  0  0
    8.5278   25.1653    2.9593 C   0  0  0  0  0  0  0  0  0  0  0  0
    8.3901   24.5518    4.1827 C   0  0  0  0  0  0  0  0  0  0  0  0
    7.3277   25.2398    5.4025 Cl  0  0  0  0  0  0  0  0  0  0  0  0
    9.0960   23.3921    4.4369 C   0  0  0  0  0  0  0  0  0  0  0  0
    9.9196   22.8749    3.4673 C   0  0  0  0  0  0  0  0  0  0  0  0
   10.3962   22.7181   -0.1298 C   0  0  0  0  0  0  0  0  0  0  0  0
   11.0606   20.4265    0.2108 C   0  0  0  0  0  0  0  0  0  0  0  0
   10.4343   21.3873   -0.6465 N   0  0  0  0  0  0  0  0  0  0  0  0
    9.4756   21.0772   -0.8494 H   0  0  0  0  0  0  0  0  0  0  0  0
 27 28  1  0  0  0
 28 26  1  0  0  0
 26 18  1  0  0  0
 18 16  1  0  0  0
 16  1  1  0  0  0
  1  2  2  0  0  0
  2  3  1  0  0  0
  3  4  2  0  0  0
  4  5  1  0  0  0
  5  6  2  0  0  0
  6 11  1  0  0  0
 11 12  1  0  0  0
 11 13  2  0  0  0
  6  7  1  0  0  0
  7  8  2  0  0  0
  8  9  1  0  0  0
  9 10  2  0  0  0
 18 19  1  0  0  0
 19 20  2  0  0  0
 20 21  1  0  0  0
 21 22  2  0  0  0
 22 23  1  0  0  0
 22 24  1  0  0  0
 24 25  2  0  0  0
 10  1  1  0  0  0
 25 19  1  0  0  0
 10  5  1  0  0  0
 28 29  1  0  0  0
 16 17  1  0  0  0
 12 14  1  0  0  0
 12 15  1  0  0  0
M  END
> <minimizedAffinity>
-6.48823

> <CNNscore>
0.3928018212

> <CNNaffinity>
6.7792792320

> <CNN_VS>
2.6629133224

> <CNNaffinity_variance>
0.1755221933

$$$$
[H]c1nc(N([H])[C@@]([H])(c2c([H])c([H])c(Cl)c([H])c2[H])C([H])([H])N([H])C([H])([H])[H])c2nc([H])c([H])c(C(=O)N([H])[H])c2n1


 29 31  0  0  0  0  0  0  0  0999 V2000
   13.7838   24.3164   -2.2880 C   0  0  0  0  0  0  0  0  0  0  0  0
   14.6600   23.3127   -2.4742 N   0  0  0  0  0  0  0  0  0  0  0  0
   15.5076   23.3078   -3.5393 C   0  0  0  0  0  0  0  0  0  0  0  0
   15.5029   24.3096   -4.4507 N   0  0  0  0  0  0  0  0  0  0  0  0
   14.6560   25.3280   -4.3143 C   0  0  0  0  0  0  0  0  0  0  0  0
   14.6506   26.3494   -5.2419 C   0  0  0  0  0  0  0  0  0  0  0  0
   13.7467   27.3679   -5.0337 C   0  0  0  0  0  0  0  0  0  0  0  0
   12.8998   27.3518   -3.9508 C   0  0  0  0  0  0  0  0  0  0  0  0
   12.9343   26.3420   -3.0702 N   0  0  0  0  0  0  0  0  0  0  0  0
   13.7883   25.3291   -3.2208 C   0  0  0  0  0  0  0  0  0  0  0  0
   15.5441   26.3819   -6.3941 C   0  0  0  0  0  0  0  0  0  0  0  0
   15.5560   25.3004   -7.2902 N   0  0  0  0  0  0  0  0  0  0  0  0
   16.3127   27.3649   -6.6078 O   0  0  0  0  0  0  0  0  0  0  0  0
   16.5020   25.0026   -7.6604 H   0  0  0  0  0  0  0  0  0  0  0  0
   14.6805   24.8279   -7.5660 H   0  0  0  0  0  0  0  0  0  0  0  0
   12.9070   24.3074   -1.1689 N   0  0  0  0  0  0  0  0  0  0  0  0
   12.2755   25.1350   -1.0500 H   0  0  0  0  0  0  0  0  0  0  0  0
   12.8756   23.2120   -0.2264 C   0  0  0  0  0  0  0  0  0  0  0  0
   11.5570   22.5779   -0.2294 C   0  0  0  0  0  0  0  0  0  0  0  0
   11.2421   21.4492   -0.9541 C   0  0  0  0  0  0  0  0  0  0  0  0
    9.9821   20.8904   -0.9212 C   0  0  0  0  0  0  0  0  0  0  0  0
    8.9955   21.4592   -0.1497 C   0  0  0  0  0  0  0  0  0  0  0  0
    7.3880   20.7494   -0.1055 Cl  0  0  0  0  0  0  0  0  0  0  0  0
    9.2859   22.5913    0.5864 C   0  0  0  0  0  0  0  0  0  0  0  0
   10.5495   23.1265    0.5346 C   0  0  0  0  0  0  0  0  0  0  0  0
   14.0214   22.2756   -0.5193 C   0  0  0  0  0  0  0  0  0  0  0  0
   15.1936   20.6159    0.7769 C   0  0  0  0  0  0  0  0  0  0  0  0
   14.8407   21.9942    0.6161 N   0  0  0  0  0  0  0  0  0  0  0  0
   15.7011   22.5534    0.5575 H   0  0  0  0  0  0  0  0  0  0  0  0
 27 28  1  0  0  0
 28 26  1  0  0  0
 26 18  1  0  0  0
 18 16  1  0  0  0
 16  1  1  0  0  0
  1  2  2  0  0  0
  2  3  1  0  0  0
  3  4  2  0  0  0
  4  5  1  0  0  0
  5  6  2  0  0  0
  6 11  1  0  0  0
 11 12  1  0  0  0
 11 13  2  0  0  0
  6  7  1  0  0  0
  7  8  2  0  0  0
  8  9  1  0  0  0
  9 10  2  0  0  0
 18 19  1  0  0  0
 19 20  2  0  0  0
 20 21  1  0  0  0
 21 22  2  0  0  0
 22 23  1  0  0  0
 22 24  1  0  0  0
 24 25  2  0  0  0
 10  1  1  0  0  0
 25 19  1  0  0  0
 10  5  1  0  0  0
 28 29  1  0  0  0
 16 17  1  0  0  0
 12 14  1  0  0  0
 12 15  1  0  0  0
M  END
> <minimizedAffinity>
-6.58551

> <CNNscore>
0.3904722333

> <CNNaffinity>
7.0404496193

> <CNN_VS>
2.7490999699

> <CNNaffinity_variance>
0.4110650122

$$$$
[H]c1nc(N([H])[C@@]([H])(c2c([H])c([H])c(Cl)c([H])c2[H])C([H])([H])N([H])C([H])([H])[H])c2nc([H])c([H])c(C(=O)N([H])[H])c2n1


 29 31  0  0  0  0  0  0  0  0999 V2000
   13.6196   23.3777   -2.6055 C   0  0  0  0  0  0  0  0  0  0  0  0
   14.3703   22.5176   -3.3171 N   0  0  0  0  0  0  0  0  0  0  0  0
   15.4992   21.9681   -2.7912 C   0  0  0  0  0  0  0  0  0  0  0  0
   15.9100   22.2640   -1.5350 N   0  0  0  0  0  0  0  0  0  0  0  0
   15.2040   23.1093   -0.7868 C   0  0  0  0  0  0  0  0  0  0  0  0
   15.6213   23.4112    0.4932 C   0  0  0  0  0  0  0  0  0  0  0  0
   14.8392   24.2934    1.2057 C   0  0  0  0  0  0  0  0  0  0  0  0
   13.7030   24.8364    0.6541 C   0  0  0  0  0  0  0  0  0  0  0  0
   13.3290   24.5191   -0.5932 N   0  0  0  0  0  0  0  0  0  0  0  0
   14.0471   23.6708   -1.3300 C   0  0  0  0  0  0  0  0  0  0  0  0
   16.8225   22.8417    1.0930 C   0  0  0  0  0  0  0  0  0  0  0  0
   16.7193   21.6829    1.8800 N   0  0  0  0  0  0  0  0  0  0  0  0
   17.9610   23.3680    0.9212 O   0  0  0  0  0  0  0  0  0  0  0  0
   17.3180   21.6482    2.7524 H   0  0  0  0  0  0  0  0  0  0  0  0
   16.0882   20.9114    1.6113 H   0  0  0  0  0  0  0  0  0  0  0  0
   12.4420   23.9410   -3.1688 N   0  0  0  0  0  0  0  0  0  0  0  0
   12.2648   23.7600   -4.1855 H   0  0  0  0  0  0  0  0  0  0  0  0
   11.5187   24.7317   -2.3868 C   0  0  0  0  0  0  0  0  0  0  0  0
   10.9388   23.9218   -1.3150 C   0  0  0  0  0  0  0  0  0  0  0  0
   10.9451   22.5442   -1.2952 C   0  0  0  0  0  0  0  0  0  0  0  0
   10.3844   21.8280   -0.2591 C   0  0  0  0  0  0  0  0  0  0  0  0
    9.7962   22.4868    0.7955 C   0  0  0  0  0  0  0  0  0  0  0  0
    9.0803   21.5767    2.1181 Cl  0  0  0  0  0  0  0  0  0  0  0  0
    9.7769   23.8678    0.7994 C   0  0  0  0  0  0  0  0  0  0  0  0
   10.3429   24.5555   -0.2459 C   0  0  0  0  0  0  0  0  0  0  0  0
   12.2160   25.9844   -1.9176 C   0  0  0  0  0  0  0  0  0  0  0  0
   13.8563   26.3272   -3.6499 C   0  0  0  0  0  0  0  0  0  0  0  0
   12.6881   26.8138   -2.9800 N   0  0  0  0  0  0  0  0  0  0  0  0
   11.9363   26.9380   -3.6698 H   0  0  0  0  0  0  0  0  0  0  0  0
 27 28  1  0  0  0
 28 26  1  0  0  0
 26 18  1  0  0  0
 18 16  1  0  0  0
 16  1  1  0  0  0
  1  2  2  0  0  0
  2  3  1  0  0  0
  3  4  2  0  0  0
  4  5  1  0  0  0
  5  6  2  0  0  0
  6 11  1  0  0  0
 11 12  1  0  0  0
 11 13  2  0  0  0
  6  7  1  0  0  0
  7  8  2  0  0  0
  8  9  1  0  0  0
  9 10  2  0  0  0
 18 19  1  0  0  0
 19 20  2  0  0  0
 20 21  1  0  0  0
 21 22  2  0  0  0
 22 23  1  0  0  0
 22 24  1  0  0  0
 24 25  2  0  0  0
 10  1  1  0  0  0
 25 19  1  0  0  0
 10  5  1  0  0  0
 28 29  1  0  0  0
 16 17  1  0  0  0
 12 14  1  0  0  0
 12 15  1  0  0  0
M  END
> <minimizedAffinity>
5.31781

> <CNNscore>
0.3762148619

> <CNNaffinity>
6.8534135818

> <CNN_VS>
2.5783560276

> <CNNaffinity_variance>
0.6373852491

$$$$
[H]c1nc(N([H])[C@@]([H])(c2c([H])c([H])c(Cl)c([H])c2[H])C([H])([H])N([H])C([H])([H])[H])c2nc([H])c([H])c(C(=O)N([H])[H])c2n1


 29 31  0  0  0  0  0  0  0  0999 V2000
   13.9898   22.8647   -0.0485 C   0  0  0  0  0  0  0  0  0  0  0  0
   14.1536   23.7841    0.9198 N   0  0  0  0  0  0  0  0  0  0  0  0
   14.7765   24.9678    0.6672 C   0  0  0  0  0  0  0  0  0  0  0  0
   15.2542   25.2662   -0.5645 N   0  0  0  0  0  0  0  0  0  0  0  0
   15.1185   24.3920   -1.5595 C   0  0  0  0  0  0  0  0  0  0  0  0
   15.6044   24.6950   -2.8149 C   0  0  0  0  0  0  0  0  0  0  0  0
   15.4267   23.7411   -3.7927 C   0  0  0  0  0  0  0  0  0  0  0  0
   14.7948   22.5522   -3.5147 C   0  0  0  0  0  0  0  0  0  0  0  0
   14.3357   22.2932   -2.2824 N   0  0  0  0  0  0  0  0  0  0  0  0
   14.4794   23.1791   -1.2963 C   0  0  0  0  0  0  0  0  0  0  0  0
   16.2747   25.9524   -3.1258 C   0  0  0  0  0  0  0  0  0  0  0  0
   17.3719   26.3611   -2.3500 N   0  0  0  0  0  0  0  0  0  0  0  0
   15.8907   26.6880   -4.0819 O   0  0  0  0  0  0  0  0  0  0  0  0
   17.4290   27.3922   -2.1167 H   0  0  0  0  0  0  0  0  0  0  0  0
   18.0797   25.6815   -2.0292 H   0  0  0  0  0  0  0  0  0  0  0  0
   13.3349   21.6342    0.2314 N   0  0  0  0  0  0  0  0  0  0  0  0
   13.7703   20.7626   -0.1541 H   0  0  0  0  0  0  0  0  0  0  0  0
   12.1200   21.5709    1.0120 C   0  0  0  0  0  0  0  0  0  0  0  0
   10.9867   21.2129    0.1585 C   0  0  0  0  0  0  0  0  0  0  0  0
   10.9817   21.3350   -1.2138 C   0  0  0  0  0  0  0  0  0  0  0  0
    9.8860   20.9822   -1.9726 C   0  0  0  0  0  0  0  0  0  0  0  0
    8.7543   20.4921   -1.3633 C   0  0  0  0  0  0  0  0  0  0  0  0
    7.3555   20.0413   -2.3277 Cl  0  0  0  0  0  0  0  0  0  0  0  0
    8.7341   20.3599    0.0114 C   0  0  0  0  0  0  0  0  0  0  0  0
    9.8399   20.7192    0.7422 C   0  0  0  0  0  0  0  0  0  0  0  0
   12.3352   20.6487    2.1863 C   0  0  0  0  0  0  0  0  0  0  0  0
   11.3873   20.4575    4.3940 C   0  0  0  0  0  0  0  0  0  0  0  0
   12.1036   21.2653    3.4535 N   0  0  0  0  0  0  0  0  0  0  0  0
   13.0052   21.5361    3.8661 H   0  0  0  0  0  0  0  0  0  0  0  0
 27 28  1  0  0  0
 28 26  1  0  0  0
 26 18  1  0  0  0
 18 16  1  0  0  0
 16  1  1  0  0  0
  1  2  2  0  0  0
  2  3  1  0  0  0
  3  4  2  0  0  0
  4  5  1  0  0  0
  5  6  2  0  0  0
  6 11  1  0  0  0
 11 12  1  0  0  0
 11 13  2  0  0  0
  6  7  1  0  0  0
  7  8  2  0  0  0
  8  9  1  0  0  0
  9 10  2  0  0  0
 18 19  1  0  0  0
 19 20  2  0  0  0
 20 21  1  0  0  0
 21 22  2  0  0  0
 22 23  1  0  0  0
 22 24  1  0  0  0
 24 25  2  0  0  0
 10  1  1  0  0  0
 25 19  1  0  0  0
 10  5  1  0  0  0
 28 29  1  0  0  0
 16 17  1  0  0  0
 12 14  1  0  0  0
 12 15  1  0  0  0
M  END
> <minimizedAffinity>
-6.74849

> <CNNscore>
0.3606443405

> <CNNaffinity>
6.8697257042

> <CNN_VS>
2.4775276184

> <CNNaffinity_variance>
0.3251625896

$$$$
[H]c1nc(N([H])[C@@]([H])(c2c([H])c([H])c(Cl)c([H])c2[H])C([H])([H])N([H])C([H])([H])[H])c2nc([H])c([H])c(C(=O)N([H])[H])c2n1


 29 31  0  0  0  0  0  0  0  0999 V2000
   14.0385   22.6423   -0.4893 C   0  0  0  0  0  0  0  0  0  0  0  0
   14.1001   23.4774    0.5635 N   0  0  0  0  0  0  0  0  0  0  0  0
   14.6691   24.7090    0.4517 C   0  0  0  0  0  0  0  0  0  0  0  0
   15.1938   25.1412   -0.7197 N   0  0  0  0  0  0  0  0  0  0  0  0
   15.1591   24.3548   -1.7936 C   0  0  0  0  0  0  0  0  0  0  0  0
   15.6929   24.7943   -2.9876 C   0  0  0  0  0  0  0  0  0  0  0  0
   15.6198   23.9250   -4.0538 C   0  0  0  0  0  0  0  0  0  0  0  0
   15.0407   22.6855   -3.9177 C   0  0  0  0  0  0  0  0  0  0  0  0
   14.5324   22.2934   -2.7412 N   0  0  0  0  0  0  0  0  0  0  0  0
   14.5749   23.0926   -1.6747 C   0  0  0  0  0  0  0  0  0  0  0  0
   16.3082   26.1067   -3.1484 C   0  0  0  0  0  0  0  0  0  0  0  0
   17.4198   26.4500   -2.3615 N   0  0  0  0  0  0  0  0  0  0  0  0
   15.8635   26.9481   -3.9832 O   0  0  0  0  0  0  0  0  0  0  0  0
   17.4512   27.4421   -1.9933 H   0  0  0  0  0  0  0  0  0  0  0  0
   18.1618   25.7613   -2.1590 H   0  0  0  0  0  0  0  0  0  0  0  0
   13.4386   21.3602   -0.3563 N   0  0  0  0  0  0  0  0  0  0  0  0
   14.0812   20.5333   -0.3208 H   0  0  0  0  0  0  0  0  0  0  0  0
   12.0060   21.1874   -0.2725 C   0  0  0  0  0  0  0  0  0  0  0  0
   11.5680   21.2519    1.1222 C   0  0  0  0  0  0  0  0  0  0  0  0
   11.8580   20.2951    2.0701 C   0  0  0  0  0  0  0  0  0  0  0  0
   11.4208   20.4044    3.3731 C   0  0  0  0  0  0  0  0  0  0  0  0
   10.6720   21.4915    3.7601 C   0  0  0  0  0  0  0  0  0  0  0  0
   10.1128   21.6341    5.4205 Cl  0  0  0  0  0  0  0  0  0  0  0  0
   10.3677   22.4648    2.8285 C   0  0  0  0  0  0  0  0  0  0  0  0
   10.8163   22.3299    1.5377 C   0  0  0  0  0  0  0  0  0  0  0  0
   11.3343   22.1821   -1.1863 C   0  0  0  0  0  0  0  0  0  0  0  0
    9.5074   20.6152   -1.3133 C   0  0  0  0  0  0  0  0  0  0  0  0
   10.2818   21.6229   -1.9730 N   0  0  0  0  0  0  0  0  0  0  0  0
    9.6543   22.3765   -2.2807 H   0  0  0  0  0  0  0  0  0  0  0  0
 27 28  1  0  0  0
 28 26  1  0  0  0
 26 18  1  0  0  0
 18 16  1  0  0  0
 16  1  1  0  0  0
  1  2  2  0  0  0
  2  3  1  0  0  0
  3  4  2  0  0  0
  4  5  1  0  0  0
  5  6  2  0  0  0
  6 11  1  0  0  0
 11 12  1  0  0  0
 11 13  2  0  0  0
  6  7  1  0  0  0
  7  8  2  0  0  0
  8  9  1  0  0  0
  9 10  2  0  0  0
 18 19  1  0  0  0
 19 20  2  0  0  0
 20 21  1  0  0  0
 21 22  2  0  0  0
 22 23  1  0  0  0
 22 24  1  0  0  0
 24 25  2  0  0  0
 10  1  1  0  0  0
 25 19  1  0  0  0
 10  5  1  0  0  0
 28 29  1  0  0  0
 16 17  1  0  0  0
 12 14  1  0  0  0
 12 15  1  0  0  0
M  END
> <minimizedAffinity>
-7.47807

> <CNNscore>
0.3602702022

> <CNNaffinity>
7.1717500687

> <CNN_VS>
2.5837678909

> <CNNaffinity_variance>
0.4426546991

$$$$
[H]c1nc(N([H])[C@@]([H])(c2c([H])c([H])c(Cl)c([H])c2[H])C([H])([H])N([H])C([H])([H])[H])c2nc([H])c([H])c(C(=O)N([H])[H])c2n1


 29 31  0  0  0  0  0  0  0  0999 V2000
   12.8736   23.4365   -1.1905 C   0  0  0  0  0  0  0  0  0  0  0  0
   12.1064   24.4664   -0.7899 N   0  0  0  0  0  0  0  0  0  0  0  0
   12.1909   25.6830   -1.3947 C   0  0  0  0  0  0  0  0  0  0  0  0
   13.0474   25.9044   -2.4201 N   0  0  0  0  0  0  0  0  0  0  0  0
   13.8299   24.9194   -2.8568 C   0  0  0  0  0  0  0  0  0  0  0  0
   14.7025   25.1436   -3.9017 C   0  0  0  0  0  0  0  0  0  0  0  0
   15.4790   24.0768   -4.2975 C   0  0  0  0  0  0  0  0  0  0  0  0
   15.3770   22.8569   -3.6718 C   0  0  0  0  0  0  0  0  0  0  0  0
   14.5172   22.6769   -2.6597 N   0  0  0  0  0  0  0  0  0  0  0  0
   13.7403   23.6734   -2.2337 C   0  0  0  0  0  0  0  0  0  0  0  0
   14.8206   26.4310   -4.5769 C   0  0  0  0  0  0  0  0  0  0  0  0
   15.8901   27.2835   -4.2574 N   0  0  0  0  0  0  0  0  0  0  0  0
   13.9793   26.8009   -5.4476 O   0  0  0  0  0  0  0  0  0  0  0  0
   15.6695   28.3170   -4.1948 H   0  0  0  0  0  0  0  0  0  0  0  0
   16.8384   26.9095   -4.0939 H   0  0  0  0  0  0  0  0  0  0  0  0
   12.7713   22.1715   -0.5497 N   0  0  0  0  0  0  0  0  0  0  0  0
   12.2793   21.4089   -1.0735 H   0  0  0  0  0  0  0  0  0  0  0  0
   13.3167   21.9311    0.7671 C   0  0  0  0  0  0  0  0  0  0  0  0
   12.2412   21.6460    1.7173 C   0  0  0  0  0  0  0  0  0  0  0  0
   11.1584   22.4704    1.9317 C   0  0  0  0  0  0  0  0  0  0  0  0
   10.1704   22.1541    2.8399 C   0  0  0  0  0  0  0  0  0  0  0  0
   10.2474   20.9870    3.5639 C   0  0  0  0  0  0  0  0  0  0  0  0
    8.9896   20.5806    4.7226 Cl  0  0  0  0  0  0  0  0  0  0  0  0
   11.3230   20.1432    3.3672 C   0  0  0  0  0  0  0  0  0  0  0  0
   12.2925   20.4836    2.4561 C   0  0  0  0  0  0  0  0  0  0  0  0
   14.3725   20.8575    0.6758 C   0  0  0  0  0  0  0  0  0  0  0  0
   16.0359   22.5753    0.9773 C   0  0  0  0  0  0  0  0  0  0  0  0
   15.6255   21.2309    1.2502 N   0  0  0  0  0  0  0  0  0  0  0  0
   15.5829   21.0961    2.2683 H   0  0  0  0  0  0  0  0  0  0  0  0
 27 28  1  0  0  0
 28 26  1  0  0  0
 26 18  1  0  0  0
 18 16  1  0  0  0
 16  1  1  0  0  0
  1  2  2  0  0  0
  2  3  1  0  0  0
  3  4  2  0  0  0
  4  5  1  0  0  0
  5  6  2  0  0  0
  6 11  1  0  0  0
 11 12  1  0  0  0
 11 13  2  0  0  0
  6  7  1  0  0  0
  7  8  2  0  0  0
  8  9  1  0  0  0
  9 10  2  0  0  0
 18 19  1  0  0  0
 19 20  2  0  0  0
 20 21  1  0  0  0
 21 22  2  0  0  0
 22 23  1  0  0  0
 22 24  1  0  0  0
 24 25  2  0  0  0
 10  1  1  0  0  0
 25 19  1  0  0  0
 10  5  1  0  0  0
 28 29  1  0  0  0
 16 17  1  0  0  0
 12 14  1  0  0  0
 12 15  1  0  0  0
M  END
> <minimizedAffinity>
-7.39545

> <CNNscore>
0.3247154355

> <CNNaffinity>
6.9211235046

> <CNN_VS>
2.2473955154

> <CNNaffinity_variance>
0.0753115267

$$$$
[H]Oc1c(OC([H])([H])[H])c(OC([H])([H])[H])c2c3c1-c1c([H])c([H])c([H])c([H])c1C([H])([H])[C@@]3([H])N([H])C([H])([H])C2([H])[H]


 24 27  0  0  0  0  0  0  0  0999 V2000
   14.9589   26.4979   -3.5852 C   0  0  0  0  0  0  0  0  0  0  0  0
   15.8196   25.9501   -2.6439 C   0  0  0  0  0  0  0  0  0  0  0  0
   17.1335   26.3124   -2.7734 O   0  0  0  0  0  0  0  0  0  0  0  0
   15.2930   25.1130   -1.6865 C   0  0  0  0  0  0  0  0  0  0  0  0
   13.9502   24.8109   -1.6439 C   0  0  0  0  0  0  0  0  0  0  0  0
   13.1213   25.3810   -2.6047 C   0  0  0  0  0  0  0  0  0  0  0  0
   13.6027   26.2188   -3.5737 C   0  0  0  0  0  0  0  0  0  0  0  0
   11.6868   25.0494   -2.5521 C   0  0  0  0  0  0  0  0  0  0  0  0
   11.1570   24.8113   -1.1911 C   0  0  0  0  0  0  0  0  0  0  0  0
   12.0341   24.2612   -0.2465 N   0  0  0  0  0  0  0  0  0  0  0  0
   13.3516   23.9004   -0.6965 C   0  0  0  0  0  0  0  0  0  0  0  0
   14.1672   23.5746    0.4879 C   0  0  0  0  0  0  0  0  0  0  0  0
   15.6119   23.7832    0.3567 C   0  0  0  0  0  0  0  0  0  0  0  0
   16.4624   23.2059    1.3173 C   0  0  0  0  0  0  0  0  0  0  0  0
   17.8102   23.3970    1.2988 C   0  0  0  0  0  0  0  0  0  0  0  0
   18.3157   24.1791    0.3019 C   0  0  0  0  0  0  0  0  0  0  0  0
   17.5258   24.7827   -0.6864 C   0  0  0  0  0  0  0  0  0  0  0  0
   16.1747   24.5751   -0.6470 C   0  0  0  0  0  0  0  0  0  0  0  0
   17.5035   26.9212   -3.4716 H   0  0  0  0  0  0  0  0  0  0  0  0
   11.6389   23.4077    0.2381 H   0  0  0  0  0  0  0  0  0  0  0  0
   15.7235   26.9855   -5.8823 C   0  0  0  0  0  0  0  0  0  0  0  0
   15.4621   27.3403   -4.5560 O   0  0  0  0  0  0  0  0  0  0  0  0
   12.7392   26.7651   -4.5123 O   0  0  0  0  0  0  0  0  0  0  0  0
   12.1283   28.0110   -4.2688 C   0  0  0  0  0  0  0  0  0  0  0  0
 21 22  1  0  0  0
 22  1  1  0  0  0
  1  2  2  0  0  0
  2  3  1  0  0  0
  2  4  1  0  0  0
  4  5  2  0  0  0
  5  6  1  0  0  0
  6  7  2  0  0  0
  7 23  1  0  0  0
 23 24  1  0  0  0
  6  8  1  0  0  0
  8  9  1  0  0  0
  9 10  1  0  0  0
 10 11  1  0  0  0
 11 12  1  0  0  0
 12 13  1  0  0  0
 13 14  2  0  0  0
 14 15  1  0  0  0
 15 16  2  0  0  0
 16 17  1  0  0  0
 17 18  2  0  0  0
  7  1  1  0  0  0
 18 13  1  0  0  0
 18  4  1  0  0  0
 11  5  1  0  0  0
  3 19  1  0  0  0
 10 20  1  0  0  0
M  END
> <minimizedAffinity>
-0.48472

> <CNNscore>
0.7412353754

> <CNNaffinity>
6.5422105789

> <CNN_VS>
4.8493180275

> <CNNaffinity_variance>
0.4472865164

$$$$
[H]Oc1c(OC([H])([H])[H])c(OC([H])([H])[H])c2c3c1-c1c([H])c([H])c([H])c([H])c1C([H])([H])[C@@]3([H])N([H])C([H])([H])C2([H])[H]


 24 27  0  0  0  0  0  0  0  0999 V2000
   15.5692   23.5698   -4.0799 C   0  0  0  0  0  0  0  0  0  0  0  0
   15.6247   24.4144   -2.9796 C   0  0  0  0  0  0  0  0  0  0  0  0
   16.1761   25.6451   -3.2155 O   0  0  0  0  0  0  0  0  0  0  0  0
   15.1334   23.9555   -1.7785 C   0  0  0  0  0  0  0  0  0  0  0  0
   14.5969   22.6941   -1.6467 C   0  0  0  0  0  0  0  0  0  0  0  0
   14.5589   21.8791   -2.7735 C   0  0  0  0  0  0  0  0  0  0  0  0
   15.0356   22.2955   -3.9867 C   0  0  0  0  0  0  0  0  0  0  0  0
   13.9855   20.5306   -2.6214 C   0  0  0  0  0  0  0  0  0  0  0  0
   12.8999   20.4300   -1.6208 C   0  0  0  0  0  0  0  0  0  0  0  0
   12.9625   21.2889   -0.5152 N   0  0  0  0  0  0  0  0  0  0  0  0
   14.1151   22.1418   -0.4027 C   0  0  0  0  0  0  0  0  0  0  0  0
   13.8636   23.1120    0.6787 C   0  0  0  0  0  0  0  0  0  0  0  0
   14.5610   24.3965    0.5715 C   0  0  0  0  0  0  0  0  0  0  0  0
   14.6134   25.2274    1.7055 C   0  0  0  0  0  0  0  0  0  0  0  0
   15.1935   26.4587    1.6745 C   0  0  0  0  0  0  0  0  0  0  0  0
   15.7304   26.8655    0.4882 C   0  0  0  0  0  0  0  0  0  0  0  0
   15.7135   26.0879   -0.6780 C   0  0  0  0  0  0  0  0  0  0  0  0
   15.1259   24.8544   -0.6212 C   0  0  0  0  0  0  0  0  0  0  0  0
   16.5284   25.9671   -4.0915 H   0  0  0  0  0  0  0  0  0  0  0  0
   12.8738   20.7817    0.4092 H   0  0  0  0  0  0  0  0  0  0  0  0
   15.5306   25.0603   -6.0486 C   0  0  0  0  0  0  0  0  0  0  0  0
   16.0555   24.0062   -5.2958 O   0  0  0  0  0  0  0  0  0  0  0  0
   14.9776   21.4488   -5.0843 O   0  0  0  0  0  0  0  0  0  0  0  0
   13.9539   20.4856   -5.1797 C   0  0  0  0  0  0  0  0  0  0  0  0
 21 22  1  0  0  0
 22  1  1  0  0  0
  1  2  2  0  0  0
  2  3  1  0  0  0
  2  4  1  0  0  0
  4  5  2  0  0  0
  5  6  1  0  0  0
  6  7  2  0  0  0
  7 23  1  0  0  0
 23 24  1  0  0  0
  6  8  1  0  0  0
  8  9  1  0  0  0
  9 10  1  0  0  0
 10 11  1  0  0  0
 11 12  1  0  0  0
 12 13  1  0  0  0
 13 14  2  0  0  0
 14 15  1  0  0  0
 15 16  2  0  0  0
 16 17  1  0  0  0
 17 18  2  0  0  0
  7  1  1  0  0  0
 18 13  1  0  0  0
 18  4  1  0  0  0
 11  5  1  0  0  0
  3 19  1  0  0  0
 10 20  1  0  0  0
M  END
> <minimizedAffinity>
7.77065

> <CNNscore>
0.6132083535

> <CNNaffinity>
6.2749757767

> <CNN_VS>
3.8478674889

> <CNNaffinity_variance>
0.8906322718

$$$$
[H]Oc1c(OC([H])([H])[H])c(OC([H])([H])[H])c2c3c1-c1c([H])c([H])c([H])c([H])c1C([H])([H])[C@@]3([H])N([H])C([H])([H])C2([H])[H]


 24 27  0  0  0  0  0  0  0  0999 V2000
   15.4894   23.8864   -0.0266 C   0  0  0  0  0  0  0  0  0  0  0  0
   15.8341   24.7053   -1.0933 C   0  0  0  0  0  0  0  0  0  0  0  0
   17.1785   24.8489   -1.3085 O   0  0  0  0  0  0  0  0  0  0  0  0
   14.8226   25.2863   -1.8241 C   0  0  0  0  0  0  0  0  0  0  0  0
   13.4953   25.0766   -1.5231 C   0  0  0  0  0  0  0  0  0  0  0  0
   13.1921   24.2487   -0.4471 C   0  0  0  0  0  0  0  0  0  0  0  0
   14.1660   23.6506    0.3055 C   0  0  0  0  0  0  0  0  0  0  0  0
   11.7693   24.0329   -0.1317 C   0  0  0  0  0  0  0  0  0  0  0  0
   10.8665   24.0527   -1.3040 C   0  0  0  0  0  0  0  0  0  0  0  0
   11.2243   24.8796   -2.3775 N   0  0  0  0  0  0  0  0  0  0  0  0
   12.3954   25.6996   -2.2210 C   0  0  0  0  0  0  0  0  0  0  0  0
   12.7174   26.2938   -3.5314 C   0  0  0  0  0  0  0  0  0  0  0  0
   14.1254   26.6284   -3.7624 C   0  0  0  0  0  0  0  0  0  0  0  0
   14.4456   27.4708   -4.8428 C   0  0  0  0  0  0  0  0  0  0  0  0
   15.7319   27.7856   -5.1587 C   0  0  0  0  0  0  0  0  0  0  0  0
   16.7148   27.2483   -4.3800 C   0  0  0  0  0  0  0  0  0  0  0  0
   16.4655   26.4037   -3.2894 C   0  0  0  0  0  0  0  0  0  0  0  0
   15.1651   26.1030   -2.9915 C   0  0  0  0  0  0  0  0  0  0  0  0
   17.9030   24.4217   -0.7722 H   0  0  0  0  0  0  0  0  0  0  0  0
   10.4438   25.5268   -2.6801 H   0  0  0  0  0  0  0  0  0  0  0  0
   17.6177   23.9383    1.2251 C   0  0  0  0  0  0  0  0  0  0  0  0
   16.4851   23.2920    0.7221 O   0  0  0  0  0  0  0  0  0  0  0  0
   13.8177   22.8322    1.3703 O   0  0  0  0  0  0  0  0  0  0  0  0
   13.5814   21.4596    1.1580 C   0  0  0  0  0  0  0  0  0  0  0  0
 21 22  1  0  0  0
 22  1  1  0  0  0
  1  2  2  0  0  0
  2  3  1  0  0  0
  2  4  1  0  0  0
  4  5  2  0  0  0
  5  6  1  0  0  0
  6  7  2  0  0  0
  7 23  1  0  0  0
 23 24  1  0  0  0
  6  8  1  0  0  0
  8  9  1  0  0  0
  9 10  1  0  0  0
 10 11  1  0  0  0
 11 12  1  0  0  0
 12 13  1  0  0  0
 13 14  2  0  0  0
 14 15  1  0  0  0
 15 16  2  0  0  0
 16 17  1  0  0  0
 17 18  2  0  0  0
  7  1  1  0  0  0
 18 13  1  0  0  0
 18  4  1  0  0  0
 11  5  1  0  0  0
  3 19  1  0  0  0
 10 20  1  0  0  0
M  END
> <minimizedAffinity>
-5.08450

> <CNNscore>
0.5566289425

> <CNNaffinity>
6.8918128014

> <CNN_VS>
3.8361823559

> <CNNaffinity_variance>
0.1818938255

$$$$
[H]Oc1c(OC([H])([H])[H])c(OC([H])([H])[H])c2c3c1-c1c([H])c([H])c([H])c([H])c1C([H])([H])[C@@]3([H])N([H])C([H])([H])C2([H])[H]


 24 27  0  0  0  0  0  0  0  0999 V2000
   14.6111   22.8661    0.5447 C   0  0  0  0  0  0  0  0  0  0  0  0
   15.0098   23.6982   -0.4924 C   0  0  0  0  0  0  0  0  0  0  0  0
   16.3573   23.7276   -0.7323 O   0  0  0  0  0  0  0  0  0  0  0  0
   14.0428   24.4030   -1.1729 C   0  0  0  0  0  0  0  0  0  0  0  0
   12.7078   24.3024   -0.8506 C   0  0  0  0  0  0  0  0  0  0  0  0
   12.3496   23.4570    0.1945 C   0  0  0  0  0  0  0  0  0  0  0  0
   13.2781   22.7378    0.8968 C   0  0  0  0  0  0  0  0  0  0  0  0
   10.9192   23.3585    0.5331 C   0  0  0  0  0  0  0  0  0  0  0  0
    9.9999   23.5155   -0.6158 C   0  0  0  0  0  0  0  0  0  0  0  0
   10.4123   24.3548   -1.6596 N   0  0  0  0  0  0  0  0  0  0  0  0
   11.6574   25.0556   -1.4943 C   0  0  0  0  0  0  0  0  0  0  0  0
   12.0080   25.6777   -2.7843 C   0  0  0  0  0  0  0  0  0  0  0  0
   13.4363   25.8918   -3.0331 C   0  0  0  0  0  0  0  0  0  0  0  0
   13.8126   26.7502   -4.0822 C   0  0  0  0  0  0  0  0  0  0  0  0
   15.1164   26.9598   -4.4138 C   0  0  0  0  0  0  0  0  0  0  0  0
   16.0598   26.2990   -3.6828 C   0  0  0  0  0  0  0  0  0  0  0  0
   15.7541   25.4312   -2.6252 C   0  0  0  0  0  0  0  0  0  0  0  0
   14.4373   25.2379   -2.3107 C   0  0  0  0  0  0  0  0  0  0  0  0
   17.0491   23.2112   -0.2325 H   0  0  0  0  0  0  0  0  0  0  0  0
    9.6897   25.0843   -1.9149 H   0  0  0  0  0  0  0  0  0  0  0  0
   15.9813   20.8502    0.9415 C   0  0  0  0  0  0  0  0  0  0  0  0
   15.5614   22.1487    1.2429 O   0  0  0  0  0  0  0  0  0  0  0  0
   12.8756   21.9064    1.9322 O   0  0  0  0  0  0  0  0  0  0  0  0
   12.4428   20.5944    1.6565 C   0  0  0  0  0  0  0  0  0  0  0  0
 21 22  1  0  0  0
 22  1  1  0  0  0
  1  2  2  0  0  0
  2  3  1  0  0  0
  2  4  1  0  0  0
  4  5  2  0  0  0
  5  6  1  0  0  0
  6  7  2  0  0  0
  7 23  1  0  0  0
 23 24  1  0  0  0
  6  8  1  0  0  0
  8  9  1  0  0  0
  9 10  1  0  0  0
 10 11  1  0  0  0
 11 12  1  0  0  0
 12 13  1  0  0  0
 13 14  2  0  0  0
 14 15  1  0  0  0
 15 16  2  0  0  0
 16 17  1  0  0  0
 17 18  2  0  0  0
  7  1  1  0  0  0
 18 13  1  0  0  0
 18  4  1  0  0  0
 11  5  1  0  0  0
  3 19  1  0  0  0
 10 20  1  0  0  0
M  END
> <minimizedAffinity>
-6.08959

> <CNNscore>
0.5242867470

> <CNNaffinity>
6.7938585281

> <CNN_VS>
3.5619299412

> <CNNaffinity_variance>
0.3513042033

$$$$
[H]Oc1c(OC([H])([H])[H])c(OC([H])([H])[H])c2c3c1-c1c([H])c([H])c([H])c([H])c1C([H])([H])[C@@]3([H])N([H])C([H])([H])C2([H])[H]


 24 27  0  0  0  0  0  0  0  0999 V2000
   16.8251   26.6831   -3.4229 C   0  0  0  0  0  0  0  0  0  0  0  0
   16.6466   25.7865   -2.3783 C   0  0  0  0  0  0  0  0  0  0  0  0
   17.7815   25.4679   -1.6819 O   0  0  0  0  0  0  0  0  0  0  0  0
   15.3786   25.3081   -2.1377 C   0  0  0  0  0  0  0  0  0  0  0  0
   14.2992   25.6934   -2.9010 C   0  0  0  0  0  0  0  0  0  0  0  0
   14.5201   26.5942   -3.9377 C   0  0  0  0  0  0  0  0  0  0  0  0
   15.7639   27.0951   -4.2112 C   0  0  0  0  0  0  0  0  0  0  0  0
   13.3593   26.9980   -4.7501 C   0  0  0  0  0  0  0  0  0  0  0  0
   12.0764   27.0451   -4.0141 C   0  0  0  0  0  0  0  0  0  0  0  0
   11.9065   26.1386   -2.9589 N   0  0  0  0  0  0  0  0  0  0  0  0
   12.9586   25.1856   -2.7278 C   0  0  0  0  0  0  0  0  0  0  0  0
   12.6875   24.5050   -1.4482 C   0  0  0  0  0  0  0  0  0  0  0  0
   13.8555   23.9884   -0.7293 C   0  0  0  0  0  0  0  0  0  0  0  0
   13.6469   23.0710    0.3167 C   0  0  0  0  0  0  0  0  0  0  0  0
   14.6725   22.5860    1.0694 C   0  0  0  0  0  0  0  0  0  0  0  0
   15.9285   23.0265    0.7701 C   0  0  0  0  0  0  0  0  0  0  0  0
   16.2062   23.9378   -0.2583 C   0  0  0  0  0  0  0  0  0  0  0  0
   15.1594   24.4099   -1.0008 C   0  0  0  0  0  0  0  0  0  0  0  0
   18.6958   25.8220   -1.8652 H   0  0  0  0  0  0  0  0  0  0  0  0
   11.0092   25.5825   -3.0308 H   0  0  0  0  0  0  0  0  0  0  0  0
   18.4250   28.5302   -3.7794 C   0  0  0  0  0  0  0  0  0  0  0  0
   18.0869   27.1775   -3.6849 O   0  0  0  0  0  0  0  0  0  0  0  0
   15.9382   27.9917   -5.2556 O   0  0  0  0  0  0  0  0  0  0  0  0
   16.0658   27.5203   -6.5770 C   0  0  0  0  0  0  0  0  0  0  0  0
 21 22  1  0  0  0
 22  1  1  0  0  0
  1  2  2  0  0  0
  2  3  1  0  0  0
  2  4  1  0  0  0
  4  5  2  0  0  0
  5  6  1  0  0  0
  6  7  2  0  0  0
  7 23  1  0  0  0
 23 24  1  0  0  0
  6  8  1  0  0  0
  8  9  1  0  0  0
  9 10  1  0  0  0
 10 11  1  0  0  0
 11 12  1  0  0  0
 12 13  1  0  0  0
 13 14  2  0  0  0
 14 15  1  0  0  0
 15 16  2  0  0  0
 16 17  1  0  0  0
 17 18  2  0  0  0
  7  1  1  0  0  0
 18 13  1  0  0  0
 18  4  1  0  0  0
 11  5  1  0  0  0
  3 19  1  0  0  0
 10 20  1  0  0  0
M  END
> <minimizedAffinity>
-2.35434

> <CNNscore>
0.4686897099

> <CNNaffinity>
6.4648284912

> <CNN_VS>
3.0299985409

> <CNNaffinity_variance>
0.3180689216

$$$$
[H]Oc1c(OC([H])([H])[H])c(OC([H])([H])[H])c2c3c1-c1c([H])c([H])c([H])c([H])c1C([H])([H])[C@@]3([H])N([H])C([H])([H])C2([H])[H]


 24 27  0  0  0  0  0  0  0  0999 V2000
   15.4395   25.1006   -5.9649 C   0  0  0  0  0  0  0  0  0  0  0  0
   15.1922   24.2287   -4.9134 C   0  0  0  0  0  0  0  0  0  0  0  0
   14.7557   22.9833   -5.2779 O   0  0  0  0  0  0  0  0  0  0  0  0
   15.4020   24.6779   -3.6293 C   0  0  0  0  0  0  0  0  0  0  0  0
   15.8443   25.9558   -3.3693 C   0  0  0  0  0  0  0  0  0  0  0  0
   16.0812   26.7981   -4.4508 C   0  0  0  0  0  0  0  0  0  0  0  0
   15.8864   26.3923   -5.7431 C   0  0  0  0  0  0  0  0  0  0  0  0
   16.5516   28.1640   -4.1619 C   0  0  0  0  0  0  0  0  0  0  0  0
   17.3993   28.2833   -2.9548 C   0  0  0  0  0  0  0  0  0  0  0  0
   17.1447   27.3967   -1.8998 N   0  0  0  0  0  0  0  0  0  0  0  0
   16.0318   26.4970   -2.0439 C   0  0  0  0  0  0  0  0  0  0  0  0
   16.0939   25.5121   -0.9484 C   0  0  0  0  0  0  0  0  0  0  0  0
   15.4903   24.2042   -1.2184 C   0  0  0  0  0  0  0  0  0  0  0  0
   15.2385   23.3453   -0.1330 C   0  0  0  0  0  0  0  0  0  0  0  0
   14.7313   22.0933   -0.3032 C   0  0  0  0  0  0  0  0  0  0  0  0
   14.4716   21.6940   -1.5816 C   0  0  0  0  0  0  0  0  0  0  0  0
   14.6977   22.4991   -2.7066 C   0  0  0  0  0  0  0  0  0  0  0  0
   15.2068   23.7529   -2.5097 C   0  0  0  0  0  0  0  0  0  0  0  0
   14.6081   22.6686   -6.2129 H   0  0  0  0  0  0  0  0  0  0  0  0
   17.0166   27.8849   -0.9699 H   0  0  0  0  0  0  0  0  0  0  0  0
   14.5148   25.3646   -8.2396 C   0  0  0  0  0  0  0  0  0  0  0  0
   15.2367   24.6744   -7.2620 O   0  0  0  0  0  0  0  0  0  0  0  0
   16.1354   27.2663   -6.7914 O   0  0  0  0  0  0  0  0  0  0  0  0
   16.9199   26.8512   -7.8855 C   0  0  0  0  0  0  0  0  0  0  0  0
 21 22  1  0  0  0
 22  1  1  0  0  0
  1  2  2  0  0  0
  2  3  1  0  0  0
  2  4  1  0  0  0
  4  5  2  0  0  0
  5  6  1  0  0  0
  6  7  2  0  0  0
  7 23  1  0  0  0
 23 24  1  0  0  0
  6  8  1  0  0  0
  8  9  1  0  0  0
  9 10  1  0  0  0
 10 11  1  0  0  0
 11 12  1  0  0  0
 12 13  1  0  0  0
 13 14  2  0  0  0
 14 15  1  0  0  0
 15 16  2  0  0  0
 16 17  1  0  0  0
 17 18  2  0  0  0
  7  1  1  0  0  0
 18 13  1  0  0  0
 18  4  1  0  0  0
 11  5  1  0  0  0
  3 19  1  0  0  0
 10 20  1  0  0  0
M  END
> <minimizedAffinity>
1.21350

> <CNNscore>
0.4457866848

> <CNNaffinity>
6.3818922043

> <CNN_VS>
2.8449625969

> <CNNaffinity_variance>
0.5216046572

$$$$
[H]Oc1c(OC([H])([H])[H])c(OC([H])([H])[H])c2c3c1-c1c([H])c([H])c([H])c([H])c1C([H])([H])[C@@]3([H])N([H])C([H])([H])C2([H])[H]


 24 27  0  0  0  0  0  0  0  0999 V2000
   15.7589   24.9552   -0.2503 C   0  0  0  0  0  0  0  0  0  0  0  0
   15.9363   25.7129   -1.3999 C   0  0  0  0  0  0  0  0  0  0  0  0
   16.4435   26.9686   -1.1991 O   0  0  0  0  0  0  0  0  0  0  0  0
   15.5972   25.1522   -2.6104 C   0  0  0  0  0  0  0  0  0  0  0  0
   15.0919   23.8747   -2.7039 C   0  0  0  0  0  0  0  0  0  0  0  0
   14.9302   23.1482   -1.5286 C   0  0  0  0  0  0  0  0  0  0  0  0
   15.2550   23.6666   -0.3045 C   0  0  0  0  0  0  0  0  0  0  0  0
   14.3864   21.7835   -1.6391 C   0  0  0  0  0  0  0  0  0  0  0  0
   14.7528   21.0711   -2.8833 C   0  0  0  0  0  0  0  0  0  0  0  0
   14.9332   21.8446   -4.0380 N   0  0  0  0  0  0  0  0  0  0  0  0
   14.6714   23.2553   -3.9386 C   0  0  0  0  0  0  0  0  0  0  0  0
   15.1477   23.8983   -5.1771 C   0  0  0  0  0  0  0  0  0  0  0  0
   15.5505   25.3028   -5.0640 C   0  0  0  0  0  0  0  0  0  0  0  0
   15.7105   26.0513   -6.2444 C   0  0  0  0  0  0  0  0  0  0  0  0
   16.1349   27.3448   -6.2294 C   0  0  0  0  0  0  0  0  0  0  0  0
   16.4037   27.8989   -5.0121 C   0  0  0  0  0  0  0  0  0  0  0  0
   16.2645   27.2107   -3.7988 C   0  0  0  0  0  0  0  0  0  0  0  0
   15.8358   25.9127   -3.8401 C   0  0  0  0  0  0  0  0  0  0  0  0
   16.6865   27.3641   -0.3162 H   0  0  0  0  0  0  0  0  0  0  0  0
   14.3725   21.4934   -4.8637 H   0  0  0  0  0  0  0  0  0  0  0  0
   15.2839   26.3487    1.7324 C   0  0  0  0  0  0  0  0  0  0  0  0
   16.0911   25.4946    0.9760 O   0  0  0  0  0  0  0  0  0  0  0  0
   15.0771   22.9060    0.8421 O   0  0  0  0  0  0  0  0  0  0  0  0
   16.0574   21.9706    1.2280 C   0  0  0  0  0  0  0  0  0  0  0  0
 21 22  1  0  0  0
 22  1  1  0  0  0
  1  2  2  0  0  0
  2  3  1  0  0  0
  2  4  1  0  0  0
  4  5  2  0  0  0
  5  6  1  0  0  0
  6  7  2  0  0  0
  7 23  1  0  0  0
 23 24  1  0  0  0
  6  8  1  0  0  0
  8  9  1  0  0  0
  9 10  1  0  0  0
 10 11  1  0  0  0
 11 12  1  0  0  0
 12 13  1  0  0  0
 13 14  2  0  0  0
 14 15  1  0  0  0
 15 16  2  0  0  0
 16 17  1  0  0  0
 17 18  2  0  0  0
  7  1  1  0  0  0
 18 13  1  0  0  0
 18  4  1  0  0  0
 11  5  1  0  0  0
  3 19  1  0  0  0
 10 20  1  0  0  0
M  END
> <minimizedAffinity>
-0.80356

> <CNNscore>
0.4388614893

> <CNNaffinity>
6.6598482132

> <CNN_VS>
2.9227509499

> <CNNaffinity_variance>
0.3470769525

$$$$
[H]Oc1c(OC([H])([H])[H])c(OC([H])([H])[H])c2c3c1-c1c([H])c([H])c([H])c([H])c1C([H])([H])[C@@]3([H])N([H])C([H])([H])C2([H])[H]


 24 27  0  0  0  0  0  0  0  0999 V2000
   15.8217   23.5028   -0.0593 C   0  0  0  0  0  0  0  0  0  0  0  0
   14.9244   22.6412    0.5569 C   0  0  0  0  0  0  0  0  0  0  0  0
   15.4639   21.8210    1.5111 O   0  0  0  0  0  0  0  0  0  0  0  0
   13.6049   22.6844    0.1673 C   0  0  0  0  0  0  0  0  0  0  0  0
   13.1627   23.5507   -0.8075 C   0  0  0  0  0  0  0  0  0  0  0  0
   14.0933   24.3983   -1.3997 C   0  0  0  0  0  0  0  0  0  0  0  0
   15.4142   24.3888   -1.0422 C   0  0  0  0  0  0  0  0  0  0  0  0
   13.6106   25.3194   -2.4433 C   0  0  0  0  0  0  0  0  0  0  0  0
   12.2207   25.7915   -2.2561 C   0  0  0  0  0  0  0  0  0  0  0  0
   11.3229   24.9164   -1.6300 N   0  0  0  0  0  0  0  0  0  0  0  0
   11.8034   23.6036   -1.2919 C   0  0  0  0  0  0  0  0  0  0  0  0
   10.7908   22.9494   -0.4431 C   0  0  0  0  0  0  0  0  0  0  0  0
   11.2861   21.9333    0.4897 C   0  0  0  0  0  0  0  0  0  0  0  0
   10.3566   21.0647    1.0902 C   0  0  0  0  0  0  0  0  0  0  0  0
   10.7274   20.1303    2.0083 C   0  0  0  0  0  0  0  0  0  0  0  0
   12.0512   20.0639    2.3310 C   0  0  0  0  0  0  0  0  0  0  0  0
   13.0289   20.8974    1.7703 C   0  0  0  0  0  0  0  0  0  0  0  0
   12.6317   21.8274    0.8497 C   0  0  0  0  0  0  0  0  0  0  0  0
   16.4226   21.7993    1.7858 H   0  0  0  0  0  0  0  0  0  0  0  0
   10.4297   24.7760   -2.1796 H   0  0  0  0  0  0  0  0  0  0  0  0
   17.7563   24.3580    1.2153 C   0  0  0  0  0  0  0  0  0  0  0  0
   17.1505   23.4789    0.3134 O   0  0  0  0  0  0  0  0  0  0  0  0
   16.3078   25.2520   -1.6597 O   0  0  0  0  0  0  0  0  0  0  0  0
   16.4801   25.2089   -3.0573 C   0  0  0  0  0  0  0  0  0  0  0  0
 21 22  1  0  0  0
 22  1  1  0  0  0
  1  2  2  0  0  0
  2  3  1  0  0  0
  2  4  1  0  0  0
  4  5  2  0  0  0
  5  6  1  0  0  0
  6  7  2  0  0  0
  7 23  1  0  0  0
 23 24  1  0  0  0
  6  8  1  0  0  0
  8  9  1  0  0  0
  9 10  1  0  0  0
 10 11  1  0  0  0
 11 12  1  0  0  0
 12 13  1  0  0  0
 13 14  2  0  0  0
 14 15  1  0  0  0
 15 16  2  0  0  0
 16 17  1  0  0  0
 17 18  2  0  0  0
  7  1  1  0  0  0
 18 13  1  0  0  0
 18  4  1  0  0  0
 11  5  1  0  0  0
  3 19  1  0  0  0
 10 20  1  0  0  0
M  END
> <minimizedAffinity>
-3.71687

> <CNNscore>
0.3871543109

> <CNNaffinity>
6.4847421646

> <CNN_VS>
2.5105957985

> <CNNaffinity_variance>
0.2332900316

$$$$
[H]Oc1c(OC([H])([H])[H])c(OC([H])([H])[H])c2c3c1-c1c([H])c([H])c([H])c([H])c1C([H])([H])[C@@]3([H])N([H])C([H])([H])C2([H])[H]


 24 27  0  0  0  0  0  0  0  0999 V2000
   15.4222   25.0707    0.0406 C   0  0  0  0  0  0  0  0  0  0  0  0
   14.4618   24.1452    0.4255 C   0  0  0  0  0  0  0  0  0  0  0  0
   13.8997   24.3637    1.6546 O   0  0  0  0  0  0  0  0  0  0  0  0
   14.1640   23.1155   -0.4381 C   0  0  0  0  0  0  0  0  0  0  0  0
   14.7905   22.9851   -1.6574 C   0  0  0  0  0  0  0  0  0  0  0  0
   15.7462   23.9339   -2.0059 C   0  0  0  0  0  0  0  0  0  0  0  0
   16.0723   24.9736   -1.1781 C   0  0  0  0  0  0  0  0  0  0  0  0
   16.4125   23.7840   -3.3114 C   0  0  0  0  0  0  0  0  0  0  0  0
   15.5695   23.1858   -4.3703 C   0  0  0  0  0  0  0  0  0  0  0  0
   14.6004   22.2551   -3.9720 N   0  0  0  0  0  0  0  0  0  0  0  0
   14.5564   21.8987   -2.5793 C   0  0  0  0  0  0  0  0  0  0  0  0
   13.3335   21.1084   -2.3469 C   0  0  0  0  0  0  0  0  0  0  0  0
   12.7718   21.1670   -0.9946 C   0  0  0  0  0  0  0  0  0  0  0  0
   11.8096   20.2090   -0.6264 C   0  0  0  0  0  0  0  0  0  0  0  0
   11.1992   20.2267    0.5905 C   0  0  0  0  0  0  0  0  0  0  0  0
   11.5579   21.2203    1.4537 C   0  0  0  0  0  0  0  0  0  0  0  0
   12.5091   22.2045    1.1513 C   0  0  0  0  0  0  0  0  0  0  0  0
   13.1089   22.1649   -0.0770 C   0  0  0  0  0  0  0  0  0  0  0  0
   14.1232   25.1148    2.2718 H   0  0  0  0  0  0  0  0  0  0  0  0
   14.6516   21.3467   -4.5121 H   0  0  0  0  0  0  0  0  0  0  0  0
   14.8297   26.8205    1.6796 C   0  0  0  0  0  0  0  0  0  0  0  0
   15.7390   26.1126    0.8888 O   0  0  0  0  0  0  0  0  0  0  0  0
   17.0320   25.8971   -1.5666 O   0  0  0  0  0  0  0  0  0  0  0  0
   16.7477   26.8228   -2.5899 C   0  0  0  0  0  0  0  0  0  0  0  0
 21 22  1  0  0  0
 22  1  1  0  0  0
  1  2  2  0  0  0
  2  3  1  0  0  0
  2  4  1  0  0  0
  4  5  2  0  0  0
  5  6  1  0  0  0
  6  7  2  0  0  0
  7 23  1  0  0  0
 23 24  1  0  0  0
  6  8  1  0  0  0
  8  9  1  0  0  0
  9 10  1  0  0  0
 10 11  1  0  0  0
 11 12  1  0  0  0
 12 13  1  0  0  0
 13 14  2  0  0  0
 14 15  1  0  0  0
 15 16  2  0  0  0
 16 17  1  0  0  0
 17 18  2  0  0  0
  7  1  1  0  0  0
 18 13  1  0  0  0
 18  4  1  0  0  0
 11  5  1  0  0  0
  3 19  1  0  0  0
 10 20  1  0  0  0
M  END
> <minimizedAffinity>
-0.28807

> <CNNscore>
0.3741029203

> <CNNaffinity>
6.2789764404

> <CNN_VS>
2.3489835262

> <CNNaffinity_variance>
0.2403260767

$$$$
[H]c1c([H])c([H])c(N([H])[C@@]2([H])c3c([H])c(-c4c([H])c([H])c(C(F)(F)F)c([H])c4[H])c([H])c([H])c3N(C(=O)C([H])([H])[H])[C@@]([H])(C([H])([H])[H])C2([H])[H])c([H])c1[H]


 32 35  0  0  0  0  0  0  0  0999 V2000
    7.4918   21.5347   -1.1390 C   0  0  0  0  0  0  0  0  0  0  0  0
    8.0507   21.1668    0.1683 C   0  0  0  0  0  0  0  0  0  0  0  0
    7.3680   20.3581    0.8853 O   0  0  0  0  0  0  0  0  0  0  0  0
    9.2754   21.6609    0.6607 N   0  0  0  0  0  0  0  0  0  0  0  0
   10.2662   22.3572   -0.0647 C   0  0  0  0  0  0  0  0  0  0  0  0
   10.4321   22.0875   -1.4185 C   0  0  0  0  0  0  0  0  0  0  0  0
   11.3537   22.8354   -2.1115 C   0  0  0  0  0  0  0  0  0  0  0  0
   12.1280   23.8358   -1.5557 C   0  0  0  0  0  0  0  0  0  0  0  0
   11.9468   24.0734   -0.2145 C   0  0  0  0  0  0  0  0  0  0  0  0
   11.0200   23.3383    0.5319 C   0  0  0  0  0  0  0  0  0  0  0  0
   10.9659   23.6390    1.9683 C   0  0  0  0  0  0  0  0  0  0  0  0
    9.8981   22.8671    2.6927 C   0  0  0  0  0  0  0  0  0  0  0  0
    9.5736   21.5365    2.1020 C   0  0  0  0  0  0  0  0  0  0  0  0
   10.5197   20.4223    2.3502 C   0  0  0  0  0  0  0  0  0  0  0  0
   13.0743   24.6341   -2.3423 C   0  0  0  0  0  0  0  0  0  0  0  0
   13.1365   24.4829   -3.7211 C   0  0  0  0  0  0  0  0  0  0  0  0
   13.9640   25.2378   -4.5221 C   0  0  0  0  0  0  0  0  0  0  0  0
   14.7753   26.1899   -3.9209 C   0  0  0  0  0  0  0  0  0  0  0  0
   14.7428   26.3660   -2.5547 C   0  0  0  0  0  0  0  0  0  0  0  0
   13.8880   25.5804   -1.7785 C   0  0  0  0  0  0  0  0  0  0  0  0
   15.6638   27.0128   -4.8177 C   0  0  0  0  0  0  0  0  0  0  0  0
   15.3919   28.3601   -4.6475 F   0  0  0  0  0  0  0  0  0  0  0  0
   15.4969   26.7095   -6.1351 F   0  0  0  0  0  0  0  0  0  0  0  0
   16.9680   26.8335   -4.3643 F   0  0  0  0  0  0  0  0  0  0  0  0
   12.2843   23.2975    2.5407 N   0  0  0  0  0  0  0  0  0  0  0  0
   12.2871   22.9544    3.5265 H   0  0  0  0  0  0  0  0  0  0  0  0
   13.4740   23.4429    1.7728 C   0  0  0  0  0  0  0  0  0  0  0  0
   13.9592   24.7062    1.4743 C   0  0  0  0  0  0  0  0  0  0  0  0
   15.1419   24.8041    0.7825 C   0  0  0  0  0  0  0  0  0  0  0  0
   15.8766   23.7233    0.3641 C   0  0  0  0  0  0  0  0  0  0  0  0
   15.4025   22.4506    0.6543 C   0  0  0  0  0  0  0  0  0  0  0  0
   14.2181   22.3375    1.3487 C   0  0  0  0  0  0  0  0  0  0  0  0
  1  2  1  0  0  0
  2  3  2  0  0  0
  2  4  1  0  0  0
  4  5  1  0  0  0
  5  6  2  0  0  0
  6  7  1  0  0  0
  7  8  2  0  0  0
  8 15  1  0  0  0
 15 16  2  0  0  0
 16 17  1  0  0  0
 17 18  2  0  0  0
 18 21  1  0  0  0
 21 22  1  0  0  0
 21 23  1  0  0  0
 21 24  1  0  0  0
 18 19  1  0  0  0
 19 20  2  0  0  0
  8  9  1  0  0  0
  9 10  2  0  0  0
 10 11  1  0  0  0
 11 25  1  0  0  0
 25 27  1  0  0  0
 27 28  2  0  0  0
 28 29  1  0  0  0
 29 30  2  0  0  0
 30 31  1  0  0  0
 31 32  2  0  0  0
 11 12  1  0  0  0
 12 13  1  0  0  0
 13 14  1  0  0  0
 13  4  1  0  0  0
 10  5  1  0  0  0
 32 27  1  0  0  0
 20 15  1  0  0  0
 25 26  1  0  0  0
M  END
> <minimizedAffinity>
5.56606

> <CNNscore>
0.5223960876

> <CNNaffinity>
7.0944976807

> <CNN_VS>
3.7061378956

> <CNNaffinity_variance>
0.9318351746

$$$$
[H]c1c([H])c([H])c(N([H])[C@@]2([H])c3c([H])c(-c4c([H])c([H])c(C(F)(F)F)c([H])c4[H])c([H])c([H])c3N(C(=O)C([H])([H])[H])[C@@]([H])(C([H])([H])[H])C2([H])[H])c([H])c1[H]


 32 35  0  0  0  0  0  0  0  0999 V2000
   14.4772   19.7757    1.5283 C   0  0  0  0  0  0  0  0  0  0  0  0
   13.0902   20.0872    1.8971 C   0  0  0  0  0  0  0  0  0  0  0  0
   12.6129   19.4891    2.9211 O   0  0  0  0  0  0  0  0  0  0  0  0
   12.2766   20.9901    1.1834 N   0  0  0  0  0  0  0  0  0  0  0  0
   12.6886   21.9079    0.1931 C   0  0  0  0  0  0  0  0  0  0  0  0
   13.9664   22.4518    0.2608 C   0  0  0  0  0  0  0  0  0  0  0  0
   14.3623   23.2838   -0.7590 C   0  0  0  0  0  0  0  0  0  0  0  0
   13.5779   23.6185   -1.8462 C   0  0  0  0  0  0  0  0  0  0  0  0
   12.3178   23.0716   -1.8806 C   0  0  0  0  0  0  0  0  0  0  0  0
   11.8710   22.2188   -0.8659 C   0  0  0  0  0  0  0  0  0  0  0  0
   10.4833   21.7522   -0.9809 C   0  0  0  0  0  0  0  0  0  0  0  0
   10.0958   20.7821    0.1005 C   0  0  0  0  0  0  0  0  0  0  0  0
   10.8150   20.9626    1.3948 C   0  0  0  0  0  0  0  0  0  0  0  0
   10.3882   22.0797    2.2712 C   0  0  0  0  0  0  0  0  0  0  0  0
   14.0553   24.4826   -2.9310 C   0  0  0  0  0  0  0  0  0  0  0  0
   13.4852   25.7332   -3.1285 C   0  0  0  0  0  0  0  0  0  0  0  0
   13.9220   26.6128   -4.0937 C   0  0  0  0  0  0  0  0  0  0  0  0
   14.9779   26.2279   -4.9081 C   0  0  0  0  0  0  0  0  0  0  0  0
   15.5664   24.9930   -4.7432 C   0  0  0  0  0  0  0  0  0  0  0  0
   15.0940   24.1310   -3.7512 C   0  0  0  0  0  0  0  0  0  0  0  0
   15.4472   27.2109   -5.9493 C   0  0  0  0  0  0  0  0  0  0  0  0
   14.4141   28.0670   -6.2929 F   0  0  0  0  0  0  0  0  0  0  0  0
   15.8847   26.5973   -7.0841 F   0  0  0  0  0  0  0  0  0  0  0  0
   16.4103   28.0111   -5.3406 F   0  0  0  0  0  0  0  0  0  0  0  0
    9.6099   22.9410   -0.9020 N   0  0  0  0  0  0  0  0  0  0  0  0
    8.9574   23.0911   -1.7027 H   0  0  0  0  0  0  0  0  0  0  0  0
    9.6769   23.8241    0.2125 C   0  0  0  0  0  0  0  0  0  0  0  0
    8.5561   24.0378    0.9989 C   0  0  0  0  0  0  0  0  0  0  0  0
    8.6770   24.8501    2.1000 C   0  0  0  0  0  0  0  0  0  0  0  0
    9.8442   25.4687    2.4714 C   0  0  0  0  0  0  0  0  0  0  0  0
   10.9758   25.2656    1.6922 C   0  0  0  0  0  0  0  0  0  0  0  0
   10.8693   24.4521    0.5856 C   0  0  0  0  0  0  0  0  0  0  0  0
  1  2  1  0  0  0
  2  3  2  0  0  0
  2  4  1  0  0  0
  4  5  1  0  0  0
  5  6  2  0  0  0
  6  7  1  0  0  0
  7  8  2  0  0  0
  8 15  1  0  0  0
 15 16  2  0  0  0
 16 17  1  0  0  0
 17 18  2  0  0  0
 18 21  1  0  0  0
 21 22  1  0  0  0
 21 23  1  0  0  0
 21 24  1  0  0  0
 18 19  1  0  0  0
 19 20  2  0  0  0
  8  9  1  0  0  0
  9 10  2  0  0  0
 10 11  1  0  0  0
 11 25  1  0  0  0
 25 27  1  0  0  0
 27 28  2  0  0  0
 28 29  1  0  0  0
 29 30  2  0  0  0
 30 31  1  0  0  0
 31 32  2  0  0  0
 11 12  1  0  0  0
 12 13  1  0  0  0
 13 14  1  0  0  0
 13  4  1  0  0  0
 10  5  1  0  0  0
 32 27  1  0  0  0
 20 15  1  0  0  0
 25 26  1  0  0  0
M  END
> <minimizedAffinity>
-5.77585

> <CNNscore>
0.5143994093

> <CNNaffinity>
7.2133002281

> <CNN_VS>
3.7105174065

> <CNNaffinity_variance>
0.2840487361

$$$$
[H]c1c([H])c([H])c(N([H])[C@@]2([H])c3c([H])c(-c4c([H])c([H])c(C(F)(F)F)c([H])c4[H])c([H])c([H])c3N(C(=O)C([H])([H])[H])[C@@]([H])(C([H])([H])[H])C2([H])[H])c([H])c1[H]


 32 35  0  0  0  0  0  0  0  0999 V2000
   14.1231   19.6172    1.3710 C   0  0  0  0  0  0  0  0  0  0  0  0
   12.9356   20.1771    2.0292 C   0  0  0  0  0  0  0  0  0  0  0  0
   12.5470   19.6102    3.1069 O   0  0  0  0  0  0  0  0  0  0  0  0
   12.2161   21.2826    1.5323 N   0  0  0  0  0  0  0  0  0  0  0  0
   12.6185   22.1721    0.5127 C   0  0  0  0  0  0  0  0  0  0  0  0
   13.9724   22.4338    0.3353 C   0  0  0  0  0  0  0  0  0  0  0  0
   14.3350   23.2454   -0.7130 C   0  0  0  0  0  0  0  0  0  0  0  0
   13.4472   23.8205   -1.6019 C   0  0  0  0  0  0  0  0  0  0  0  0
   12.1160   23.5495   -1.3957 C   0  0  0  0  0  0  0  0  0  0  0  0
   11.6992   22.7286   -0.3426 C   0  0  0  0  0  0  0  0  0  0  0  0
   10.2478   22.5687   -0.1860 C   0  0  0  0  0  0  0  0  0  0  0  0
    9.8750   21.6158    0.9158 C   0  0  0  0  0  0  0  0  0  0  0  0
   10.8529   21.5400    2.0395 C   0  0  0  0  0  0  0  0  0  0  0  0
   10.8579   22.6471    3.0256 C   0  0  0  0  0  0  0  0  0  0  0  0
   13.8822   24.6517   -2.7294 C   0  0  0  0  0  0  0  0  0  0  0  0
   14.9022   24.2156   -3.5645 C   0  0  0  0  0  0  0  0  0  0  0  0
   15.3212   24.9227   -4.6693 C   0  0  0  0  0  0  0  0  0  0  0  0
   14.6967   26.1283   -4.9571 C   0  0  0  0  0  0  0  0  0  0  0  0
   13.6826   26.5942   -4.1490 C   0  0  0  0  0  0  0  0  0  0  0  0
   13.2867   25.8456   -3.0385 C   0  0  0  0  0  0  0  0  0  0  0  0
   15.1630   26.8791   -6.1776 C   0  0  0  0  0  0  0  0  0  0  0  0
   16.0165   26.0850   -6.9253 F   0  0  0  0  0  0  0  0  0  0  0  0
   15.8217   28.0286   -5.8609 F   0  0  0  0  0  0  0  0  0  0  0  0
   14.0415   27.0805   -6.9775 F   0  0  0  0  0  0  0  0  0  0  0  0
    9.6868   23.9018    0.1150 N   0  0  0  0  0  0  0  0  0  0  0  0
    9.7584   24.6168   -0.6419 H   0  0  0  0  0  0  0  0  0  0  0  0
    9.0915   24.1755    1.3788 C   0  0  0  0  0  0  0  0  0  0  0  0
    9.6164   25.1645    2.1953 C   0  0  0  0  0  0  0  0  0  0  0  0
    8.9780   25.4393    3.3801 C   0  0  0  0  0  0  0  0  0  0  0  0
    7.8476   24.7907    3.8097 C   0  0  0  0  0  0  0  0  0  0  0  0
    7.3105   23.7958    3.0032 C   0  0  0  0  0  0  0  0  0  0  0  0
    7.9399   23.5107    1.8114 C   0  0  0  0  0  0  0  0  0  0  0  0
  1  2  1  0  0  0
  2  3  2  0  0  0
  2  4  1  0  0  0
  4  5  1  0  0  0
  5  6  2  0  0  0
  6  7  1  0  0  0
  7  8  2  0  0  0
  8 15  1  0  0  0
 15 16  2  0  0  0
 16 17  1  0  0  0
 17 18  2  0  0  0
 18 21  1  0  0  0
 21 22  1  0  0  0
 21 23  1  0  0  0
 21 24  1  0  0  0
 18 19  1  0  0  0
 19 20  2  0  0  0
  8  9  1  0  0  0
  9 10  2  0  0  0
 10 11  1  0  0  0
 11 25  1  0  0  0
 25 27  1  0  0  0
 27 28  2  0  0  0
 28 29  1  0  0  0
 29 30  2  0  0  0
 30 31  1  0  0  0
 31 32  2  0  0  0
 11 12  1  0  0  0
 12 13  1  0  0  0
 13 14  1  0  0  0
 13  4  1  0  0  0
 10  5  1  0  0  0
 32 27  1  0  0  0
 20 15  1  0  0  0
 25 26  1  0  0  0
M  END
> <minimizedAffinity>
-8.13152

> <CNNscore>
0.4984650016

> <CNNaffinity>
7.0934839249

> <CNN_VS>
3.5358533859

> <CNNaffinity_variance>
0.2035641968

$$$$
[H]c1c([H])c([H])c(N([H])[C@@]2([H])c3c([H])c(-c4c([H])c([H])c(C(F)(F)F)c([H])c4[H])c([H])c([H])c3N(C(=O)C([H])([H])[H])[C@@]([H])(C([H])([H])[H])C2([H])[H])c([H])c1[H]


 32 35  0  0  0  0  0  0  0  0999 V2000
   16.0674   25.2856   -7.5013 C   0  0  0  0  0  0  0  0  0  0  0  0
   16.4582   26.4779   -6.7382 C   0  0  0  0  0  0  0  0  0  0  0  0
   16.9495   27.4556   -7.3991 O   0  0  0  0  0  0  0  0  0  0  0  0
   16.3261   26.5873   -5.3392 N   0  0  0  0  0  0  0  0  0  0  0  0
   15.6010   25.7308   -4.4827 C   0  0  0  0  0  0  0  0  0  0  0  0
   14.4665   25.0886   -4.9661 C   0  0  0  0  0  0  0  0  0  0  0  0
   13.8269   24.2047   -4.1304 C   0  0  0  0  0  0  0  0  0  0  0  0
   14.2321   23.9112   -2.8424 C   0  0  0  0  0  0  0  0  0  0  0  0
   15.3516   24.5675   -2.3907 C   0  0  0  0  0  0  0  0  0  0  0  0
   16.0363   25.4754   -3.2053 C   0  0  0  0  0  0  0  0  0  0  0  0
   17.1774   26.1623   -2.5868 C   0  0  0  0  0  0  0  0  0  0  0  0
   17.9101   27.0647   -3.5406 C   0  0  0  0  0  0  0  0  0  0  0  0
   17.0701   27.6463   -4.6273 C   0  0  0  0  0  0  0  0  0  0  0  0
   16.1749   28.7753   -4.2780 C   0  0  0  0  0  0  0  0  0  0  0  0
   13.5389   22.9326   -1.9978 C   0  0  0  0  0  0  0  0  0  0  0  0
   13.4322   21.6100   -2.4070 C   0  0  0  0  0  0  0  0  0  0  0  0
   12.8412   20.6323   -1.6382 C   0  0  0  0  0  0  0  0  0  0  0  0
   12.3256   20.9883   -0.3998 C   0  0  0  0  0  0  0  0  0  0  0  0
   12.4107   22.2920    0.0381 C   0  0  0  0  0  0  0  0  0  0  0  0
   13.0193   23.2530   -0.7720 C   0  0  0  0  0  0  0  0  0  0  0  0
   11.6944   19.9000    0.4296 C   0  0  0  0  0  0  0  0  0  0  0  0
   10.8931   20.4573    1.4123 F   0  0  0  0  0  0  0  0  0  0  0  0
   12.6197   19.1059    1.0368 F   0  0  0  0  0  0  0  0  0  0  0  0
   10.8284   19.2060   -0.4111 F   0  0  0  0  0  0  0  0  0  0  0  0
   16.6528   26.9667   -1.4642 N   0  0  0  0  0  0  0  0  0  0  0  0
   17.0184   27.9407   -1.3808 H   0  0  0  0  0  0  0  0  0  0  0  0
   15.7053   26.4195   -0.5535 C   0  0  0  0  0  0  0  0  0  0  0  0
   16.1120   25.5121    0.4116 C   0  0  0  0  0  0  0  0  0  0  0  0
   15.1793   25.0528    1.3094 C   0  0  0  0  0  0  0  0  0  0  0  0
   13.8619   25.4365    1.3095 C   0  0  0  0  0  0  0  0  0  0  0  0
   13.4386   26.3441    0.3472 C   0  0  0  0  0  0  0  0  0  0  0  0
   14.3638   26.8141   -0.5589 C   0  0  0  0  0  0  0  0  0  0  0  0
  1  2  1  0  0  0
  2  3  2  0  0  0
  2  4  1  0  0  0
  4  5  1  0  0  0
  5  6  2  0  0  0
  6  7  1  0  0  0
  7  8  2  0  0  0
  8 15  1  0  0  0
 15 16  2  0  0  0
 16 17  1  0  0  0
 17 18  2  0  0  0
 18 21  1  0  0  0
 21 22  1  0  0  0
 21 23  1  0  0  0
 21 24  1  0  0  0
 18 19  1  0  0  0
 19 20  2  0  0  0
  8  9  1  0  0  0
  9 10  2  0  0  0
 10 11  1  0  0  0
 11 25  1  0  0  0
 25 27  1  0  0  0
 27 28  2  0  0  0
 28 29  1  0  0  0
 29 30  2  0  0  0
 30 31  1  0  0  0
 31 32  2  0  0  0
 11 12  1  0  0  0
 12 13  1  0  0  0
 13 14  1  0  0  0
 13  4  1  0  0  0
 10  5  1  0  0  0
 32 27  1  0  0  0
 20 15  1  0  0  0
 25 26  1  0  0  0
M  END
> <minimizedAffinity>
13.42617

> <CNNscore>
0.4935376048

> <CNNaffinity>
7.2835540771

> <CNN_VS>
3.5947077274

> <CNNaffinity_variance>
0.9115015268

$$$$
[H]c1c([H])c([H])c(N([H])[C@@]2([H])c3c([H])c(-c4c([H])c([H])c(C(F)(F)F)c([H])c4[H])c([H])c([H])c3N(C(=O)C([H])([H])[H])[C@@]([H])(C([H])([H])[H])C2([H])[H])c([H])c1[H]


 32 35  0  0  0  0  0  0  0  0999 V2000
   12.3570   27.4554   -5.0024 C   0  0  0  0  0  0  0  0  0  0  0  0
   13.7411   26.9666   -4.9555 C   0  0  0  0  0  0  0  0  0  0  0  0
   14.5780   27.5144   -5.7515 O   0  0  0  0  0  0  0  0  0  0  0  0
   14.1769   25.9374   -4.0968 N   0  0  0  0  0  0  0  0  0  0  0  0
   13.4754   25.3876   -3.0020 C   0  0  0  0  0  0  0  0  0  0  0  0
   12.5951   26.1916   -2.2866 C   0  0  0  0  0  0  0  0  0  0  0  0
   11.8729   25.6062   -1.2744 C   0  0  0  0  0  0  0  0  0  0  0  0
   11.9621   24.2744   -0.9172 C   0  0  0  0  0  0  0  0  0  0  0  0
   12.8463   23.5078   -1.6374 C   0  0  0  0  0  0  0  0  0  0  0  0
   13.6024   24.0592   -2.6770 C   0  0  0  0  0  0  0  0  0  0  0  0
   14.5601   23.1552   -3.3267 C   0  0  0  0  0  0  0  0  0  0  0  0
   15.2824   23.7923   -4.4814 C   0  0  0  0  0  0  0  0  0  0  0  0
   15.4648   25.2686   -4.3718 C   0  0  0  0  0  0  0  0  0  0  0  0
   16.5226   25.7673   -3.4605 C   0  0  0  0  0  0  0  0  0  0  0  0
   11.1444   23.6836    0.1476 C   0  0  0  0  0  0  0  0  0  0  0  0
   10.8911   24.3990    1.3103 C   0  0  0  0  0  0  0  0  0  0  0  0
   10.0893   23.9235    2.3239 C   0  0  0  0  0  0  0  0  0  0  0  0
    9.5124   22.6699    2.1760 C   0  0  0  0  0  0  0  0  0  0  0  0
    9.7438   21.9299    1.0370 C   0  0  0  0  0  0  0  0  0  0  0  0
   10.5624   22.4494    0.0319 C   0  0  0  0  0  0  0  0  0  0  0  0
    8.6290   22.1748    3.2920 C   0  0  0  0  0  0  0  0  0  0  0  0
    7.3148   22.5419    3.0547 F   0  0  0  0  0  0  0  0  0  0  0  0
    8.9959   22.6729    4.5056 F   0  0  0  0  0  0  0  0  0  0  0  0
    8.6466   20.7841    3.2308 F   0  0  0  0  0  0  0  0  0  0  0  0
   15.5450   22.7466   -2.3043 N   0  0  0  0  0  0  0  0  0  0  0  0
   16.1615   21.9410   -2.5499 H   0  0  0  0  0  0  0  0  0  0  0  0
   15.6262   23.4254   -1.0557 C   0  0  0  0  0  0  0  0  0  0  0  0
   16.1822   24.6929   -0.9878 C   0  0  0  0  0  0  0  0  0  0  0  0
   16.1879   25.3387    0.2245 C   0  0  0  0  0  0  0  0  0  0  0  0
   15.6764   24.8039    1.3800 C   0  0  0  0  0  0  0  0  0  0  0  0
   15.1172   23.5336    1.3285 C   0  0  0  0  0  0  0  0  0  0  0  0
   15.1037   22.8747    0.1188 C   0  0  0  0  0  0  0  0  0  0  0  0
  1  2  1  0  0  0
  2  3  2  0  0  0
  2  4  1  0  0  0
  4  5  1  0  0  0
  5  6  2  0  0  0
  6  7  1  0  0  0
  7  8  2  0  0  0
  8 15  1  0  0  0
 15 16  2  0  0  0
 16 17  1  0  0  0
 17 18  2  0  0  0
 18 21  1  0  0  0
 21 22  1  0  0  0
 21 23  1  0  0  0
 21 24  1  0  0  0
 18 19  1  0  0  0
 19 20  2  0  0  0
  8  9  1  0  0  0
  9 10  2  0  0  0
 10 11  1  0  0  0
 11 25  1  0  0  0
 25 27  1  0  0  0
 27 28  2  0  0  0
 28 29  1  0  0  0
 29 30  2  0  0  0
 30 31  1  0  0  0
 31 32  2  0  0  0
 11 12  1  0  0  0
 12 13  1  0  0  0
 13 14  1  0  0  0
 13  4  1  0  0  0
 10  5  1  0  0  0
 32 27  1  0  0  0
 20 15  1  0  0  0
 25 26  1  0  0  0
M  END
> <minimizedAffinity>
-1.78503

> <CNNscore>
0.4896347821

> <CNNaffinity>
7.3406119347

> <CNN_VS>
3.5942189693

> <CNNaffinity_variance>
0.4231399000

$$$$
[H]c1c([H])c([H])c(N([H])[C@@]2([H])c3c([H])c(-c4c([H])c([H])c(C(F)(F)F)c([H])c4[H])c([H])c([H])c3N(C(=O)C([H])([H])[H])[C@@]([H])(C([H])([H])[H])C2([H])[H])c([H])c1[H]


 32 35  0  0  0  0  0  0  0  0999 V2000
   13.0728   27.1505   -5.4175 C   0  0  0  0  0  0  0  0  0  0  0  0
   14.3921   26.5591   -5.1600 C   0  0  0  0  0  0  0  0  0  0  0  0
   15.3607   26.9577   -5.8929 O   0  0  0  0  0  0  0  0  0  0  0  0
   14.6317   25.5869   -4.1680 N   0  0  0  0  0  0  0  0  0  0  0  0
   13.7631   25.2046   -3.1230 C   0  0  0  0  0  0  0  0  0  0  0  0
   12.8841   26.1425   -2.5930 C   0  0  0  0  0  0  0  0  0  0  0  0
   12.0011   25.7186   -1.6290 C   0  0  0  0  0  0  0  0  0  0  0  0
   11.9272   24.4251   -1.1486 C   0  0  0  0  0  0  0  0  0  0  0  0
   12.8139   23.5234   -1.6861 C   0  0  0  0  0  0  0  0  0  0  0  0
   13.7305   23.9083   -2.6701 C   0  0  0  0  0  0  0  0  0  0  0  0
   14.6694   22.8713   -3.1169 C   0  0  0  0  0  0  0  0  0  0  0  0
   15.5735   23.3327   -4.2262 C   0  0  0  0  0  0  0  0  0  0  0  0
   15.8762   24.7933   -4.2246 C   0  0  0  0  0  0  0  0  0  0  0  0
   16.8645   25.2920   -3.2384 C   0  0  0  0  0  0  0  0  0  0  0  0
   10.9433   24.0085   -0.1439 C   0  0  0  0  0  0  0  0  0  0  0  0
   11.1032   24.3798    1.1845 C   0  0  0  0  0  0  0  0  0  0  0  0
   10.1898   24.0665    2.1662 C   0  0  0  0  0  0  0  0  0  0  0  0
    9.0603   23.3428    1.8100 C   0  0  0  0  0  0  0  0  0  0  0  0
    8.8695   22.9544    0.5018 C   0  0  0  0  0  0  0  0  0  0  0  0
    9.8197   23.2938   -0.4637 C   0  0  0  0  0  0  0  0  0  0  0  0
    8.0684   23.0217    2.8979 C   0  0  0  0  0  0  0  0  0  0  0  0
    8.7319   22.7926    4.0919 F   0  0  0  0  0  0  0  0  0  0  0  0
    7.3198   21.9205    2.6107 F   0  0  0  0  0  0  0  0  0  0  0  0
    7.3124   24.1724    3.1042 F   0  0  0  0  0  0  0  0  0  0  0  0
   15.4903   22.4867   -1.9504 N   0  0  0  0  0  0  0  0  0  0  0  0
   15.9746   21.5639   -2.0081 H   0  0  0  0  0  0  0  0  0  0  0  0
   15.5948   23.3414   -0.8169 C   0  0  0  0  0  0  0  0  0  0  0  0
   16.6224   24.2676   -0.7366 C   0  0  0  0  0  0  0  0  0  0  0  0
   16.6542   25.1146    0.3444 C   0  0  0  0  0  0  0  0  0  0  0  0
   15.7281   25.0998    1.3569 C   0  0  0  0  0  0  0  0  0  0  0  0
   14.6931   24.1760    1.2915 C   0  0  0  0  0  0  0  0  0  0  0  0
   14.6481   23.3212    0.2122 C   0  0  0  0  0  0  0  0  0  0  0  0
  1  2  1  0  0  0
  2  3  2  0  0  0
  2  4  1  0  0  0
  4  5  1  0  0  0
  5  6  2  0  0  0
  6  7  1  0  0  0
  7  8  2  0  0  0
  8 15  1  0  0  0
 15 16  2  0  0  0
 16 17  1  0  0  0
 17 18  2  0  0  0
 18 21  1  0  0  0
 21 22  1  0  0  0
 21 23  1  0  0  0
 21 24  1  0  0  0
 18 19  1  0  0  0
 19 20  2  0  0  0
  8  9  1  0  0  0
  9 10  2  0  0  0
 10 11  1  0  0  0
 11 25  1  0  0  0
 25 27  1  0  0  0
 27 28  2  0  0  0
 28 29  1  0  0  0
 29 30  2  0  0  0
 30 31  1  0  0  0
 31 32  2  0  0  0
 11 12  1  0  0  0
 12 13  1  0  0  0
 13 14  1  0  0  0
 13  4  1  0  0  0
 10  5  1  0  0  0
 32 27  1  0  0  0
 20 15  1  0  0  0
 25 26  1  0  0  0
M  END
> <minimizedAffinity>
-2.21167

> <CNNscore>
0.4494705498

> <CNNaffinity>
7.2582702637

> <CNN_VS>
3.2623786926

> <CNNaffinity_variance>
0.3788062930

$$$$
[H]c1c([H])c([H])c(N([H])[C@@]2([H])c3c([H])c(-c4c([H])c([H])c(C(F)(F)F)c([H])c4[H])c([H])c([H])c3N(C(=O)C([H])([H])[H])[C@@]([H])(C([H])([H])[H])C2([H])[H])c([H])c1[H]


 32 35  0  0  0  0  0  0  0  0999 V2000
   16.0113   20.4607    1.1484 C   0  0  0  0  0  0  0  0  0  0  0  0
   14.5798   20.5074    1.4733 C   0  0  0  0  0  0  0  0  0  0  0  0
   14.1974   19.8609    2.5076 O   0  0  0  0  0  0  0  0  0  0  0  0
   13.6282   21.2112    0.7080 N   0  0  0  0  0  0  0  0  0  0  0  0
   13.8837   22.1595   -0.3059 C   0  0  0  0  0  0  0  0  0  0  0  0
   15.0290   22.9440   -0.2291 C   0  0  0  0  0  0  0  0  0  0  0  0
   15.2862   23.8041   -1.2698 C   0  0  0  0  0  0  0  0  0  0  0  0
   14.4845   23.9446   -2.3864 C   0  0  0  0  0  0  0  0  0  0  0  0
   13.3561   23.1617   -2.4295 C   0  0  0  0  0  0  0  0  0  0  0  0
   13.0532   22.2711   -1.3942 C   0  0  0  0  0  0  0  0  0  0  0  0
   11.7865   21.5395   -1.5238 C   0  0  0  0  0  0  0  0  0  0  0  0
   11.5624   20.5476   -0.4162 C   0  0  0  0  0  0  0  0  0  0  0  0
   12.1941   20.9061    0.8866 C   0  0  0  0  0  0  0  0  0  0  0  0
   11.5328   21.9460    1.7109 C   0  0  0  0  0  0  0  0  0  0  0  0
   14.8173   24.8500   -3.4913 C   0  0  0  0  0  0  0  0  0  0  0  0
   14.8545   26.2220   -3.2814 C   0  0  0  0  0  0  0  0  0  0  0  0
   15.2105   27.1215   -4.2613 C   0  0  0  0  0  0  0  0  0  0  0  0
   15.5431   26.6322   -5.5169 C   0  0  0  0  0  0  0  0  0  0  0  0
   15.5146   25.2768   -5.7629 C   0  0  0  0  0  0  0  0  0  0  0  0
   15.1491   24.3981   -4.7408 C   0  0  0  0  0  0  0  0  0  0  0  0
   15.9413   27.6335   -6.5703 C   0  0  0  0  0  0  0  0  0  0  0  0
   16.4946   28.7544   -5.9739 F   0  0  0  0  0  0  0  0  0  0  0  0
   14.8854   28.0355   -7.3312 F   0  0  0  0  0  0  0  0  0  0  0  0
   16.9711   27.0536   -7.3062 F   0  0  0  0  0  0  0  0  0  0  0  0
   10.6970   22.5372   -1.5092 N   0  0  0  0  0  0  0  0  0  0  0  0
   10.6989   23.2372   -2.2834 H   0  0  0  0  0  0  0  0  0  0  0  0
    9.7128   22.5293   -0.4808 C   0  0  0  0  0  0  0  0  0  0  0  0
    8.9219   21.4086   -0.2836 C   0  0  0  0  0  0  0  0  0  0  0  0
    8.0252   21.4179    0.7570 C   0  0  0  0  0  0  0  0  0  0  0  0
    7.8608   22.4742    1.6173 C   0  0  0  0  0  0  0  0  0  0  0  0
    8.6450   23.6053    1.4315 C   0  0  0  0  0  0  0  0  0  0  0  0
    9.5496   23.6092    0.3925 C   0  0  0  0  0  0  0  0  0  0  0  0
  1  2  1  0  0  0
  2  3  2  0  0  0
  2  4  1  0  0  0
  4  5  1  0  0  0
  5  6  2  0  0  0
  6  7  1  0  0  0
  7  8  2  0  0  0
  8 15  1  0  0  0
 15 16  2  0  0  0
 16 17  1  0  0  0
 17 18  2  0  0  0
 18 21  1  0  0  0
 21 22  1  0  0  0
 21 23  1  0  0  0
 21 24  1  0  0  0
 18 19  1  0  0  0
 19 20  2  0  0  0
  8  9  1  0  0  0
  9 10  2  0  0  0
 10 11  1  0  0  0
 11 25  1  0  0  0
 25 27  1  0  0  0
 27 28  2  0  0  0
 28 29  1  0  0  0
 29 30  2  0  0  0
 30 31  1  0  0  0
 31 32  2  0  0  0
 11 12  1  0  0  0
 12 13  1  0  0  0
 13 14  1  0  0  0
 13  4  1  0  0  0
 10  5  1  0  0  0
 32 27  1  0  0  0
 20 15  1  0  0  0
 25 26  1  0  0  0
M  END
> <minimizedAffinity>
-1.34249

> <CNNscore>
0.4406197667

> <CNNaffinity>
7.1738982201

> <CNN_VS>
3.1609613895

> <CNNaffinity_variance>
0.6188145876

$$$$
[H]c1c([H])c([H])c(N([H])[C@@]2([H])c3c([H])c(-c4c([H])c([H])c(C(F)(F)F)c([H])c4[H])c([H])c([H])c3N(C(=O)C([H])([H])[H])[C@@]([H])(C([H])([H])[H])C2([H])[H])c([H])c1[H]


 32 35  0  0  0  0  0  0  0  0999 V2000
   15.1355   20.1914   -4.5446 C   0  0  0  0  0  0  0  0  0  0  0  0
   15.4229   21.6140   -4.7688 C   0  0  0  0  0  0  0  0  0  0  0  0
   15.9139   21.9357   -5.9044 O   0  0  0  0  0  0  0  0  0  0  0  0
   15.1941   22.6178   -3.8062 N   0  0  0  0  0  0  0  0  0  0  0  0
   14.4518   22.4986   -2.6114 C   0  0  0  0  0  0  0  0  0  0  0  0
   13.3807   21.6134   -2.5627 C   0  0  0  0  0  0  0  0  0  0  0  0
   12.7263   21.4665   -1.3632 C   0  0  0  0  0  0  0  0  0  0  0  0
   13.0579   22.1387   -0.2024 C   0  0  0  0  0  0  0  0  0  0  0  0
   14.1155   23.0121   -0.2843 C   0  0  0  0  0  0  0  0  0  0  0  0
   14.8125   23.1943   -1.4833 C   0  0  0  0  0  0  0  0  0  0  0  0
   15.8794   24.2032   -1.4614 C   0  0  0  0  0  0  0  0  0  0  0  0
   16.6336   24.2921   -2.7591 C   0  0  0  0  0  0  0  0  0  0  0  0
   15.8427   23.9344   -3.9722 C   0  0  0  0  0  0  0  0  0  0  0  0
   14.8783   24.9359   -4.4869 C   0  0  0  0  0  0  0  0  0  0  0  0
   12.3536   21.9234    1.0661 C   0  0  0  0  0  0  0  0  0  0  0  0
   11.4181   22.8485    1.5099 C   0  0  0  0  0  0  0  0  0  0  0  0
   10.6854   22.6800    2.6636 C   0  0  0  0  0  0  0  0  0  0  0  0
   10.8962   21.5342    3.4178 C   0  0  0  0  0  0  0  0  0  0  0  0
   11.8188   20.5955    3.0100 C   0  0  0  0  0  0  0  0  0  0  0  0
   12.5403   20.8041    1.8326 C   0  0  0  0  0  0  0  0  0  0  0  0
   10.0748   21.3648    4.6697 C   0  0  0  0  0  0  0  0  0  0  0  0
    8.8204   20.8720    4.3506 F   0  0  0  0  0  0  0  0  0  0  0  0
    9.9109   22.5354    5.3466 F   0  0  0  0  0  0  0  0  0  0  0  0
   10.6895   20.3667    5.4210 F   0  0  0  0  0  0  0  0  0  0  0  0
   15.2473   25.5079   -1.1773 N   0  0  0  0  0  0  0  0  0  0  0  0
   15.5788   26.0075   -0.3230 H   0  0  0  0  0  0  0  0  0  0  0  0
   14.2377   26.0323   -2.0329 C   0  0  0  0  0  0  0  0  0  0  0  0
   14.5737   26.9203   -3.0424 C   0  0  0  0  0  0  0  0  0  0  0  0
   13.5801   27.3572   -3.8843 C   0  0  0  0  0  0  0  0  0  0  0  0
   12.2676   26.9692   -3.7868 C   0  0  0  0  0  0  0  0  0  0  0  0
   11.9148   26.0810   -2.7790 C   0  0  0  0  0  0  0  0  0  0  0  0
   12.9015   25.6335   -1.9281 C   0  0  0  0  0  0  0  0  0  0  0  0
  1  2  1  0  0  0
  2  3  2  0  0  0
  2  4  1  0  0  0
  4  5  1  0  0  0
  5  6  2  0  0  0
  6  7  1  0  0  0
  7  8  2  0  0  0
  8 15  1  0  0  0
 15 16  2  0  0  0
 16 17  1  0  0  0
 17 18  2  0  0  0
 18 21  1  0  0  0
 21 22  1  0  0  0
 21 23  1  0  0  0
 21 24  1  0  0  0
 18 19  1  0  0  0
 19 20  2  0  0  0
  8  9  1  0  0  0
  9 10  2  0  0  0
 10 11  1  0  0  0
 11 25  1  0  0  0
 25 27  1  0  0  0
 27 28  2  0  0  0
 28 29  1  0  0  0
 29 30  2  0  0  0
 30 31  1  0  0  0
 31 32  2  0  0  0
 11 12  1  0  0  0
 12 13  1  0  0  0
 13 14  1  0  0  0
 13  4  1  0  0  0
 10  5  1  0  0  0
 32 27  1  0  0  0
 20 15  1  0  0  0
 25 26  1  0  0  0
M  END
> <minimizedAffinity>
5.11632

> <CNNscore>
0.4210661054

> <CNNaffinity>
6.9074592590

> <CNN_VS>
2.9084968567

> <CNNaffinity_variance>
0.8635376096

$$$$
[H]c1c([H])c([H])c(N([H])[C@@]2([H])c3c([H])c(-c4c([H])c([H])c(C(F)(F)F)c([H])c4[H])c([H])c([H])c3N(C(=O)C([H])([H])[H])[C@@]([H])(C([H])([H])[H])C2([H])[H])c([H])c1[H]


 32 35  0  0  0  0  0  0  0  0999 V2000
   17.2832   23.5410   -6.8902 C   0  0  0  0  0  0  0  0  0  0  0  0
   16.5504   24.8129   -6.9352 C   0  0  0  0  0  0  0  0  0  0  0  0
   16.7060   25.5366   -7.9774 O   0  0  0  0  0  0  0  0  0  0  0  0
   15.7077   25.2654   -5.8999 N   0  0  0  0  0  0  0  0  0  0  0  0
   15.2296   24.5170   -4.8026 C   0  0  0  0  0  0  0  0  0  0  0  0
   15.0205   23.1507   -4.9519 C   0  0  0  0  0  0  0  0  0  0  0  0
   14.6262   22.4390   -3.8442 C   0  0  0  0  0  0  0  0  0  0  0  0
   14.4218   22.9877   -2.5926 C   0  0  0  0  0  0  0  0  0  0  0  0
   14.6289   24.3412   -2.4787 C   0  0  0  0  0  0  0  0  0  0  0  0
   15.0313   25.1068   -3.5781 C   0  0  0  0  0  0  0  0  0  0  0  0
   15.1546   26.5517   -3.3465 C   0  0  0  0  0  0  0  0  0  0  0  0
   15.6621   27.3004   -4.5476 C   0  0  0  0  0  0  0  0  0  0  0  0
   15.3148   26.6887   -5.8630 C   0  0  0  0  0  0  0  0  0  0  0  0
   13.9301   26.8663   -6.3622 C   0  0  0  0  0  0  0  0  0  0  0  0
   14.0357   22.1829   -1.4287 C   0  0  0  0  0  0  0  0  0  0  0  0
   14.2144   22.6823   -0.1455 C   0  0  0  0  0  0  0  0  0  0  0  0
   13.8252   22.0004    0.9858 C   0  0  0  0  0  0  0  0  0  0  0  0
   13.2311   20.7553    0.8342 C   0  0  0  0  0  0  0  0  0  0  0  0
   13.0403   20.2265   -0.4238 C   0  0  0  0  0  0  0  0  0  0  0  0
   13.4483   20.9514   -1.5455 C   0  0  0  0  0  0  0  0  0  0  0  0
   12.8021   20.0325    2.0849 C   0  0  0  0  0  0  0  0  0  0  0  0
   12.5039   20.9464    3.0820 F   0  0  0  0  0  0  0  0  0  0  0  0
   13.7644   19.1908    2.5551 F   0  0  0  0  0  0  0  0  0  0  0  0
   11.6000   19.3959    1.7882 F   0  0  0  0  0  0  0  0  0  0  0  0
   13.8130   27.0578   -2.9907 N   0  0  0  0  0  0  0  0  0  0  0  0
   13.5545   27.9944   -3.3721 H   0  0  0  0  0  0  0  0  0  0  0  0
   12.9397   26.2949   -2.1651 C   0  0  0  0  0  0  0  0  0  0  0  0
   11.9331   25.5321   -2.7355 C   0  0  0  0  0  0  0  0  0  0  0  0
   11.1496   24.7634   -1.9095 C   0  0  0  0  0  0  0  0  0  0  0  0
   11.3003   24.7046   -0.5469 C   0  0  0  0  0  0  0  0  0  0  0  0
   12.3037   25.4649    0.0397 C   0  0  0  0  0  0  0  0  0  0  0  0
   13.0980   26.2395   -0.7768 C   0  0  0  0  0  0  0  0  0  0  0  0
  1  2  1  0  0  0
  2  3  2  0  0  0
  2  4  1  0  0  0
  4  5  1  0  0  0
  5  6  2  0  0  0
  6  7  1  0  0  0
  7  8  2  0  0  0
  8 15  1  0  0  0
 15 16  2  0  0  0
 16 17  1  0  0  0
 17 18  2  0  0  0
 18 21  1  0  0  0
 21 22  1  0  0  0
 21 23  1  0  0  0
 21 24  1  0  0  0
 18 19  1  0  0  0
 19 20  2  0  0  0
  8  9  1  0  0  0
  9 10  2  0  0  0
 10 11  1  0  0  0
 11 25  1  0  0  0
 25 27  1  0  0  0
 27 28  2  0  0  0
 28 29  1  0  0  0
 29 30  2  0  0  0
 30 31  1  0  0  0
 31 32  2  0  0  0
 11 12  1  0  0  0
 12 13  1  0  0  0
 13 14  1  0  0  0
 13  4  1  0  0  0
 10  5  1  0  0  0
 32 27  1  0  0  0
 20 15  1  0  0  0
 25 26  1  0  0  0
M  END
> <minimizedAffinity>
5.86068

> <CNNscore>
0.4185655415

> <CNNaffinity>
6.9985122681

> <CNN_VS>
2.9293360710

> <CNNaffinity_variance>
0.4280226827

$$$$
[H]c1nc(OC2([H])C([H])([H])[C@@]3([H])N(C(=O)OC(C([H])([H])[H])(C([H])([H])[H])C([H])([H])[H])[C@]([H])(C2([H])[H])C([H])([H])C3([H])[H])c([N+](=O)[O-])c(N([H])c2c([H])c([H])c(S(=O)(=O)C([H])([H])[H])c([H])c2[H])n1


 37 40  0  0  0  0  0  0  0  0999 V2000
   12.4817   21.7789    1.2477 C   0  0  0  0  0  0  0  0  0  0  0  0
   13.7040   20.9120    1.3150 N   0  0  0  0  0  0  0  0  0  0  0  0
   15.0358   21.4593    0.8947 C   0  0  0  0  0  0  0  0  0  0  0  0
   15.1454   22.8737    0.4072 N   0  0  0  0  0  0  0  0  0  0  0  0
   13.9231   23.7406    0.3399 C   0  0  0  0  0  0  0  0  0  0  0  0
   12.5913   23.1933    0.7602 C   0  0  0  0  0  0  0  0  0  0  0  0
   11.3691   24.0602    0.6929 N   0  0  0  0  0  0  0  0  0  0  0  0
   10.6149   24.1946   -0.5967 O   0  0  0  0  0  0  0  0  0  0  0  0
   10.6388   24.9109    1.6894 O   0  0  0  0  0  0  0  0  0  0  0  0
   14.0327   25.1550   -0.1476 N   0  0  0  0  0  0  0  0  0  0  0  0
   13.7975   26.2948    0.7987 H   0  0  0  0  0  0  0  0  0  0  0  0
   14.3775   25.4294   -1.5814 C   0  0  0  0  0  0  0  0  0  0  0  0
   15.8043   25.3525   -2.0377 C   0  0  0  0  0  0  0  0  0  0  0  0
   16.1490   25.6269   -3.4715 C   0  0  0  0  0  0  0  0  0  0  0  0
   15.0669   25.9783   -4.4491 C   0  0  0  0  0  0  0  0  0  0  0  0
   13.6401   26.0552   -3.9927 C   0  0  0  0  0  0  0  0  0  0  0  0
   13.2954   25.7808   -2.5590 C   0  0  0  0  0  0  0  0  0  0  0  0
   15.4116   26.2527   -5.8829 S   0  0  0  0  0  0  0  0  0  0  0  0
   15.7563   26.5272   -7.3168 C   0  0  0  0  0  0  0  0  0  0  0  0
   15.5699   24.7811   -6.1265 O   0  0  0  0  0  0  0  0  0  0  0  0
   15.2533   27.7243   -5.6393 O   0  0  0  0  0  0  0  0  0  0  0  0
   11.1499   21.2316    1.6680 O   0  0  0  0  0  0  0  0  0  0  0  0
   10.2956   20.7814    0.7327 C   0  0  0  0  0  0  0  0  0  0  0  0
   11.4604   20.0416    0.1446 O   0  0  0  0  0  0  0  0  0  0  0  0
    8.8462   20.9037    0.3660 N   0  0  0  0  0  0  0  0  0  0  0  0
    7.8166   21.7120    1.0984 C   0  0  0  0  0  0  0  0  0  0  0  0
    6.5061   21.5471    0.3875 C   0  0  0  0  0  0  0  0  0  0  0  0
    6.7258   20.6369   -0.7844 C   0  0  0  0  0  0  0  0  0  0  0  0
    8.1721   20.2392   -0.7976 C   0  0  0  0  0  0  0  0  0  0  0  0
    9.6465   20.0131   -0.5645 C   0  0  0  0  0  0  0  0  0  0  0  0
   10.1808   20.7403    0.6337 C   0  0  0  0  0  0  0  0  0  0  0  0
    9.2659   21.5897    1.4652 C   0  0  0  0  0  0  0  0  0  0  0  0
   10.8299   21.5085    1.9309 O   0  0  0  0  0  0  0  0  0  0  0  0
   11.3872   19.6628    2.8156 C   0  0  0  0  0  0  0  0  0  0  0  0
   10.6954   20.9036    3.2969 C   0  0  0  0  0  0  0  0  0  0  0  0
   10.0036   22.1445    3.7783 C   0  0  0  0  0  0  0  0  0  0  0  0
   10.5608   20.2987    4.6630 C   0  0  0  0  0  0  0  0  0  0  0  0
 34 35  1  0  0  0
 35 36  1  0  0  0
 35 37  1  0  0  0
 35 33  1  0  0  0
 33 23  1  0  0  0
 23 24  2  0  0  0
 23 25  1  0  0  0
 25 26  1  0  0  0
 26 27  1  0  0  0
 27 28  1  0  0  0
 28 29  1  0  0  0
 29 30  1  0  0  0
 30 31  1  0  0  0
 31 22  1  0  0  0
 22  1  1  0  0  0
  1  2  2  0  0  0
  2  3  1  0  0  0
  3  4  2  0  0  0
  4  5  1  0  0  0
  5 10  1  0  0  0
 10 12  1  0  0  0
 12 13  2  0  0  0
 13 14  1  0  0  0
 14 15  2  0  0  0
 15 18  1  0  0  0
 18 19  1  0  0  0
 18 20  2  0  0  0
 18 21  2  0  0  0
 15 16  1  0  0  0
 16 17  2  0  0  0
  5  6  2  0  0  0
  6  7  1  0  0  0
  7  8  2  0  0  0
  7  9  1  0  0  0
 31 32  1  0  0  0
 29 25  1  0  0  0
  6  1  1  0  0  0
 32 26  1  0  0  0
 17 12  1  0  0  0
 10 11  1  0  0  0
M  CHG 1   7   1
M  CHG 1   9  -1
M  END
> <minimizedAffinity>
-9.08599

> <CNNscore>
0.3923481703

> <CNNaffinity>
7.1356801987

> <CNN_VS>
2.7996711731

> <CNNaffinity_variance>
0.1935613751

$$$$
[H]c1nc(OC2([H])C([H])([H])[C@@]3([H])N(C(=O)OC(C([H])([H])[H])(C([H])([H])[H])C([H])([H])[H])[C@]([H])(C2([H])[H])C([H])([H])C3([H])[H])c([N+](=O)[O-])c(N([H])c2c([H])c([H])c(S(=O)(=O)C([H])([H])[H])c([H])c2[H])n1


 37 40  0  0  0  0  0  0  0  0999 V2000
   12.0703   21.6110    1.0410 C   0  0  0  0  0  0  0  0  0  0  0  0
   13.1430   20.5652    1.1167 N   0  0  0  0  0  0  0  0  0  0  0  0
   14.5715   20.9353    0.8480 C   0  0  0  0  0  0  0  0  0  0  0  0
   14.9275   22.3512    0.5036 N   0  0  0  0  0  0  0  0  0  0  0  0
   13.8549   23.3970    0.4279 C   0  0  0  0  0  0  0  0  0  0  0  0
   12.4263   23.0269    0.6966 C   0  0  0  0  0  0  0  0  0  0  0  0
   11.3537   24.0727    0.6209 N   0  0  0  0  0  0  0  0  0  0  0  0
   10.7242   24.4072   -0.6989 O   0  0  0  0  0  0  0  0  0  0  0  0
   10.6858   24.9557    1.6330 O   0  0  0  0  0  0  0  0  0  0  0  0
   14.2108   24.8129    0.0835 N   0  0  0  0  0  0  0  0  0  0  0  0
   14.2717   25.8543    1.1614 H   0  0  0  0  0  0  0  0  0  0  0  0
   14.5058   25.1872   -1.3387 C   0  0  0  0  0  0  0  0  0  0  0  0
   15.9243   25.2282   -1.8248 C   0  0  0  0  0  0  0  0  0  0  0  0
   16.2192   25.6026   -3.2470 C   0  0  0  0  0  0  0  0  0  0  0  0
   15.0957   25.9360   -4.1832 C   0  0  0  0  0  0  0  0  0  0  0  0
   13.6772   25.8951   -3.6972 C   0  0  0  0  0  0  0  0  0  0  0  0
   13.3823   25.5207   -2.2750 C   0  0  0  0  0  0  0  0  0  0  0  0
   15.3906   26.3104   -5.6055 S   0  0  0  0  0  0  0  0  0  0  0  0
   15.6856   26.6848   -7.0278 C   0  0  0  0  0  0  0  0  0  0  0  0
   15.2628   27.7621   -5.2499 O   0  0  0  0  0  0  0  0  0  0  0  0
   15.5185   24.8588   -5.9611 O   0  0  0  0  0  0  0  0  0  0  0  0
   10.6417   21.2410    1.3097 O   0  0  0  0  0  0  0  0  0  0  0  0
   10.2150   21.1225    2.5790 C   0  0  0  0  0  0  0  0  0  0  0  0
   11.3096   20.1138    2.7645 O   0  0  0  0  0  0  0  0  0  0  0  0
    9.1554   21.6876    3.4778 N   0  0  0  0  0  0  0  0  0  0  0  0
    8.1294   22.7127    3.0952 C   0  0  0  0  0  0  0  0  0  0  0  0
    7.2756   22.9854    4.2981 C   0  0  0  0  0  0  0  0  0  0  0  0
    7.7741   22.1288    5.4241 C   0  0  0  0  0  0  0  0  0  0  0  0
    8.9358   21.3268    4.9171 C   0  0  0  0  0  0  0  0  0  0  0  0
   10.0523   20.6640    4.1467 C   0  0  0  0  0  0  0  0  0  0  0  0
   10.1504   21.1233    2.7221 C   0  0  0  0  0  0  0  0  0  0  0  0
    9.1890   22.1476    2.1964 C   0  0  0  0  0  0  0  0  0  0  0  0
   10.3132   21.5817    1.1544 O   0  0  0  0  0  0  0  0  0  0  0  0
   10.4841   19.7369    0.1213 C   0  0  0  0  0  0  0  0  0  0  0  0
    9.5218   20.8870    0.0862 C   0  0  0  0  0  0  0  0  0  0  0  0
    8.5595   22.0371    0.0511 C   0  0  0  0  0  0  0  0  0  0  0  0
    8.7304   20.1923   -0.9820 C   0  0  0  0  0  0  0  0  0  0  0  0
 34 35  1  0  0  0
 35 36  1  0  0  0
 35 37  1  0  0  0
 35 33  1  0  0  0
 33 23  1  0  0  0
 23 24  2  0  0  0
 23 25  1  0  0  0
 25 26  1  0  0  0
 26 27  1  0  0  0
 27 28  1  0  0  0
 28 29  1  0  0  0
 29 30  1  0  0  0
 30 31  1  0  0  0
 31 22  1  0  0  0
 22  1  1  0  0  0
  1  2  2  0  0  0
  2  3  1  0  0  0
  3  4  2  0  0  0
  4  5  1  0  0  0
  5 10  1  0  0  0
 10 12  1  0  0  0
 12 13  2  0  0  0
 13 14  1  0  0  0
 14 15  2  0  0  0
 15 18  1  0  0  0
 18 19  1  0  0  0
 18 20  2  0  0  0
 18 21  2  0  0  0
 15 16  1  0  0  0
 16 17  2  0  0  0
  5  6  2  0  0  0
  6  7  1  0  0  0
  7  8  2  0  0  0
  7  9  1  0  0  0
 31 32  1  0  0  0
 29 25  1  0  0  0
  6  1  1  0  0  0
 32 26  1  0  0  0
 17 12  1  0  0  0
 10 11  1  0  0  0
M  CHG 1   7   1
M  CHG 1   9  -1
M  END
> <minimizedAffinity>
-9.14441

> <CNNscore>
0.3698509336

> <CNNaffinity>
7.0720796585

> <CNN_VS>
2.6156153679

> <CNNaffinity_variance>
0.2574170530

$$$$
[H]c1nc(OC2([H])C([H])([H])[C@@]3([H])N(C(=O)OC(C([H])([H])[H])(C([H])([H])[H])C([H])([H])[H])[C@]([H])(C2([H])[H])C([H])([H])C3([H])[H])c([N+](=O)[O-])c(N([H])c2c([H])c([H])c(S(=O)(=O)C([H])([H])[H])c([H])c2[H])n1


 37 40  0  0  0  0  0  0  0  0999 V2000
   12.6595   22.0884    0.8369 C   0  0  0  0  0  0  0  0  0  0  0  0
   13.3936   20.8042    1.0851 N   0  0  0  0  0  0  0  0  0  0  0  0
   14.8864   20.7547    0.9466 C   0  0  0  0  0  0  0  0  0  0  0  0
   15.6450   21.9896    0.5598 N   0  0  0  0  0  0  0  0  0  0  0  0
   14.9109   23.2739    0.3115 C   0  0  0  0  0  0  0  0  0  0  0  0
   13.4182   23.3233    0.4501 C   0  0  0  0  0  0  0  0  0  0  0  0
   12.6840   24.6076    0.2019 N   0  0  0  0  0  0  0  0  0  0  0  0
   12.1302   24.9037   -1.1604 O   0  0  0  0  0  0  0  0  0  0  0  0
   12.3291   25.7873    1.0577 O   0  0  0  0  0  0  0  0  0  0  0  0
   15.6695   24.5088   -0.0753 N   0  0  0  0  0  0  0  0  0  0  0  0
   16.4316   25.2769    0.9635 H   0  0  0  0  0  0  0  0  0  0  0  0
   15.6660   24.9753   -1.5008 C   0  0  0  0  0  0  0  0  0  0  0  0
   14.8847   24.2206   -2.5352 C   0  0  0  0  0  0  0  0  0  0  0  0
   14.8813   24.6872   -3.9607 C   0  0  0  0  0  0  0  0  0  0  0  0
   15.6591   25.9087   -4.3520 C   0  0  0  0  0  0  0  0  0  0  0  0
   16.4404   26.6635   -3.3176 C   0  0  0  0  0  0  0  0  0  0  0  0
   16.4439   26.1968   -1.8921 C   0  0  0  0  0  0  0  0  0  0  0  0
   15.6557   26.3753   -5.7775 S   0  0  0  0  0  0  0  0  0  0  0  0
   15.6522   26.8420   -7.2031 C   0  0  0  0  0  0  0  0  0  0  0  0
   15.7236   27.7995   -5.3115 O   0  0  0  0  0  0  0  0  0  0  0  0
   15.5878   24.9511   -6.2436 O   0  0  0  0  0  0  0  0  0  0  0  0
   11.1667   22.1380    0.9754 O   0  0  0  0  0  0  0  0  0  0  0  0
   10.6234   22.5094    2.1476 C   0  0  0  0  0  0  0  0  0  0  0  0
   11.5521   21.5250    2.7945 O   0  0  0  0  0  0  0  0  0  0  0  0
    9.5787   23.4525    2.6665 N   0  0  0  0  0  0  0  0  0  0  0  0
    8.7363   24.3772    1.8386 C   0  0  0  0  0  0  0  0  0  0  0  0
    7.8299   25.1326    2.7647 C   0  0  0  0  0  0  0  0  0  0  0  0
    8.1121   24.6748    4.1650 C   0  0  0  0  0  0  0  0  0  0  0  0
    9.1929   23.6364    4.1043 C   0  0  0  0  0  0  0  0  0  0  0  0
   10.2698   22.6411    3.7451 C   0  0  0  0  0  0  0  0  0  0  0  0
   10.5478   22.5661    2.2730 C   0  0  0  0  0  0  0  0  0  0  0  0
    9.7811   23.4341    1.3198 C   0  0  0  0  0  0  0  0  0  0  0  0
   10.9014   22.4344    0.6756 O   0  0  0  0  0  0  0  0  0  0  0  0
   10.2310   20.4285    0.8396 C   0  0  0  0  0  0  0  0  0  0  0  0
   10.1013   21.5091   -0.1926 C   0  0  0  0  0  0  0  0  0  0  0  0
    9.9717   22.5898   -1.2248 C   0  0  0  0  0  0  0  0  0  0  0  0
    9.3012   20.5839   -1.0608 C   0  0  0  0  0  0  0  0  0  0  0  0
 34 35  1  0  0  0
 35 36  1  0  0  0
 35 37  1  0  0  0
 35 33  1  0  0  0
 33 23  1  0  0  0
 23 24  2  0  0  0
 23 25  1  0  0  0
 25 26  1  0  0  0
 26 27  1  0  0  0
 27 28  1  0  0  0
 28 29  1  0  0  0
 29 30  1  0  0  0
 30 31  1  0  0  0
 31 22  1  0  0  0
 22  1  1  0  0  0
  1  2  2  0  0  0
  2  3  1  0  0  0
  3  4  2  0  0  0
  4  5  1  0  0  0
  5 10  1  0  0  0
 10 12  1  0  0  0
 12 13  2  0  0  0
 13 14  1  0  0  0
 14 15  2  0  0  0
 15 18  1  0  0  0
 18 19  1  0  0  0
 18 20  2  0  0  0
 18 21  2  0  0  0
 15 16  1  0  0  0
 16 17  2  0  0  0
  5  6  2  0  0  0
  6  7  1  0  0  0
  7  8  2  0  0  0
  7  9  1  0  0  0
 31 32  1  0  0  0
 29 25  1  0  0  0
  6  1  1  0  0  0
 32 26  1  0  0  0
 17 12  1  0  0  0
 10 11  1  0  0  0
M  CHG 1   7   1
M  CHG 1   9  -1
M  END
> <minimizedAffinity>
-8.33360

> <CNNscore>
0.3380020559

> <CNNaffinity>
7.2000780106

> <CNN_VS>
2.4336411953

> <CNNaffinity_variance>
0.1121846884

$$$$
[H]c1nc(OC2([H])C([H])([H])[C@@]3([H])N(C(=O)OC(C([H])([H])[H])(C([H])([H])[H])C([H])([H])[H])[C@]([H])(C2([H])[H])C([H])([H])C3([H])[H])c([N+](=O)[O-])c(N([H])c2c([H])c([H])c(S(=O)(=O)C([H])([H])[H])c([H])c2[H])n1


 37 40  0  0  0  0  0  0  0  0999 V2000
   12.2171   22.1204    0.4140 C   0  0  0  0  0  0  0  0  0  0  0  0
   12.7842   20.7895    0.8104 N   0  0  0  0  0  0  0  0  0  0  0  0
   14.2699   20.6047    0.9019 C   0  0  0  0  0  0  0  0  0  0  0  0
   15.1886   21.7507    0.5972 N   0  0  0  0  0  0  0  0  0  0  0  0
   14.6214   23.0816    0.2008 C   0  0  0  0  0  0  0  0  0  0  0  0
   13.1357   23.2664    0.1093 C   0  0  0  0  0  0  0  0  0  0  0  0
   12.5685   24.5973   -0.2870 N   0  0  0  0  0  0  0  0  0  0  0  0
   12.4427   25.6921    0.7307 O   0  0  0  0  0  0  0  0  0  0  0  0
   12.0435   25.1654   -1.5722 O   0  0  0  0  0  0  0  0  0  0  0  0
   15.5400   24.2276   -0.1039 N   0  0  0  0  0  0  0  0  0  0  0  0
   16.3881   24.8185    0.9831 H   0  0  0  0  0  0  0  0  0  0  0  0
   15.6105   24.7826   -1.4957 C   0  0  0  0  0  0  0  0  0  0  0  0
   14.9269   24.0681   -2.6236 C   0  0  0  0  0  0  0  0  0  0  0  0
   14.9974   24.6232   -4.0153 C   0  0  0  0  0  0  0  0  0  0  0  0
   15.7516   25.8927   -4.2791 C   0  0  0  0  0  0  0  0  0  0  0  0
   16.4352   26.6071   -3.1512 C   0  0  0  0  0  0  0  0  0  0  0  0
   16.3647   26.0521   -1.7595 C   0  0  0  0  0  0  0  0  0  0  0  0
   15.8221   26.4478   -5.6708 S   0  0  0  0  0  0  0  0  0  0  0  0
   15.8927   27.0029   -7.0626 C   0  0  0  0  0  0  0  0  0  0  0  0
   15.4770   25.0980   -6.2267 O   0  0  0  0  0  0  0  0  0  0  0  0
   16.1673   27.7976   -5.1150 O   0  0  0  0  0  0  0  0  0  0  0  0
   10.7314   22.3054    0.3225 O   0  0  0  0  0  0  0  0  0  0  0  0
   10.0390   21.6427   -0.6202 C   0  0  0  0  0  0  0  0  0  0  0  0
   11.0368   22.1728   -1.6069 O   0  0  0  0  0  0  0  0  0  0  0  0
    8.8291   20.7631   -0.7322 N   0  0  0  0  0  0  0  0  0  0  0  0
    7.9410   20.3372    0.3991 C   0  0  0  0  0  0  0  0  0  0  0  0
    6.8580   19.4657   -0.1645 C   0  0  0  0  0  0  0  0  0  0  0  0
    7.0768   19.3531   -1.6442 C   0  0  0  0  0  0  0  0  0  0  0  0
    8.2950   20.1549   -1.9950 C   0  0  0  0  0  0  0  0  0  0  0  0
    9.5298   21.0217   -2.0519 C   0  0  0  0  0  0  0  0  0  0  0  0
    9.9452   21.5591   -0.7144 C   0  0  0  0  0  0  0  0  0  0  0  0
    9.1508   21.2168    0.5110 C   0  0  0  0  0  0  0  0  0  0  0  0
   10.4544   22.1801    0.7171 O   0  0  0  0  0  0  0  0  0  0  0  0
    9.4518   23.9258    0.0481 C   0  0  0  0  0  0  0  0  0  0  0  0
    9.6452   23.2572    1.3769 C   0  0  0  0  0  0  0  0  0  0  0  0
    9.8387   22.5886    2.7056 C   0  0  0  0  0  0  0  0  0  0  0  0
    8.8361   24.3342    2.0366 C   0  0  0  0  0  0  0  0  0  0  0  0
 34 35  1  0  0  0
 35 36  1  0  0  0
 35 37  1  0  0  0
 35 33  1  0  0  0
 33 23  1  0  0  0
 23 24  2  0  0  0
 23 25  1  0  0  0
 25 26  1  0  0  0
 26 27  1  0  0  0
 27 28  1  0  0  0
 28 29  1  0  0  0
 29 30  1  0  0  0
 30 31  1  0  0  0
 31 22  1  0  0  0
 22  1  1  0  0  0
  1  2  2  0  0  0
  2  3  1  0  0  0
  3  4  2  0  0  0
  4  5  1  0  0  0
  5 10  1  0  0  0
 10 12  1  0  0  0
 12 13  2  0  0  0
 13 14  1  0  0  0
 14 15  2  0  0  0
 15 18  1  0  0  0
 18 19  1  0  0  0
 18 20  2  0  0  0
 18 21  2  0  0  0
 15 16  1  0  0  0
 16 17  2  0  0  0
  5  6  2  0  0  0
  6  7  1  0  0  0
  7  8  2  0  0  0
  7  9  1  0  0  0
 31 32  1  0  0  0
 29 25  1  0  0  0
  6  1  1  0  0  0
 32 26  1  0  0  0
 17 12  1  0  0  0
 10 11  1  0  0  0
M  CHG 1   7   1
M  CHG 1   9  -1
M  END
> <minimizedAffinity>
-8.57213

> <CNNscore>
0.2167495638

> <CNNaffinity>
7.0890350342

> <CNN_VS>
1.5365452766

> <CNNaffinity_variance>
0.2140060365

$$$$
[H]c1nc(OC2([H])C([H])([H])[C@@]3([H])N(C(=O)OC(C([H])([H])[H])(C([H])([H])[H])C([H])([H])[H])[C@]([H])(C2([H])[H])C([H])([H])C3([H])[H])c([N+](=O)[O-])c(N([H])c2c([H])c([H])c(S(=O)(=O)C([H])([H])[H])c([H])c2[H])n1


 37 40  0  0  0  0  0  0  0  0999 V2000
   12.2849   23.1950    0.8469 C   0  0  0  0  0  0  0  0  0  0  0  0
   12.8197   24.3513    1.6387 N   0  0  0  0  0  0  0  0  0  0  0  0
   14.0444   25.0791    1.1694 C   0  0  0  0  0  0  0  0  0  0  0  0
   14.7344   24.6506   -0.0918 N   0  0  0  0  0  0  0  0  0  0  0  0
   14.1995   23.4944   -0.8836 C   0  0  0  0  0  0  0  0  0  0  0  0
   12.9748   22.7665   -0.4143 C   0  0  0  0  0  0  0  0  0  0  0  0
   12.4400   21.6103   -1.2061 N   0  0  0  0  0  0  0  0  0  0  0  0
   11.1426   21.7447   -1.9468 O   0  0  0  0  0  0  0  0  0  0  0  0
   12.9239   20.2151   -1.4698 O   0  0  0  0  0  0  0  0  0  0  0  0
   14.8895   23.0659   -2.1448 N   0  0  0  0  0  0  0  0  0  0  0  0
   15.3351   21.6432   -2.3096 H   0  0  0  0  0  0  0  0  0  0  0  0
   15.1337   24.0603   -3.2409 C   0  0  0  0  0  0  0  0  0  0  0  0
   15.1833   25.5261   -2.9266 C   0  0  0  0  0  0  0  0  0  0  0  0
   15.4275   26.5204   -4.0228 C   0  0  0  0  0  0  0  0  0  0  0  0
   15.6223   26.0488   -5.4334 C   0  0  0  0  0  0  0  0  0  0  0  0
   15.5727   24.5830   -5.7477 C   0  0  0  0  0  0  0  0  0  0  0  0
   15.3285   23.5887   -4.6515 C   0  0  0  0  0  0  0  0  0  0  0  0
   15.8665   27.0431   -6.5296 S   0  0  0  0  0  0  0  0  0  0  0  0
   16.1108   28.0375   -7.6258 C   0  0  0  0  0  0  0  0  0  0  0  0
   15.7486   25.9487   -7.5486 O   0  0  0  0  0  0  0  0  0  0  0  0
   15.9844   28.1376   -5.5106 O   0  0  0  0  0  0  0  0  0  0  0  0
   11.0602   22.4671    1.3161 O   0  0  0  0  0  0  0  0  0  0  0  0
   10.0173   23.1636    1.8004 C   0  0  0  0  0  0  0  0  0  0  0  0
    9.8796   23.7514    0.4272 O   0  0  0  0  0  0  0  0  0  0  0  0
    9.2691   23.3387    3.0886 N   0  0  0  0  0  0  0  0  0  0  0  0
    9.5687   22.6438    4.3837 C   0  0  0  0  0  0  0  0  0  0  0  0
    8.5747   23.1151    5.4035 C   0  0  0  0  0  0  0  0  0  0  0  0
    7.6607   24.1013    4.7386 C   0  0  0  0  0  0  0  0  0  0  0  0
    8.0899   24.2395    3.3079 C   0  0  0  0  0  0  0  0  0  0  0  0
    8.7339   24.1769    1.9439 C   0  0  0  0  0  0  0  0  0  0  0  0
    9.8995   23.2352    1.8756 C   0  0  0  0  0  0  0  0  0  0  0  0
   10.3169   22.4687    3.0955 C   0  0  0  0  0  0  0  0  0  0  0  0
   11.1829   22.2220    1.7321 O   0  0  0  0  0  0  0  0  0  0  0  0
    9.8284   21.0748    0.5704 C   0  0  0  0  0  0  0  0  0  0  0  0
   10.9511   20.7563    1.5128 C   0  0  0  0  0  0  0  0  0  0  0  0
   12.0738   20.4378    2.4552 C   0  0  0  0  0  0  0  0  0  0  0  0
   10.7194   19.2906    1.2935 C   0  0  0  0  0  0  0  0  0  0  0  0
 34 35  1  0  0  0
 35 36  1  0  0  0
 35 37  1  0  0  0
 35 33  1  0  0  0
 33 23  1  0  0  0
 23 24  2  0  0  0
 23 25  1  0  0  0
 25 26  1  0  0  0
 26 27  1  0  0  0
 27 28  1  0  0  0
 28 29  1  0  0  0
 29 30  1  0  0  0
 30 31  1  0  0  0
 31 22  1  0  0  0
 22  1  1  0  0  0
  1  2  2  0  0  0
  2  3  1  0  0  0
  3  4  2  0  0  0
  4  5  1  0  0  0
  5 10  1  0  0  0
 10 12  1  0  0  0
 12 13  2  0  0  0
 13 14  1  0  0  0
 14 15  2  0  0  0
 15 18  1  0  0  0
 18 19  1  0  0  0
 18 20  2  0  0  0
 18 21  2  0  0  0
 15 16  1  0  0  0
 16 17  2  0  0  0
  5  6  2  0  0  0
  6  7  1  0  0  0
  7  8  2  0  0  0
  7  9  1  0  0  0
 31 32  1  0  0  0
 29 25  1  0  0  0
  6  1  1  0  0  0
 32 26  1  0  0  0
 17 12  1  0  0  0
 10 11  1  0  0  0
M  CHG 1   7   1
M  CHG 1   9  -1
M  END
> <minimizedAffinity>
-3.81319

> <CNNscore>
0.2083066255

> <CNNaffinity>
6.7858529091

> <CNN_VS>
1.4135380983

> <CNNaffinity_variance>
0.2217682153

$$$$
[H]c1nc(OC2([H])C([H])([H])[C@@]3([H])N(C(=O)OC(C([H])([H])[H])(C([H])([H])[H])C([H])([H])[H])[C@]([H])(C2([H])[H])C([H])([H])C3([H])[H])c([N+](=O)[O-])c(N([H])c2c([H])c([H])c(S(=O)(=O)C([H])([H])[H])c([H])c2[H])n1


 37 40  0  0  0  0  0  0  0  0999 V2000
   14.1110   24.1040   -1.2733 C   0  0  0  0  0  0  0  0  0  0  0  0
   15.2025   24.6544   -0.4040 N   0  0  0  0  0  0  0  0  0  0  0  0
   15.1207   24.5066    1.0864 C   0  0  0  0  0  0  0  0  0  0  0  0
   13.9474   23.8084    1.7076 N   0  0  0  0  0  0  0  0  0  0  0  0
   12.8558   23.2580    0.8383 C   0  0  0  0  0  0  0  0  0  0  0  0
   12.9376   23.4058   -0.6521 C   0  0  0  0  0  0  0  0  0  0  0  0
   11.8461   22.8554   -1.5214 N   0  0  0  0  0  0  0  0  0  0  0  0
   10.7230   23.7439   -1.9678 O   0  0  0  0  0  0  0  0  0  0  0  0
   11.5673   21.5066   -2.1156 O   0  0  0  0  0  0  0  0  0  0  0  0
   11.6825   22.5598    1.4595 N   0  0  0  0  0  0  0  0  0  0  0  0
   11.5138   21.0792    1.2878 H   0  0  0  0  0  0  0  0  0  0  0  0
   10.6779   23.3422    2.2523 C   0  0  0  0  0  0  0  0  0  0  0  0
   10.3256   24.7418    1.8438 C   0  0  0  0  0  0  0  0  0  0  0  0
    9.3210   25.5242    2.6366 C   0  0  0  0  0  0  0  0  0  0  0  0
    8.6687   24.9069    3.8381 C   0  0  0  0  0  0  0  0  0  0  0  0
    9.0210   23.5073    4.2467 C   0  0  0  0  0  0  0  0  0  0  0  0
   10.0256   22.7250    3.4538 C   0  0  0  0  0  0  0  0  0  0  0  0
    7.6641   25.6893    4.6310 S   0  0  0  0  0  0  0  0  0  0  0  0
    6.6594   26.4717    5.4239 C   0  0  0  0  0  0  0  0  0  0  0  0
    8.7772   26.3564    5.3833 O   0  0  0  0  0  0  0  0  0  0  0  0
    6.5509   25.0223    3.8787 O   0  0  0  0  0  0  0  0  0  0  0  0
   14.1927   24.2518   -2.7638 O   0  0  0  0  0  0  0  0  0  0  0  0
   14.2251   25.4761   -3.3179 C   0  0  0  0  0  0  0  0  0  0  0  0
   12.7334   25.3710   -3.4354 O   0  0  0  0  0  0  0  0  0  0  0  0
   15.2277   26.5292   -3.6865 N   0  0  0  0  0  0  0  0  0  0  0  0
   16.7114   26.4437   -3.4831 C   0  0  0  0  0  0  0  0  0  0  0  0
   17.3234   27.7143   -3.9941 C   0  0  0  0  0  0  0  0  0  0  0  0
   16.2179   28.5851   -4.5133 C   0  0  0  0  0  0  0  0  0  0  0  0
   14.9227   27.8526   -4.3232 C   0  0  0  0  0  0  0  0  0  0  0  0
   13.7940   26.8989   -4.0139 C   0  0  0  0  0  0  0  0  0  0  0  0
   14.2501   25.6182   -3.3799 C   0  0  0  0  0  0  0  0  0  0  0  0
   15.7088   25.3906   -3.1145 C   0  0  0  0  0  0  0  0  0  0  0  0
   14.6812   24.1955   -2.6840 O   0  0  0  0  0  0  0  0  0  0  0  0
   15.1647   23.9048   -4.7289 C   0  0  0  0  0  0  0  0  0  0  0  0
   14.9960   23.0051   -3.5406 C   0  0  0  0  0  0  0  0  0  0  0  0
   14.8274   22.1054   -2.3523 C   0  0  0  0  0  0  0  0  0  0  0  0
   15.3109   21.8147   -4.3972 C   0  0  0  0  0  0  0  0  0  0  0  0
 34 35  1  0  0  0
 35 36  1  0  0  0
 35 37  1  0  0  0
 35 33  1  0  0  0
 33 23  1  0  0  0
 23 24  2  0  0  0
 23 25  1  0  0  0
 25 26  1  0  0  0
 26 27  1  0  0  0
 27 28  1  0  0  0
 28 29  1  0  0  0
 29 30  1  0  0  0
 30 31  1  0  0  0
 31 22  1  0  0  0
 22  1  1  0  0  0
  1  2  2  0  0  0
  2  3  1  0  0  0
  3  4  2  0  0  0
  4  5  1  0  0  0
  5 10  1  0  0  0
 10 12  1  0  0  0
 12 13  2  0  0  0
 13 14  1  0  0  0
 14 15  2  0  0  0
 15 18  1  0  0  0
 18 19  1  0  0  0
 18 20  2  0  0  0
 18 21  2  0  0  0
 15 16  1  0  0  0
 16 17  2  0  0  0
  5  6  2  0  0  0
  6  7  1  0  0  0
  7  8  2  0  0  0
  7  9  1  0  0  0
 31 32  1  0  0  0
 29 25  1  0  0  0
  6  1  1  0  0  0
 32 26  1  0  0  0
 17 12  1  0  0  0
 10 11  1  0  0  0
M  CHG 1   7   1
M  CHG 1   9  -1
M  END
> <minimizedAffinity>
-5.27487

> <CNNscore>
0.2016665488

> <CNNaffinity>
6.6408209801

> <CNN_VS>
1.3392314911

> <CNNaffinity_variance>
0.6575406790

$$$$
[H]c1nc(OC2([H])C([H])([H])[C@@]3([H])N(C(=O)OC(C([H])([H])[H])(C([H])([H])[H])C([H])([H])[H])[C@]([H])(C2([H])[H])C([H])([H])C3([H])[H])c([N+](=O)[O-])c(N([H])c2c([H])c([H])c(S(=O)(=O)C([H])([H])[H])c([H])c2[H])n1


 37 40  0  0  0  0  0  0  0  0999 V2000
   14.3374   23.2327   -1.0654 C   0  0  0  0  0  0  0  0  0  0  0  0
   15.1970   22.2414   -0.3385 N   0  0  0  0  0  0  0  0  0  0  0  0
   14.7121   21.6228    0.9390 C   0  0  0  0  0  0  0  0  0  0  0  0
   13.3675   21.9955    1.4897 N   0  0  0  0  0  0  0  0  0  0  0  0
   12.5079   22.9868    0.7629 C   0  0  0  0  0  0  0  0  0  0  0  0
   12.9928   23.6054   -0.5147 C   0  0  0  0  0  0  0  0  0  0  0  0
   12.1332   24.5967   -1.2415 N   0  0  0  0  0  0  0  0  0  0  0  0
   12.5605   26.0314   -1.3380 O   0  0  0  0  0  0  0  0  0  0  0  0
   10.8242   24.5056   -1.9682 O   0  0  0  0  0  0  0  0  0  0  0  0
   11.1633   23.3594    1.3136 N   0  0  0  0  0  0  0  0  0  0  0  0
   11.0393   24.4963    2.2842 H   0  0  0  0  0  0  0  0  0  0  0  0
    9.9429   22.5952    0.8936 C   0  0  0  0  0  0  0  0  0  0  0  0
   10.0864   21.3254    0.1082 C   0  0  0  0  0  0  0  0  0  0  0  0
    8.8659   20.5612   -0.3118 C   0  0  0  0  0  0  0  0  0  0  0  0
    7.5018   21.0669    0.0538 C   0  0  0  0  0  0  0  0  0  0  0  0
    7.3582   22.3367    0.8392 C   0  0  0  0  0  0  0  0  0  0  0  0
    8.5787   23.1008    1.2591 C   0  0  0  0  0  0  0  0  0  0  0  0
    6.2813   20.3027   -0.3662 S   0  0  0  0  0  0  0  0  0  0  0  0
    5.0607   19.5385   -0.7861 C   0  0  0  0  0  0  0  0  0  0  0  0
    5.4245   21.4881   -0.0333 O   0  0  0  0  0  0  0  0  0  0  0  0
    7.1380   19.1173   -0.6991 O   0  0  0  0  0  0  0  0  0  0  0  0
   14.8223   23.8514   -2.3429 O   0  0  0  0  0  0  0  0  0  0  0  0
   15.6758   24.8886   -2.2892 C   0  0  0  0  0  0  0  0  0  0  0  0
   16.2146   24.2722   -1.0324 O   0  0  0  0  0  0  0  0  0  0  0  0
   16.0092   26.1259   -3.0689 N   0  0  0  0  0  0  0  0  0  0  0  0
   15.3388   26.5798   -4.3316 C   0  0  0  0  0  0  0  0  0  0  0  0
   15.9868   27.8610   -4.7659 C   0  0  0  0  0  0  0  0  0  0  0  0
   17.0578   28.1990   -3.7715 C   0  0  0  0  0  0  0  0  0  0  0  0
   17.0716   27.1266   -2.7227 C   0  0  0  0  0  0  0  0  0  0  0  0
   16.8604   25.9279   -1.8297 C   0  0  0  0  0  0  0  0  0  0  0  0
   15.7661   25.0165   -2.3010 C   0  0  0  0  0  0  0  0  0  0  0  0
   15.0054   25.3425   -3.5520 C   0  0  0  0  0  0  0  0  0  0  0  0
   14.5816   23.9773   -2.7605 O   0  0  0  0  0  0  0  0  0  0  0  0
   15.5972   23.6892   -4.6005 C   0  0  0  0  0  0  0  0  0  0  0  0
   14.9109   22.7897   -3.6157 C   0  0  0  0  0  0  0  0  0  0  0  0
   14.2246   21.8902   -2.6308 C   0  0  0  0  0  0  0  0  0  0  0  0
   15.2402   21.6021   -4.4708 C   0  0  0  0  0  0  0  0  0  0  0  0
 34 35  1  0  0  0
 35 36  1  0  0  0
 35 37  1  0  0  0
 35 33  1  0  0  0
 33 23  1  0  0  0
 23 24  2  0  0  0
 23 25  1  0  0  0
 25 26  1  0  0  0
 26 27  1  0  0  0
 27 28  1  0  0  0
 28 29  1  0  0  0
 29 30  1  0  0  0
 30 31  1  0  0  0
 31 22  1  0  0  0
 22  1  1  0  0  0
  1  2  2  0  0  0
  2  3  1  0  0  0
  3  4  2  0  0  0
  4  5  1  0  0  0
  5 10  1  0  0  0
 10 12  1  0  0  0
 12 13  2  0  0  0
 13 14  1  0  0  0
 14 15  2  0  0  0
 15 18  1  0  0  0
 18 19  1  0  0  0
 18 20  2  0  0  0
 18 21  2  0  0  0
 15 16  1  0  0  0
 16 17  2  0  0  0
  5  6  2  0  0  0
  6  7  1  0  0  0
  7  8  2  0  0  0
  7  9  1  0  0  0
 31 32  1  0  0  0
 29 25  1  0  0  0
  6  1  1  0  0  0
 32 26  1  0  0  0
 17 12  1  0  0  0
 10 11  1  0  0  0
M  CHG 1   7   1
M  CHG 1   9  -1
M  END
> <minimizedAffinity>
-7.01027

> <CNNscore>
0.1979015172

> <CNNaffinity>
7.1419248581

> <CNN_VS>
1.4133977890

> <CNNaffinity_variance>
0.3233250976

$$$$
[H]c1nc(OC2([H])C([H])([H])[C@@]3([H])N(C(=O)OC(C([H])([H])[H])(C([H])([H])[H])C([H])([H])[H])[C@]([H])(C2([H])[H])C([H])([H])C3([H])[H])c([N+](=O)[O-])c(N([H])c2c([H])c([H])c(S(=O)(=O)C([H])([H])[H])c([H])c2[H])n1


 37 40  0  0  0  0  0  0  0  0999 V2000
   11.5585   22.7031    1.0426 C   0  0  0  0  0  0  0  0  0  0  0  0
   10.7553   23.9269    1.3697 N   0  0  0  0  0  0  0  0  0  0  0  0
   11.3354   25.2899    1.1338 C   0  0  0  0  0  0  0  0  0  0  0  0
   12.7187   25.4291    0.5708 N   0  0  0  0  0  0  0  0  0  0  0  0
   13.5220   24.2052    0.2437 C   0  0  0  0  0  0  0  0  0  0  0  0
   12.9419   22.8423    0.4796 C   0  0  0  0  0  0  0  0  0  0  0  0
   13.7451   21.6184    0.1524 N   0  0  0  0  0  0  0  0  0  0  0  0
   14.6896   21.0475    1.1684 O   0  0  0  0  0  0  0  0  0  0  0  0
   13.8522   20.7341   -1.0544 O   0  0  0  0  0  0  0  0  0  0  0  0
   14.9053   24.3444   -0.3193 N   0  0  0  0  0  0  0  0  0  0  0  0
   16.0877   23.8643    0.4690 H   0  0  0  0  0  0  0  0  0  0  0  0
   15.1062   24.9638   -1.6706 C   0  0  0  0  0  0  0  0  0  0  0  0
   14.0213   24.8798   -2.7030 C   0  0  0  0  0  0  0  0  0  0  0  0
   14.2222   25.4992   -4.0543 C   0  0  0  0  0  0  0  0  0  0  0  0
   15.5082   26.2025   -4.3732 C   0  0  0  0  0  0  0  0  0  0  0  0
   16.5931   26.2865   -3.3408 C   0  0  0  0  0  0  0  0  0  0  0  0
   16.3922   25.6671   -1.9896 C   0  0  0  0  0  0  0  0  0  0  0  0
   15.7092   26.8218   -5.7245 S   0  0  0  0  0  0  0  0  0  0  0  0
   15.9101   27.4413   -7.0758 C   0  0  0  0  0  0  0  0  0  0  0  0
   15.5749   25.4714   -6.3635 O   0  0  0  0  0  0  0  0  0  0  0  0
   15.8434   28.1724   -5.0855 O   0  0  0  0  0  0  0  0  0  0  0  0
   10.9785   21.3400    1.2784 O   0  0  0  0  0  0  0  0  0  0  0  0
    9.9722   20.8957    0.5056 C   0  0  0  0  0  0  0  0  0  0  0  0
   11.0273   20.4024   -0.4396 O   0  0  0  0  0  0  0  0  0  0  0  0
    8.4726   20.8615    0.5031 N   0  0  0  0  0  0  0  0  0  0  0  0
    7.5761   21.4230    1.5667 C   0  0  0  0  0  0  0  0  0  0  0  0
    6.1556   21.1683    1.1575 C   0  0  0  0  0  0  0  0  0  0  0  0
    6.1742   20.4495   -0.1589 C   0  0  0  0  0  0  0  0  0  0  0  0
    7.6061   20.2599   -0.5633 C   0  0  0  0  0  0  0  0  0  0  0  0
    9.1079   20.2121   -0.7110 C   0  0  0  0  0  0  0  0  0  0  0  0
    9.8416   20.8518    0.4304 C   0  0  0  0  0  0  0  0  0  0  0  0
    9.0757   21.4572    1.5691 C   0  0  0  0  0  0  0  0  0  0  0  0
   10.7059   21.5353    1.6469 O   0  0  0  0  0  0  0  0  0  0  0  0
   11.7754   19.7359    1.9908 C   0  0  0  0  0  0  0  0  0  0  0  0
   11.0581   20.7261    2.8597 C   0  0  0  0  0  0  0  0  0  0  0  0
   10.3409   21.7163    3.7287 C   0  0  0  0  0  0  0  0  0  0  0  0
   11.4104   19.9168    4.0726 C   0  0  0  0  0  0  0  0  0  0  0  0
 34 35  1  0  0  0
 35 36  1  0  0  0
 35 37  1  0  0  0
 35 33  1  0  0  0
 33 23  1  0  0  0
 23 24  2  0  0  0
 23 25  1  0  0  0
 25 26  1  0  0  0
 26 27  1  0  0  0
 27 28  1  0  0  0
 28 29  1  0  0  0
 29 30  1  0  0  0
 30 31  1  0  0  0
 31 22  1  0  0  0
 22  1  1  0  0  0
  1  2  2  0  0  0
  2  3  1  0  0  0
  3  4  2  0  0  0
  4  5  1  0  0  0
  5 10  1  0  0  0
 10 12  1  0  0  0
 12 13  2  0  0  0
 13 14  1  0  0  0
 14 15  2  0  0  0
 15 18  1  0  0  0
 18 19  1  0  0  0
 18 20  2  0  0  0
 18 21  2  0  0  0
 15 16  1  0  0  0
 16 17  2  0  0  0
  5  6  2  0  0  0
  6  7  1  0  0  0
  7  8  2  0  0  0
  7  9  1  0  0  0
 31 32  1  0  0  0
 29 25  1  0  0  0
  6  1  1  0  0  0
 32 26  1  0  0  0
 17 12  1  0  0  0
 10 11  1  0  0  0
M  CHG 1   7   1
M  CHG 1   9  -1
M  END
> <minimizedAffinity>
-8.74706

> <CNNscore>
0.1770442575

> <CNNaffinity>
6.8726477623

> <CNN_VS>
1.2167627811

> <CNNaffinity_variance>
0.1806410253

$$$$
[H]c1nc(OC2([H])C([H])([H])[C@@]3([H])N(C(=O)OC(C([H])([H])[H])(C([H])([H])[H])C([H])([H])[H])[C@]([H])(C2([H])[H])C([H])([H])C3([H])[H])c([N+](=O)[O-])c(N([H])c2c([H])c([H])c(S(=O)(=O)C([H])([H])[H])c([H])c2[H])n1


 37 40  0  0  0  0  0  0  0  0999 V2000
   11.6991   22.7373    0.9879 C   0  0  0  0  0  0  0  0  0  0  0  0
   11.0012   24.0047    1.3836 N   0  0  0  0  0  0  0  0  0  0  0  0
   11.6611   25.3304    1.1446 C   0  0  0  0  0  0  0  0  0  0  0  0
   13.0189   25.3886    0.5098 N   0  0  0  0  0  0  0  0  0  0  0  0
   13.7168   24.1212    0.1140 C   0  0  0  0  0  0  0  0  0  0  0  0
   13.0569   22.7956    0.3531 C   0  0  0  0  0  0  0  0  0  0  0  0
   13.7548   21.5282   -0.0426 N   0  0  0  0  0  0  0  0  0  0  0  0
   13.6012   20.9906   -1.4346 O   0  0  0  0  0  0  0  0  0  0  0  0
   14.6570   20.5678    0.6741 O   0  0  0  0  0  0  0  0  0  0  0  0
   15.0747   24.1795   -0.5208 N   0  0  0  0  0  0  0  0  0  0  0  0
   16.2511   23.5512    0.1658 H   0  0  0  0  0  0  0  0  0  0  0  0
   15.2560   24.8660   -1.8420 C   0  0  0  0  0  0  0  0  0  0  0  0
   14.3007   24.5939   -2.9661 C   0  0  0  0  0  0  0  0  0  0  0  0
   14.4821   25.2805   -4.2873 C   0  0  0  0  0  0  0  0  0  0  0  0
   15.6188   26.2392   -4.4845 C   0  0  0  0  0  0  0  0  0  0  0  0
   16.5740   26.5114   -3.3605 C   0  0  0  0  0  0  0  0  0  0  0  0
   16.3926   25.8248   -2.0393 C   0  0  0  0  0  0  0  0  0  0  0  0
   15.8001   26.9258   -5.8057 S   0  0  0  0  0  0  0  0  0  0  0  0
   15.9815   27.6125   -7.1270 C   0  0  0  0  0  0  0  0  0  0  0  0
   15.6547   25.6094   -6.5099 O   0  0  0  0  0  0  0  0  0  0  0  0
   15.9456   28.2423   -5.1016 O   0  0  0  0  0  0  0  0  0  0  0  0
   11.0392   21.4116    1.2269 O   0  0  0  0  0  0  0  0  0  0  0  0
   10.7576   21.0197    2.4816 C   0  0  0  0  0  0  0  0  0  0  0  0
   12.1785   20.5460    2.5633 O   0  0  0  0  0  0  0  0  0  0  0  0
    9.6010   21.0147    3.4367 N   0  0  0  0  0  0  0  0  0  0  0  0
    8.2268   21.5484    3.1601 C   0  0  0  0  0  0  0  0  0  0  0  0
    7.3920   21.3387    4.3886 C   0  0  0  0  0  0  0  0  0  0  0  0
    8.2504   20.6753    5.4245 C   0  0  0  0  0  0  0  0  0  0  0  0
    9.6156   20.4751    4.8362 C   0  0  0  0  0  0  0  0  0  0  0  0
   10.8701   20.4044    3.9993 C   0  0  0  0  0  0  0  0  0  0  0  0
   10.7050   20.9814    2.6245 C   0  0  0  0  0  0  0  0  0  0  0  0
    9.3833   21.5534    2.2049 C   0  0  0  0  0  0  0  0  0  0  0  0
   10.5925   21.5966    1.1069 O   0  0  0  0  0  0  0  0  0  0  0  0
   10.9045   19.7244    0.1594 C   0  0  0  0  0  0  0  0  0  0  0  0
    9.8789   20.8131    0.0454 C   0  0  0  0  0  0  0  0  0  0  0  0
    8.8533   21.9017   -0.0687 C   0  0  0  0  0  0  0  0  0  0  0  0
    9.1652   20.0296   -1.0161 C   0  0  0  0  0  0  0  0  0  0  0  0
 34 35  1  0  0  0
 35 36  1  0  0  0
 35 37  1  0  0  0
 35 33  1  0  0  0
 33 23  1  0  0  0
 23 24  2  0  0  0
 23 25  1  0  0  0
 25 26  1  0  0  0
 26 27  1  0  0  0
 27 28  1  0  0  0
 28 29  1  0  0  0
 29 30  1  0  0  0
 30 31  1  0  0  0
 31 22  1  0  0  0
 22  1  1  0  0  0
  1  2  2  0  0  0
  2  3  1  0  0  0
  3  4  2  0  0  0
  4  5  1  0  0  0
  5 10  1  0  0  0
 10 12  1  0  0  0
 12 13  2  0  0  0
 13 14  1  0  0  0
 14 15  2  0  0  0
 15 18  1  0  0  0
 18 19  1  0  0  0
 18 20  2  0  0  0
 18 21  2  0  0  0
 15 16  1  0  0  0
 16 17  2  0  0  0
  5  6  2  0  0  0
  6  7  1  0  0  0
  7  8  2  0  0  0
  7  9  1  0  0  0
 31 32  1  0  0  0
 29 25  1  0  0  0
  6  1  1  0  0  0
 32 26  1  0  0  0
 17 12  1  0  0  0
 10 11  1  0  0  0
M  CHG 1   7   1
M  CHG 1   9  -1
M  END
> <minimizedAffinity>
-8.02678

> <CNNscore>
0.1564967632

> <CNNaffinity>
6.9176077843

> <CNN_VS>
1.0825831890

> <CNNaffinity_variance>
0.3502120078

$$$$
[H]c1c([H])c(N([H])c2nc(N3C([H])([H])C([H])([H])C([H])([H])C3([H])[H])c3c([H])c([H])c([H])c([H])c3n2)c([H])c([H])c1OC([H])([H])[H]


 25 28  0  0  0  0  0  0  0  0999 V2000
   15.3523   24.3142   -2.0516 C   0  0  0  0  0  0  0  0  0  0  0  0
   14.8311   23.9010   -0.8934 N   0  0  0  0  0  0  0  0  0  0  0  0
   14.1596   22.7410   -0.7426 C   0  0  0  0  0  0  0  0  0  0  0  0
   14.0030   21.9387   -1.8497 C   0  0  0  0  0  0  0  0  0  0  0  0
   13.3248   20.7505   -1.7837 C   0  0  0  0  0  0  0  0  0  0  0  0
   13.1965   19.9948   -2.9365 C   0  0  0  0  0  0  0  0  0  0  0  0
   13.7198   20.3873   -4.1398 C   0  0  0  0  0  0  0  0  0  0  0  0
   14.3989   21.5714   -4.2234 C   0  0  0  0  0  0  0  0  0  0  0  0
   14.5396   22.3483   -3.0746 C   0  0  0  0  0  0  0  0  0  0  0  0
   15.1860   23.5172   -3.1049 N   0  0  0  0  0  0  0  0  0  0  0  0
   13.6679   22.3704    0.5451 N   0  0  0  0  0  0  0  0  0  0  0  0
   12.6756   23.0441    1.3198 C   0  0  0  0  0  0  0  0  0  0  0  0
   12.1200   21.9971    2.2883 C   0  0  0  0  0  0  0  0  0  0  0  0
   12.7579   20.7260    1.8374 C   0  0  0  0  0  0  0  0  0  0  0  0
   14.1050   21.2138    1.2901 C   0  0  0  0  0  0  0  0  0  0  0  0
   16.0246   25.5525   -2.1181 N   0  0  0  0  0  0  0  0  0  0  0  0
   16.6393   25.7761   -1.2776 H   0  0  0  0  0  0  0  0  0  0  0  0
   16.0555   28.2847   -5.3826 C   0  0  0  0  0  0  0  0  0  0  0  0
   15.6634   28.7002   -4.1357 C   0  0  0  0  0  0  0  0  0  0  0  0
   15.6296   27.8307   -3.0325 C   0  0  0  0  0  0  0  0  0  0  0  0
   15.9903   26.5136   -3.1476 C   0  0  0  0  0  0  0  0  0  0  0  0
   16.3883   26.1075   -4.4322 C   0  0  0  0  0  0  0  0  0  0  0  0
   16.4182   26.9644   -5.5066 C   0  0  0  0  0  0  0  0  0  0  0  0
   17.0928   29.0462   -7.4474 C   0  0  0  0  0  0  0  0  0  0  0  0
   16.0839   29.1542   -6.4618 O   0  0  0  0  0  0  0  0  0  0  0  0
 24 25  1  0  0  0
 25 18  1  0  0  0
 18 19  2  0  0  0
 19 20  1  0  0  0
 20 21  2  0  0  0
 21 16  1  0  0  0
 16  1  1  0  0  0
  1  2  2  0  0  0
  2  3  1  0  0  0
  3 11  1  0  0  0
 11 12  1  0  0  0
 12 13  1  0  0  0
 13 14  1  0  0  0
 14 15  1  0  0  0
  3  4  2  0  0  0
  4  5  1  0  0  0
  5  6  2  0  0  0
  6  7  1  0  0  0
  7  8  2  0  0  0
  8  9  1  0  0  0
  9 10  2  0  0  0
 21 22  1  0  0  0
 22 23  2  0  0  0
 23 18  1  0  0  0
 10  1  1  0  0  0
 15 11  1  0  0  0
  9  4  1  0  0  0
 16 17  1  0  0  0
M  END
> <minimizedAffinity>
11.55768

> <CNNscore>
0.5166690350

> <CNNaffinity>
6.6860985756

> <CNN_VS>
3.4545001984

> <CNNaffinity_variance>
1.1244783401

$$$$
[H]c1c([H])c(N([H])c2nc(N3C([H])([H])C([H])([H])C([H])([H])C3([H])[H])c3c([H])c([H])c([H])c([H])c3n2)c([H])c([H])c1OC([H])([H])[H]


 25 28  0  0  0  0  0  0  0  0999 V2000
   14.1295   21.7784    0.3683 C   0  0  0  0  0  0  0  0  0  0  0  0
   13.7456   22.7616   -0.4500 N   0  0  0  0  0  0  0  0  0  0  0  0
   14.4943   23.8507   -0.7197 C   0  0  0  0  0  0  0  0  0  0  0  0
   15.7255   23.9521   -0.1133 C   0  0  0  0  0  0  0  0  0  0  0  0
   16.5422   25.0311   -0.3255 C   0  0  0  0  0  0  0  0  0  0  0  0
   17.7652   25.0750    0.3218 C   0  0  0  0  0  0  0  0  0  0  0  0
   18.1909   24.0838    1.1656 C   0  0  0  0  0  0  0  0  0  0  0  0
   17.3873   23.0001    1.3894 C   0  0  0  0  0  0  0  0  0  0  0  0
   16.1514   22.9358    0.7479 C   0  0  0  0  0  0  0  0  0  0  0  0
   15.3255   21.9033    0.9396 N   0  0  0  0  0  0  0  0  0  0  0  0
   14.0103   24.8329   -1.6353 N   0  0  0  0  0  0  0  0  0  0  0  0
   14.5737   25.1924   -2.8971 C   0  0  0  0  0  0  0  0  0  0  0  0
   13.4342   25.8277   -3.6975 C   0  0  0  0  0  0  0  0  0  0  0  0
   12.2340   25.6053   -2.8396 C   0  0  0  0  0  0  0  0  0  0  0  0
   12.8319   25.6403   -1.4277 C   0  0  0  0  0  0  0  0  0  0  0  0
   13.2709   20.6843    0.6041 N   0  0  0  0  0  0  0  0  0  0  0  0
   13.7270   19.8502    1.0845 H   0  0  0  0  0  0  0  0  0  0  0  0
    9.0796   20.4146   -0.0906 C   0  0  0  0  0  0  0  0  0  0  0  0
    9.9639   19.8144   -0.9503 C   0  0  0  0  0  0  0  0  0  0  0  0
   11.3548   19.8853   -0.7643 C   0  0  0  0  0  0  0  0  0  0  0  0
   11.9021   20.5624    0.2941 C   0  0  0  0  0  0  0  0  0  0  0  0
   10.9803   21.1704    1.1626 C   0  0  0  0  0  0  0  0  0  0  0  0
    9.6207   21.0965    0.9734 C   0  0  0  0  0  0  0  0  0  0  0  0
    7.1836   19.8940   -1.5236 C   0  0  0  0  0  0  0  0  0  0  0  0
    7.7097   20.3359   -0.2870 O   0  0  0  0  0  0  0  0  0  0  0  0
 24 25  1  0  0  0
 25 18  1  0  0  0
 18 19  2  0  0  0
 19 20  1  0  0  0
 20 21  2  0  0  0
 21 16  1  0  0  0
 16  1  1  0  0  0
  1  2  2  0  0  0
  2  3  1  0  0  0
  3 11  1  0  0  0
 11 12  1  0  0  0
 12 13  1  0  0  0
 13 14  1  0  0  0
 14 15  1  0  0  0
  3  4  2  0  0  0
  4  5  1  0  0  0
  5  6  2  0  0  0
  6  7  1  0  0  0
  7  8  2  0  0  0
  8  9  1  0  0  0
  9 10  2  0  0  0
 21 22  1  0  0  0
 22 23  2  0  0  0
 23 18  1  0  0  0
 10  1  1  0  0  0
 15 11  1  0  0  0
  9  4  1  0  0  0
 16 17  1  0  0  0
M  END
> <minimizedAffinity>
-0.63133

> <CNNscore>
0.4595882893

> <CNNaffinity>
6.8279395103

> <CNN_VS>
3.1380410194

> <CNNaffinity_variance>
0.7857319713

$$$$
[H]c1c([H])c(N([H])c2nc(N3C([H])([H])C([H])([H])C([H])([H])C3([H])[H])c3c([H])c([H])c([H])c([H])c3n2)c([H])c([H])c1OC([H])([H])[H]


 25 28  0  0  0  0  0  0  0  0999 V2000
   13.6607   26.2753   -3.5264 C   0  0  0  0  0  0  0  0  0  0  0  0
   14.8493   26.7748   -3.1777 N   0  0  0  0  0  0  0  0  0  0  0  0
   15.8536   27.0028   -4.0487 C   0  0  0  0  0  0  0  0  0  0  0  0
   15.6380   26.7008   -5.3740 C   0  0  0  0  0  0  0  0  0  0  0  0
   16.6099   26.8923   -6.3201 C   0  0  0  0  0  0  0  0  0  0  0  0
   16.3306   26.5602   -7.6347 C   0  0  0  0  0  0  0  0  0  0  0  0
   15.1226   26.0479   -8.0271 C   0  0  0  0  0  0  0  0  0  0  0  0
   14.1417   25.8494   -7.0951 C   0  0  0  0  0  0  0  0  0  0  0  0
   14.4018   26.1767   -5.7653 C   0  0  0  0  0  0  0  0  0  0  0  0
   13.4807   25.9937   -4.8150 N   0  0  0  0  0  0  0  0  0  0  0  0
   17.0777   27.5713   -3.5841 N   0  0  0  0  0  0  0  0  0  0  0  0
   18.0333   26.9720   -2.7086 C   0  0  0  0  0  0  0  0  0  0  0  0
   19.3541   27.6995   -2.9711 C   0  0  0  0  0  0  0  0  0  0  0  0
   19.0508   28.5681   -4.1457 C   0  0  0  0  0  0  0  0  0  0  0  0
   17.5635   28.8824   -3.9430 C   0  0  0  0  0  0  0  0  0  0  0  0
   12.6748   26.0542   -2.5420 N   0  0  0  0  0  0  0  0  0  0  0  0
   11.8127   26.6742   -2.6219 H   0  0  0  0  0  0  0  0  0  0  0  0
   12.8351   23.0693    0.4890 C   0  0  0  0  0  0  0  0  0  0  0  0
   12.0544   24.1845    0.6562 C   0  0  0  0  0  0  0  0  0  0  0  0
   11.9785   25.1982   -0.3138 C   0  0  0  0  0  0  0  0  0  0  0  0
   12.6858   25.1226   -1.4853 C   0  0  0  0  0  0  0  0  0  0  0  0
   13.4794   23.9734   -1.6374 C   0  0  0  0  0  0  0  0  0  0  0  0
   13.5484   22.9862   -0.6833 C   0  0  0  0  0  0  0  0  0  0  0  0
   11.7215   21.5925    2.0697 C   0  0  0  0  0  0  0  0  0  0  0  0
   12.8998   22.0772    1.4551 O   0  0  0  0  0  0  0  0  0  0  0  0
 24 25  1  0  0  0
 25 18  1  0  0  0
 18 19  2  0  0  0
 19 20  1  0  0  0
 20 21  2  0  0  0
 21 16  1  0  0  0
 16  1  1  0  0  0
  1  2  2  0  0  0
  2  3  1  0  0  0
  3 11  1  0  0  0
 11 12  1  0  0  0
 12 13  1  0  0  0
 13 14  1  0  0  0
 14 15  1  0  0  0
  3  4  2  0  0  0
  4  5  1  0  0  0
  5  6  2  0  0  0
  6  7  1  0  0  0
  7  8  2  0  0  0
  8  9  1  0  0  0
  9 10  2  0  0  0
 21 22  1  0  0  0
 22 23  2  0  0  0
 23 18  1  0  0  0
 10  1  1  0  0  0
 15 11  1  0  0  0
  9  4  1  0  0  0
 16 17  1  0  0  0
M  END
> <minimizedAffinity>
1.23756

> <CNNscore>
0.4584370852

> <CNNaffinity>
6.7511320114

> <CNN_VS>
3.0949692726

> <CNNaffinity_variance>
0.7549363375

$$$$
[H]c1c([H])c(N([H])c2nc(N3C([H])([H])C([H])([H])C([H])([H])C3([H])[H])c3c([H])c([H])c([H])c([H])c3n2)c([H])c([H])c1OC([H])([H])[H]


 25 28  0  0  0  0  0  0  0  0999 V2000
   15.1786   23.3919   -3.8925 C   0  0  0  0  0  0  0  0  0  0  0  0
   15.5831   24.5446   -3.3527 N   0  0  0  0  0  0  0  0  0  0  0  0
   15.8549   25.6552   -4.0682 C   0  0  0  0  0  0  0  0  0  0  0  0
   15.7065   25.5933   -5.4349 C   0  0  0  0  0  0  0  0  0  0  0  0
   15.9724   26.6733   -6.2344 C   0  0  0  0  0  0  0  0  0  0  0  0
   15.8104   26.5416   -7.6030 C   0  0  0  0  0  0  0  0  0  0  0  0
   15.3956   25.3755   -8.1894 C   0  0  0  0  0  0  0  0  0  0  0  0
   15.1269   24.2873   -7.4058 C   0  0  0  0  0  0  0  0  0  0  0  0
   15.2838   24.3979   -6.0252 C   0  0  0  0  0  0  0  0  0  0  0  0
   15.0430   23.3620   -5.2165 N   0  0  0  0  0  0  0  0  0  0  0  0
   16.2498   26.8509   -3.3960 N   0  0  0  0  0  0  0  0  0  0  0  0
   16.9892   26.9561   -2.1790 C   0  0  0  0  0  0  0  0  0  0  0  0
   17.6178   28.3515   -2.1915 C   0  0  0  0  0  0  0  0  0  0  0  0
   17.3015   28.8685   -3.5549 C   0  0  0  0  0  0  0  0  0  0  0  0
   15.9613   28.1875   -3.8586 C   0  0  0  0  0  0  0  0  0  0  0  0
   14.9342   22.2757   -3.0653 N   0  0  0  0  0  0  0  0  0  0  0  0
   15.2879   21.3467   -3.4476 H   0  0  0  0  0  0  0  0  0  0  0  0
   13.0945   21.9146    0.7567 C   0  0  0  0  0  0  0  0  0  0  0  0
   12.7954   22.9766   -0.0581 C   0  0  0  0  0  0  0  0  0  0  0  0
   13.3852   23.1399   -1.3229 C   0  0  0  0  0  0  0  0  0  0  0  0
   14.2956   22.2388   -1.8101 C   0  0  0  0  0  0  0  0  0  0  0  0
   14.5888   21.1588   -0.9609 C   0  0  0  0  0  0  0  0  0  0  0  0
   14.0075   21.0065    0.2755 C   0  0  0  0  0  0  0  0  0  0  0  0
   11.1449   22.1043    2.1997 C   0  0  0  0  0  0  0  0  0  0  0  0
   12.5043   21.7667    2.0022 O   0  0  0  0  0  0  0  0  0  0  0  0
 24 25  1  0  0  0
 25 18  1  0  0  0
 18 19  2  0  0  0
 19 20  1  0  0  0
 20 21  2  0  0  0
 21 16  1  0  0  0
 16  1  1  0  0  0
  1  2  2  0  0  0
  2  3  1  0  0  0
  3 11  1  0  0  0
 11 12  1  0  0  0
 12 13  1  0  0  0
 13 14  1  0  0  0
 14 15  1  0  0  0
  3  4  2  0  0  0
  4  5  1  0  0  0
  5  6  2  0  0  0
  6  7  1  0  0  0
  7  8  2  0  0  0
  8  9  1  0  0  0
  9 10  2  0  0  0
 21 22  1  0  0  0
 22 23  2  0  0  0
 23 18  1  0  0  0
 10  1  1  0  0  0
 15 11  1  0  0  0
  9  4  1  0  0  0
 16 17  1  0  0  0
M  END
> <minimizedAffinity>
0.25630

> <CNNscore>
0.4171568453

> <CNNaffinity>
6.6694402695

> <CNN_VS>
2.7822027206

> <CNNaffinity_variance>
0.4946407676

$$$$
[H]c1c([H])c(N([H])c2nc(N3C([H])([H])C([H])([H])C([H])([H])C3([H])[H])c3c([H])c([H])c([H])c([H])c3n2)c([H])c([H])c1OC([H])([H])[H]


 25 28  0  0  0  0  0  0  0  0999 V2000
   11.6269   24.3326   -1.3667 C   0  0  0  0  0  0  0  0  0  0  0  0
   12.6411   23.6583   -0.8186 N   0  0  0  0  0  0  0  0  0  0  0  0
   12.4869   22.5524   -0.0619 C   0  0  0  0  0  0  0  0  0  0  0  0
   11.2075   22.0951    0.1571 C   0  0  0  0  0  0  0  0  0  0  0  0
   10.9641   20.9856    0.9227 C   0  0  0  0  0  0  0  0  0  0  0  0
    9.6527   20.5834    1.1101 C   0  0  0  0  0  0  0  0  0  0  0  0
    8.5895   21.2500    0.5614 C   0  0  0  0  0  0  0  0  0  0  0  0
    8.8148   22.3603   -0.2047 C   0  0  0  0  0  0  0  0  0  0  0  0
   10.1277   22.7830   -0.4060 C   0  0  0  0  0  0  0  0  0  0  0  0
   10.4010   23.8664   -1.1386 N   0  0  0  0  0  0  0  0  0  0  0  0
   13.6366   21.8816    0.4533 N   0  0  0  0  0  0  0  0  0  0  0  0
   13.8872   20.4759    0.4625 C   0  0  0  0  0  0  0  0  0  0  0  0
   15.4057   20.3232    0.5789 C   0  0  0  0  0  0  0  0  0  0  0  0
   15.9117   21.7206    0.4478 C   0  0  0  0  0  0  0  0  0  0  0  0
   14.7689   22.5397    1.0603 C   0  0  0  0  0  0  0  0  0  0  0  0
   11.8836   25.4906   -2.1302 N   0  0  0  0  0  0  0  0  0  0  0  0
   11.1788   26.2788   -2.0024 H   0  0  0  0  0  0  0  0  0  0  0  0
   14.9317   26.3873   -4.9634 C   0  0  0  0  0  0  0  0  0  0  0  0
   15.0993   25.3627   -4.0672 C   0  0  0  0  0  0  0  0  0  0  0  0
   14.1237   25.0378   -3.1097 C   0  0  0  0  0  0  0  0  0  0  0  0
   12.9460   25.7334   -3.0230 C   0  0  0  0  0  0  0  0  0  0  0  0
   12.7936   26.7788   -3.9490 C   0  0  0  0  0  0  0  0  0  0  0  0
   13.7532   27.0905   -4.8825 C   0  0  0  0  0  0  0  0  0  0  0  0
   16.6322   27.9053   -5.8142 C   0  0  0  0  0  0  0  0  0  0  0  0
   15.9034   26.6961   -5.9027 O   0  0  0  0  0  0  0  0  0  0  0  0
 24 25  1  0  0  0
 25 18  1  0  0  0
 18 19  2  0  0  0
 19 20  1  0  0  0
 20 21  2  0  0  0
 21 16  1  0  0  0
 16  1  1  0  0  0
  1  2  2  0  0  0
  2  3  1  0  0  0
  3 11  1  0  0  0
 11 12  1  0  0  0
 12 13  1  0  0  0
 13 14  1  0  0  0
 14 15  1  0  0  0
  3  4  2  0  0  0
  4  5  1  0  0  0
  5  6  2  0  0  0
  6  7  1  0  0  0
  7  8  2  0  0  0
  8  9  1  0  0  0
  9 10  2  0  0  0
 21 22  1  0  0  0
 22 23  2  0  0  0
 23 18  1  0  0  0
 10  1  1  0  0  0
 15 11  1  0  0  0
  9  4  1  0  0  0
 16 17  1  0  0  0
M  END
> <minimizedAffinity>
-4.33064

> <CNNscore>
0.2661618888

> <CNNaffinity>
6.5853958130

> <CNN_VS>
1.7527813911

> <CNNaffinity_variance>
0.2915976048

$$$$
[H]c1c([H])c(N([H])c2nc(N3C([H])([H])C([H])([H])C([H])([H])C3([H])[H])c3c([H])c([H])c([H])c([H])c3n2)c([H])c([H])c1OC([H])([H])[H]


 25 28  0  0  0  0  0  0  0  0999 V2000
   12.6772   23.1167   -0.7609 C   0  0  0  0  0  0  0  0  0  0  0  0
   12.6247   22.6280    0.4809 N   0  0  0  0  0  0  0  0  0  0  0  0
   11.6955   21.7462    0.9031 C   0  0  0  0  0  0  0  0  0  0  0  0
   10.7463   21.3281   -0.0014 C   0  0  0  0  0  0  0  0  0  0  0  0
    9.7619   20.4429    0.3503 C   0  0  0  0  0  0  0  0  0  0  0  0
    8.8330   20.0694   -0.6058 C   0  0  0  0  0  0  0  0  0  0  0  0
    8.8584   20.5493   -1.8883 C   0  0  0  0  0  0  0  0  0  0  0  0
    9.8338   21.4346   -2.2557 C   0  0  0  0  0  0  0  0  0  0  0  0
   10.7792   21.8245   -1.3085 C   0  0  0  0  0  0  0  0  0  0  0  0
   11.7469   22.6936   -1.6141 N   0  0  0  0  0  0  0  0  0  0  0  0
   11.7425   21.2559    2.2428 N   0  0  0  0  0  0  0  0  0  0  0  0
   11.0469   21.7712    3.3783 C   0  0  0  0  0  0  0  0  0  0  0  0
   10.9771   20.6192    4.3836 C   0  0  0  0  0  0  0  0  0  0  0  0
   11.5145   19.4539    3.6224 C   0  0  0  0  0  0  0  0  0  0  0  0
   12.5206   20.1196    2.6753 C   0  0  0  0  0  0  0  0  0  0  0  0
   13.6767   24.0497   -1.1078 N   0  0  0  0  0  0  0  0  0  0  0  0
   14.4391   24.1846   -0.3765 H   0  0  0  0  0  0  0  0  0  0  0  0
   14.2688   26.2302   -4.7158 C   0  0  0  0  0  0  0  0  0  0  0  0
   13.2452   26.5631   -3.8656 C   0  0  0  0  0  0  0  0  0  0  0  0
   13.0080   25.8654   -2.6693 C   0  0  0  0  0  0  0  0  0  0  0  0
   13.7940   24.8093   -2.2884 C   0  0  0  0  0  0  0  0  0  0  0  0
   14.8363   24.4838   -3.1723 C   0  0  0  0  0  0  0  0  0  0  0  0
   15.0615   25.1713   -4.3411 C   0  0  0  0  0  0  0  0  0  0  0  0
   15.3567   26.4106   -6.8845 C   0  0  0  0  0  0  0  0  0  0  0  0
   14.4907   26.9280   -5.8928 O   0  0  0  0  0  0  0  0  0  0  0  0
 24 25  1  0  0  0
 25 18  1  0  0  0
 18 19  2  0  0  0
 19 20  1  0  0  0
 20 21  2  0  0  0
 21 16  1  0  0  0
 16  1  1  0  0  0
  1  2  2  0  0  0
  2  3  1  0  0  0
  3 11  1  0  0  0
 11 12  1  0  0  0
 12 13  1  0  0  0
 13 14  1  0  0  0
 14 15  1  0  0  0
  3  4  2  0  0  0
  4  5  1  0  0  0
  5  6  2  0  0  0
  6  7  1  0  0  0
  7  8  2  0  0  0
  8  9  1  0  0  0
  9 10  2  0  0  0
 21 22  1  0  0  0
 22 23  2  0  0  0
 23 18  1  0  0  0
 10  1  1  0  0  0
 15 11  1  0  0  0
  9  4  1  0  0  0
 16 17  1  0  0  0
M  END
> <minimizedAffinity>
-7.96479

> <CNNscore>
0.2392478734

> <CNNaffinity>
6.3281836510

> <CNN_VS>
1.5140044689

> <CNNaffinity_variance>
0.0376163237

$$$$
[H]c1c([H])c(N([H])c2nc(N3C([H])([H])C([H])([H])C([H])([H])C3([H])[H])c3c([H])c([H])c([H])c([H])c3n2)c([H])c([H])c1OC([H])([H])[H]


 25 28  0  0  0  0  0  0  0  0999 V2000
   12.3893   22.2874    0.3151 C   0  0  0  0  0  0  0  0  0  0  0  0
   11.2823   21.8776   -0.3096 N   0  0  0  0  0  0  0  0  0  0  0  0
   10.1614   21.4830    0.3285 C   0  0  0  0  0  0  0  0  0  0  0  0
   10.1622   21.5042    1.7046 C   0  0  0  0  0  0  0  0  0  0  0  0
    9.0683   21.1091    2.4282 C   0  0  0  0  0  0  0  0  0  0  0  0
    9.1380   21.1472    3.8103 C   0  0  0  0  0  0  0  0  0  0  0  0
   10.2560   21.5636    4.4829 C   0  0  0  0  0  0  0  0  0  0  0  0
   11.3573   21.9604    3.7757 C   0  0  0  0  0  0  0  0  0  0  0  0
   11.3089   21.9296    2.3830 C   0  0  0  0  0  0  0  0  0  0  0  0
   12.3605   22.2983    1.6460 N   0  0  0  0  0  0  0  0  0  0  0  0
    9.0161   21.0931   -0.4288 N   0  0  0  0  0  0  0  0  0  0  0  0
    8.9922   20.5864   -1.7636 C   0  0  0  0  0  0  0  0  0  0  0  0
    7.6745   19.8190   -1.8955 C   0  0  0  0  0  0  0  0  0  0  0  0
    7.1266   19.8180   -0.5077 C   0  0  0  0  0  0  0  0  0  0  0  0
    7.6561   21.1438    0.0525 C   0  0  0  0  0  0  0  0  0  0  0  0
   13.5216   22.6656   -0.4364 N   0  0  0  0  0  0  0  0  0  0  0  0
   14.4179   22.1448   -0.1921 H   0  0  0  0  0  0  0  0  0  0  0  0
   14.0197   25.4589   -3.6101 C   0  0  0  0  0  0  0  0  0  0  0  0
   13.0699   25.6711   -2.6437 C   0  0  0  0  0  0  0  0  0  0  0  0
   12.8654   24.7716   -1.5839 C   0  0  0  0  0  0  0  0  0  0  0  0
   13.6111   23.6283   -1.4611 C   0  0  0  0  0  0  0  0  0  0  0  0
   14.5780   23.4289   -2.4605 C   0  0  0  0  0  0  0  0  0  0  0  0
   14.7716   24.3138   -3.4945 C   0  0  0  0  0  0  0  0  0  0  0  0
   15.3704   27.1630   -4.7014 C   0  0  0  0  0  0  0  0  0  0  0  0
   14.2101   26.3555   -4.6500 O   0  0  0  0  0  0  0  0  0  0  0  0
 24 25  1  0  0  0
 25 18  1  0  0  0
 18 19  2  0  0  0
 19 20  1  0  0  0
 20 21  2  0  0  0
 21 16  1  0  0  0
 16  1  1  0  0  0
  1  2  2  0  0  0
  2  3  1  0  0  0
  3 11  1  0  0  0
 11 12  1  0  0  0
 12 13  1  0  0  0
 13 14  1  0  0  0
 14 15  1  0  0  0
  3  4  2  0  0  0
  4  5  1  0  0  0
  5  6  2  0  0  0
  6  7  1  0  0  0
  7  8  2  0  0  0
  8  9  1  0  0  0
  9 10  2  0  0  0
 21 22  1  0  0  0
 22 23  2  0  0  0
 23 18  1  0  0  0
 10  1  1  0  0  0
 15 11  1  0  0  0
  9  4  1  0  0  0
 16 17  1  0  0  0
M  END
> <minimizedAffinity>
-6.73384

> <CNNscore>
0.2338758558

> <CNNaffinity>
6.1861186028

> <CNN_VS>
1.4467837811

> <CNNaffinity_variance>
0.3429585099

$$$$
[H]c1c([H])c(N([H])c2nc(N3C([H])([H])C([H])([H])C([H])([H])C3([H])[H])c3c([H])c([H])c([H])c([H])c3n2)c([H])c([H])c1OC([H])([H])[H]


 25 28  0  0  0  0  0  0  0  0999 V2000
   12.6806   24.6186   -1.2704 C   0  0  0  0  0  0  0  0  0  0  0  0
   11.5670   24.4484   -0.5531 N   0  0  0  0  0  0  0  0  0  0  0  0
   11.3869   23.4435    0.3284 C   0  0  0  0  0  0  0  0  0  0  0  0
   12.4128   22.5415    0.4954 C   0  0  0  0  0  0  0  0  0  0  0  0
   12.3058   21.4866    1.3626 C   0  0  0  0  0  0  0  0  0  0  0  0
   13.3720   20.6112    1.4773 C   0  0  0  0  0  0  0  0  0  0  0  0
   14.5288   20.7570    0.7587 C   0  0  0  0  0  0  0  0  0  0  0  0
   14.6518   21.8041   -0.1124 C   0  0  0  0  0  0  0  0  0  0  0  0
   13.5899   22.6975   -0.2437 C   0  0  0  0  0  0  0  0  0  0  0  0
   13.6561   23.7315   -1.0873 N   0  0  0  0  0  0  0  0  0  0  0  0
   10.1719   23.3650    1.0734 N   0  0  0  0  0  0  0  0  0  0  0  0
    9.8156   24.1214    2.2308 C   0  0  0  0  0  0  0  0  0  0  0  0
    8.2867   24.0905    2.2956 C   0  0  0  0  0  0  0  0  0  0  0  0
    7.8928   23.4324    1.0158 C   0  0  0  0  0  0  0  0  0  0  0  0
    9.0714   22.4848    0.7606 C   0  0  0  0  0  0  0  0  0  0  0  0
   12.7724   25.6909   -2.1825 N   0  0  0  0  0  0  0  0  0  0  0  0
   12.1348   26.5172   -1.9706 H   0  0  0  0  0  0  0  0  0  0  0  0
   15.1026   26.2321   -5.7038 C   0  0  0  0  0  0  0  0  0  0  0  0
   15.3178   25.1485   -4.8910 C   0  0  0  0  0  0  0  0  0  0  0  0
   14.5785   24.9353   -3.7153 C   0  0  0  0  0  0  0  0  0  0  0  0
   13.5970   25.8058   -3.3189 C   0  0  0  0  0  0  0  0  0  0  0  0
   13.3922   26.9090   -4.1642 C   0  0  0  0  0  0  0  0  0  0  0  0
   14.1201   27.1106   -5.3127 C   0  0  0  0  0  0  0  0  0  0  0  0
   15.6950   25.5563   -7.9647 C   0  0  0  0  0  0  0  0  0  0  0  0
   15.8400   26.4291   -6.8610 O   0  0  0  0  0  0  0  0  0  0  0  0
 24 25  1  0  0  0
 25 18  1  0  0  0
 18 19  2  0  0  0
 19 20  1  0  0  0
 20 21  2  0  0  0
 21 16  1  0  0  0
 16  1  1  0  0  0
  1  2  2  0  0  0
  2  3  1  0  0  0
  3 11  1  0  0  0
 11 12  1  0  0  0
 12 13  1  0  0  0
 13 14  1  0  0  0
 14 15  1  0  0  0
  3  4  2  0  0  0
  4  5  1  0  0  0
  5  6  2  0  0  0
  6  7  1  0  0  0
  7  8  2  0  0  0
  8  9  1  0  0  0
  9 10  2  0  0  0
 21 22  1  0  0  0
 22 23  2  0  0  0
 23 18  1  0  0  0
 10  1  1  0  0  0
 15 11  1  0  0  0
  9  4  1  0  0  0
 16 17  1  0  0  0
M  END
> <minimizedAffinity>
-8.31500

> <CNNscore>
0.1904992163

> <CNNaffinity>
6.4202246666

> <CNN_VS>
1.2230477333

> <CNNaffinity_variance>
0.0364420637

$$$$
[H]c1c([H])c(N([H])c2nc(N3C([H])([H])C([H])([H])C([H])([H])C3([H])[H])c3c([H])c([H])c([H])c([H])c3n2)c([H])c([H])c1OC([H])([H])[H]


 25 28  0  0  0  0  0  0  0  0999 V2000
   12.2641   23.4036   -0.6580 C   0  0  0  0  0  0  0  0  0  0  0  0
   11.5454   22.3497   -1.0537 N   0  0  0  0  0  0  0  0  0  0  0  0
   10.3348   22.0335   -0.5498 C   0  0  0  0  0  0  0  0  0  0  0  0
    9.8128   22.8463    0.4304 C   0  0  0  0  0  0  0  0  0  0  0  0
    8.5947   22.5887    1.0016 C   0  0  0  0  0  0  0  0  0  0  0  0
    8.1310   23.4417    1.9884 C   0  0  0  0  0  0  0  0  0  0  0  0
    8.8407   24.5320    2.4165 C   0  0  0  0  0  0  0  0  0  0  0  0
   10.0591   24.8030    1.8575 C   0  0  0  0  0  0  0  0  0  0  0  0
   10.5453   23.9567    0.8623 C   0  0  0  0  0  0  0  0  0  0  0  0
   11.7335   24.1721    0.2906 N   0  0  0  0  0  0  0  0  0  0  0  0
    9.6284   20.9039   -1.0620 N   0  0  0  0  0  0  0  0  0  0  0  0
    9.3733   19.6671   -0.3954 C   0  0  0  0  0  0  0  0  0  0  0  0
    8.1592   19.0561   -1.0991 C   0  0  0  0  0  0  0  0  0  0  0  0
    7.7136   20.1322   -2.0316 C   0  0  0  0  0  0  0  0  0  0  0  0
    9.0339   20.8326   -2.3755 C   0  0  0  0  0  0  0  0  0  0  0  0
   13.5302   23.6461   -1.2307 N   0  0  0  0  0  0  0  0  0  0  0  0
   14.3447   23.1648   -0.7415 H   0  0  0  0  0  0  0  0  0  0  0  0
   14.2604   26.1516   -4.5941 C   0  0  0  0  0  0  0  0  0  0  0  0
   15.0038   25.0148   -4.4032 C   0  0  0  0  0  0  0  0  0  0  0  0
   14.8028   24.1642   -3.3031 C   0  0  0  0  0  0  0  0  0  0  0  0
   13.8459   24.4292   -2.3584 C   0  0  0  0  0  0  0  0  0  0  0  0
   13.0957   25.5977   -2.5715 C   0  0  0  0  0  0  0  0  0  0  0  0
   13.2988   26.4249   -3.6505 C   0  0  0  0  0  0  0  0  0  0  0  0
   15.5517   26.7515   -6.5669 C   0  0  0  0  0  0  0  0  0  0  0  0
   14.4701   26.9812   -5.6846 O   0  0  0  0  0  0  0  0  0  0  0  0
 24 25  1  0  0  0
 25 18  1  0  0  0
 18 19  2  0  0  0
 19 20  1  0  0  0
 20 21  2  0  0  0
 21 16  1  0  0  0
 16  1  1  0  0  0
  1  2  2  0  0  0
  2  3  1  0  0  0
  3 11  1  0  0  0
 11 12  1  0  0  0
 12 13  1  0  0  0
 13 14  1  0  0  0
 14 15  1  0  0  0
  3  4  2  0  0  0
  4  5  1  0  0  0
  5  6  2  0  0  0
  6  7  1  0  0  0
  7  8  2  0  0  0
  8  9  1  0  0  0
  9 10  2  0  0  0
 21 22  1  0  0  0
 22 23  2  0  0  0
 23 18  1  0  0  0
 10  1  1  0  0  0
 15 11  1  0  0  0
  9  4  1  0  0  0
 16 17  1  0  0  0
M  END
> <minimizedAffinity>
-7.64097

> <CNNscore>
0.1641783118

> <CNNaffinity>
6.2488837242

> <CNN_VS>
1.0259312391

> <CNNaffinity_variance>
0.0838420987

$$$$
[H]OC12N(C([H])([H])c3c([H])c([H])c(OC([H])([H])[H])c([H])c3[H])C3([H])C4([H])C5([H])C([H])([H])C([H])(C14[H])C1([H])C2([H])C3([H])C51[H]


 23 29  0  0  0  0  0  0  0  0999 V2000
   14.5885   23.7987   -1.3460 N   0  0  0  0  0  0  0  0  0  0  0  0
   13.3092   24.1920   -1.9209 C   0  0  0  0  0  0  0  0  0  0  0  0
   12.4974   22.9616   -1.5796 C   0  0  0  0  0  0  0  0  0  0  0  0
   11.1221   23.4848   -1.2827 C   0  0  0  0  0  0  0  0  0  0  0  0
   10.7160   22.5550   -0.1329 C   0  0  0  0  0  0  0  0  0  0  0  0
   11.9572   22.8194    0.7322 C   0  0  0  0  0  0  0  0  0  0  0  0
   11.9569   24.3129    0.8016 C   0  0  0  0  0  0  0  0  0  0  0  0
   11.3919   24.7574   -0.5553 C   0  0  0  0  0  0  0  0  0  0  0  0
   12.7531   25.2151   -0.9831 C   0  0  0  0  0  0  0  0  0  0  0  0
   13.3046   24.7760    0.3753 C   0  0  0  0  0  0  0  0  0  0  0  0
   14.1370   23.5749    0.0057 C   0  0  0  0  0  0  0  0  0  0  0  0
   15.0610   23.2012    0.9121 O   0  0  0  0  0  0  0  0  0  0  0  0
   13.0517   22.5276   -0.2370 C   0  0  0  0  0  0  0  0  0  0  0  0
   14.9235   23.6591    1.7773 H   0  0  0  0  0  0  0  0  0  0  0  0
   15.5967   24.7941   -1.5048 C   0  0  0  0  0  0  0  0  0  0  0  0
   15.5436   26.1437   -5.6000 C   0  0  0  0  0  0  0  0  0  0  0  0
   15.4600   24.8049   -5.2861 C   0  0  0  0  0  0  0  0  0  0  0  0
   15.4802   24.3717   -3.9785 C   0  0  0  0  0  0  0  0  0  0  0  0
   15.5856   25.2603   -2.9129 C   0  0  0  0  0  0  0  0  0  0  0  0
   15.6690   26.6114   -3.2538 C   0  0  0  0  0  0  0  0  0  0  0  0
   15.6486   27.0415   -4.5618 C   0  0  0  0  0  0  0  0  0  0  0  0
   15.5473   25.6385   -8.0000 C   0  0  0  0  0  0  0  0  0  0  0  0
   15.5216   26.5667   -6.9346 O   0  0  0  0  0  0  0  0  0  0  0  0
 22 23  1  0  0  0
 23 16  1  0  0  0
 16 17  2  0  0  0
 17 18  1  0  0  0
 18 19  2  0  0  0
 19 15  1  0  0  0
 15  1  1  0  0  0
  1  2  1  0  0  0
  2  3  1  0  0  0
  3  4  1  0  0  0
  4  5  1  0  0  0
  5  6  1  0  0  0
  6  7  1  0  0  0
  7  8  1  0  0  0
  8  9  1  0  0  0
  9 10  1  0  0  0
 10 11  1  0  0  0
 11 12  1  0  0  0
 11 13  1  0  0  0
 19 20  1  0  0  0
 20 21  2  0  0  0
 21 16  1  0  0  0
 11  1  1  0  0  0
  9  2  1  0  0  0
 13  3  1  0  0  0
  8  4  1  0  0  0
 13  6  1  0  0  0
 10  7  1  0  0  0
 12 14  1  0  0  0
M  END
> <minimizedAffinity>
-8.88026

> <CNNscore>
0.4819018841

> <CNNaffinity>
6.5608382225

> <CNN_VS>
3.1616802216

> <CNNaffinity_variance>
0.0902914554

$$$$
[H]OC12N(C([H])([H])c3c([H])c([H])c(OC([H])([H])[H])c([H])c3[H])C3([H])C4([H])C5([H])C([H])([H])C([H])(C14[H])C1([H])C2([H])C3([H])C51[H]


 23 29  0  0  0  0  0  0  0  0999 V2000
   12.5542   23.8430   -1.1418 N   0  0  0  0  0  0  0  0  0  0  0  0
   11.3114   23.0967   -1.2844 C   0  0  0  0  0  0  0  0  0  0  0  0
   11.7791   21.7439   -0.7943 C   0  0  0  0  0  0  0  0  0  0  0  0
   10.5951   21.1727   -0.0697 C   0  0  0  0  0  0  0  0  0  0  0  0
   11.3001   20.4568    1.0887 C   0  0  0  0  0  0  0  0  0  0  0  0
   12.1091   21.6742    1.5600 C   0  0  0  0  0  0  0  0  0  0  0  0
   11.0337   22.7006    1.7191 C   0  0  0  0  0  0  0  0  0  0  0  0
   10.0150   22.3586    0.6221 C   0  0  0  0  0  0  0  0  0  0  0  0
   10.4405   23.5625   -0.1620 C   0  0  0  0  0  0  0  0  0  0  0  0
   11.4470   23.8989    0.9408 C   0  0  0  0  0  0  0  0  0  0  0  0
   12.7637   23.6102    0.2663 C   0  0  0  0  0  0  0  0  0  0  0  0
   13.8480   24.1758    0.8316 O   0  0  0  0  0  0  0  0  0  0  0  0
   12.7798   22.0829    0.2929 C   0  0  0  0  0  0  0  0  0  0  0  0
   13.6387   24.5429    1.7253 H   0  0  0  0  0  0  0  0  0  0  0  0
   12.4282   25.2086   -1.5313 C   0  0  0  0  0  0  0  0  0  0  0  0
   14.9985   25.9343   -4.9168 C   0  0  0  0  0  0  0  0  0  0  0  0
   13.9577   26.7841   -4.6128 C   0  0  0  0  0  0  0  0  0  0  0  0
   13.1336   26.5520   -3.5334 C   0  0  0  0  0  0  0  0  0  0  0  0
   13.3095   25.4522   -2.6992 C   0  0  0  0  0  0  0  0  0  0  0  0
   14.3695   24.6048   -3.0257 C   0  0  0  0  0  0  0  0  0  0  0  0
   15.1918   24.8393   -4.1052 C   0  0  0  0  0  0  0  0  0  0  0  0
   15.4440   25.8106   -7.3255 C   0  0  0  0  0  0  0  0  0  0  0  0
   15.8266   26.1852   -6.0176 O   0  0  0  0  0  0  0  0  0  0  0  0
 22 23  1  0  0  0
 23 16  1  0  0  0
 16 17  2  0  0  0
 17 18  1  0  0  0
 18 19  2  0  0  0
 19 15  1  0  0  0
 15  1  1  0  0  0
  1  2  1  0  0  0
  2  3  1  0  0  0
  3  4  1  0  0  0
  4  5  1  0  0  0
  5  6  1  0  0  0
  6  7  1  0  0  0
  7  8  1  0  0  0
  8  9  1  0  0  0
  9 10  1  0  0  0
 10 11  1  0  0  0
 11 12  1  0  0  0
 11 13  1  0  0  0
 19 20  1  0  0  0
 20 21  2  0  0  0
 21 16  1  0  0  0
 11  1  1  0  0  0
  9  2  1  0  0  0
 13  3  1  0  0  0
  8  4  1  0  0  0
 13  6  1  0  0  0
 10  7  1  0  0  0
 12 14  1  0  0  0
M  END
> <minimizedAffinity>
-9.14864

> <CNNscore>
0.4627393782

> <CNNaffinity>
6.4309906960

> <CNN_VS>
2.9758727551

> <CNNaffinity_variance>
0.0841228291

$$$$
[H]OC12N(C([H])([H])c3c([H])c([H])c(OC([H])([H])[H])c([H])c3[H])C3([H])C4([H])C5([H])C([H])([H])C([H])(C14[H])C1([H])C2([H])C3([H])C51[H]


 23 29  0  0  0  0  0  0  0  0999 V2000
   14.0395   23.7857   -1.3046 N   0  0  0  0  0  0  0  0  0  0  0  0
   13.4924   22.5370   -1.8178 C   0  0  0  0  0  0  0  0  0  0  0  0
   14.4568   21.5637   -1.1760 C   0  0  0  0  0  0  0  0  0  0  0  0
   13.6211   20.3595   -0.8519 C   0  0  0  0  0  0  0  0  0  0  0  0
   14.2455   19.9426    0.4851 C   0  0  0  0  0  0  0  0  0  0  0  0
   14.1024   21.3136    1.1625 C   0  0  0  0  0  0  0  0  0  0  0  0
   12.6501   21.5982    0.9507 C   0  0  0  0  0  0  0  0  0  0  0  0
   12.3288   20.9525   -0.4050 C   0  0  0  0  0  0  0  0  0  0  0  0
   12.2368   22.3070   -1.0393 C   0  0  0  0  0  0  0  0  0  0  0  0
   12.5498   22.9407    0.3182 C   0  0  0  0  0  0  0  0  0  0  0  0
   13.9402   23.4813    0.1020 C   0  0  0  0  0  0  0  0  0  0  0  0
   14.3410   24.4309    0.9696 O   0  0  0  0  0  0  0  0  0  0  0  0
   14.7680   22.1990    0.1648 C   0  0  0  0  0  0  0  0  0  0  0  0
   13.7285   24.4947    1.7429 H   0  0  0  0  0  0  0  0  0  0  0  0
   13.3122   24.9308   -1.7428 C   0  0  0  0  0  0  0  0  0  0  0  0
   14.9806   26.2888   -5.4800 C   0  0  0  0  0  0  0  0  0  0  0  0
   13.8617   26.8822   -4.9377 C   0  0  0  0  0  0  0  0  0  0  0  0
   13.3255   26.4474   -3.7454 C   0  0  0  0  0  0  0  0  0  0  0  0
   13.8839   25.3916   -3.0315 C   0  0  0  0  0  0  0  0  0  0  0  0
   15.0164   24.8054   -3.5992 C   0  0  0  0  0  0  0  0  0  0  0  0
   15.5504   25.2421   -4.7911 C   0  0  0  0  0  0  0  0  0  0  0  0
   15.6126   25.8920   -7.8163 C   0  0  0  0  0  0  0  0  0  0  0  0
   15.5126   26.7434   -6.6928 O   0  0  0  0  0  0  0  0  0  0  0  0
 22 23  1  0  0  0
 23 16  1  0  0  0
 16 17  2  0  0  0
 17 18  1  0  0  0
 18 19  2  0  0  0
 19 15  1  0  0  0
 15  1  1  0  0  0
  1  2  1  0  0  0
  2  3  1  0  0  0
  3  4  1  0  0  0
  4  5  1  0  0  0
  5  6  1  0  0  0
  6  7  1  0  0  0
  7  8  1  0  0  0
  8  9  1  0  0  0
  9 10  1  0  0  0
 10 11  1  0  0  0
 11 12  1  0  0  0
 11 13  1  0  0  0
 19 20  1  0  0  0
 20 21  2  0  0  0
 21 16  1  0  0  0
 11  1  1  0  0  0
  9  2  1  0  0  0
 13  3  1  0  0  0
  8  4  1  0  0  0
 13  6  1  0  0  0
 10  7  1  0  0  0
 12 14  1  0  0  0
M  END
> <minimizedAffinity>
-8.38684

> <CNNscore>
0.4492149055

> <CNNaffinity>
6.3312411308

> <CNN_VS>
2.8440878391

> <CNNaffinity_variance>
0.5089420676

$$$$
[H]OC12N(C([H])([H])c3c([H])c([H])c(OC([H])([H])[H])c([H])c3[H])C3([H])C4([H])C5([H])C([H])([H])C([H])(C14[H])C1([H])C2([H])C3([H])C51[H]


 23 29  0  0  0  0  0  0  0  0999 V2000
   11.9774   23.2887    1.1408 N   0  0  0  0  0  0  0  0  0  0  0  0
   11.9184   24.1827   -0.0078 C   0  0  0  0  0  0  0  0  0  0  0  0
   13.3038   24.7849    0.0778 C   0  0  0  0  0  0  0  0  0  0  0  0
   13.7197   24.9844   -1.3507 C   0  0  0  0  0  0  0  0  0  0  0  0
   15.2106   24.6393   -1.2543 C   0  0  0  0  0  0  0  0  0  0  0  0
   15.0149   23.2714   -0.5840 C   0  0  0  0  0  0  0  0  0  0  0  0
   14.0467   22.6198   -1.5186 C   0  0  0  0  0  0  0  0  0  0  0  0
   13.1780   23.7761   -2.0347 C   0  0  0  0  0  0  0  0  0  0  0  0
   12.0268   23.2942   -1.2053 C   0  0  0  0  0  0  0  0  0  0  0  0
   12.8986   22.1408   -0.7032 C   0  0  0  0  0  0  0  0  0  0  0  0
   13.1313   22.5234    0.7361 C   0  0  0  0  0  0  0  0  0  0  0  0
   13.5282   21.5263    1.5505 O   0  0  0  0  0  0  0  0  0  0  0  0
   14.1615   23.6407    0.5812 C   0  0  0  0  0  0  0  0  0  0  0  0
   13.7952   20.7253    1.0364 H   0  0  0  0  0  0  0  0  0  0  0  0
   10.7754   22.5449    1.3261 C   0  0  0  0  0  0  0  0  0  0  0  0
    8.4494   24.4593    4.4114 C   0  0  0  0  0  0  0  0  0  0  0  0
    9.1183   23.2783    4.6477 C   0  0  0  0  0  0  0  0  0  0  0  0
    9.8592   22.6637    3.6622 C   0  0  0  0  0  0  0  0  0  0  0  0
    9.9691   23.2017    2.3837 C   0  0  0  0  0  0  0  0  0  0  0  0
    9.2836   24.3982    2.1665 C   0  0  0  0  0  0  0  0  0  0  0  0
    8.5438   25.0104    3.1535 C   0  0  0  0  0  0  0  0  0  0  0  0
    7.4608   26.4635    5.4222 C   0  0  0  0  0  0  0  0  0  0  0  0
    7.7009   25.0708    5.4246 O   0  0  0  0  0  0  0  0  0  0  0  0
 22 23  1  0  0  0
 23 16  1  0  0  0
 16 17  2  0  0  0
 17 18  1  0  0  0
 18 19  2  0  0  0
 19 15  1  0  0  0
 15  1  1  0  0  0
  1  2  1  0  0  0
  2  3  1  0  0  0
  3  4  1  0  0  0
  4  5  1  0  0  0
  5  6  1  0  0  0
  6  7  1  0  0  0
  7  8  1  0  0  0
  8  9  1  0  0  0
  9 10  1  0  0  0
 10 11  1  0  0  0
 11 12  1  0  0  0
 11 13  1  0  0  0
 19 20  1  0  0  0
 20 21  2  0  0  0
 21 16  1  0  0  0
 11  1  1  0  0  0
  9  2  1  0  0  0
 13  3  1  0  0  0
  8  4  1  0  0  0
 13  6  1  0  0  0
 10  7  1  0  0  0
 12 14  1  0  0  0
M  END
> <minimizedAffinity>
-6.57171

> <CNNscore>
0.3607786894

> <CNNaffinity>
5.9206981659

> <CNN_VS>
2.1360616684

> <CNNaffinity_variance>
0.0263898261

$$$$
[H]OC12N(C([H])([H])c3c([H])c([H])c(OC([H])([H])[H])c([H])c3[H])C3([H])C4([H])C5([H])C([H])([H])C([H])(C14[H])C1([H])C2([H])C3([H])C51[H]


 23 29  0  0  0  0  0  0  0  0999 V2000
   12.6708   23.1820   -1.4966 N   0  0  0  0  0  0  0  0  0  0  0  0
   11.7402   23.5888   -0.4524 C   0  0  0  0  0  0  0  0  0  0  0  0
   10.5578   22.7215   -0.8250 C   0  0  0  0  0  0  0  0  0  0  0  0
    9.9368   22.3421    0.4879 C   0  0  0  0  0  0  0  0  0  0  0  0
    9.5117   20.9002    0.1852 C   0  0  0  0  0  0  0  0  0  0  0  0
   10.8898   20.4258   -0.2993 C   0  0  0  0  0  0  0  0  0  0  0  0
   11.7625   20.8363    0.8432 C   0  0  0  0  0  0  0  0  0  0  0  0
   11.1167   22.1251    1.3723 C   0  0  0  0  0  0  0  0  0  0  0  0
   12.2383   22.9350    0.7966 C   0  0  0  0  0  0  0  0  0  0  0  0
   12.8777   21.6438    0.2804 C   0  0  0  0  0  0  0  0  0  0  0  0
   12.6841   21.7684   -1.2093 C   0  0  0  0  0  0  0  0  0  0  0  0
   13.4784   20.9905   -1.9703 O   0  0  0  0  0  0  0  0  0  0  0  0
   11.1965   21.4471   -1.3411 C   0  0  0  0  0  0  0  0  0  0  0  0
   13.9411   20.3066   -1.4268 H   0  0  0  0  0  0  0  0  0  0  0  0
   13.9301   23.8440   -1.4052 C   0  0  0  0  0  0  0  0  0  0  0  0
   14.5067   26.1803   -4.9834 C   0  0  0  0  0  0  0  0  0  0  0  0
   15.2841   25.0745   -4.7172 C   0  0  0  0  0  0  0  0  0  0  0  0
   15.1034   24.3289   -3.5729 C   0  0  0  0  0  0  0  0  0  0  0  0
   14.1310   24.6532   -2.6318 C   0  0  0  0  0  0  0  0  0  0  0  0
   13.3552   25.7769   -2.9217 C   0  0  0  0  0  0  0  0  0  0  0  0
   13.5380   26.5203   -4.0664 C   0  0  0  0  0  0  0  0  0  0  0  0
   15.7132   26.5858   -7.0799 C   0  0  0  0  0  0  0  0  0  0  0  0
   14.7038   26.9269   -6.1515 O   0  0  0  0  0  0  0  0  0  0  0  0
 22 23  1  0  0  0
 23 16  1  0  0  0
 16 17  2  0  0  0
 17 18  1  0  0  0
 18 19  2  0  0  0
 19 15  1  0  0  0
 15  1  1  0  0  0
  1  2  1  0  0  0
  2  3  1  0  0  0
  3  4  1  0  0  0
  4  5  1  0  0  0
  5  6  1  0  0  0
  6  7  1  0  0  0
  7  8  1  0  0  0
  8  9  1  0  0  0
  9 10  1  0  0  0
 10 11  1  0  0  0
 11 12  1  0  0  0
 11 13  1  0  0  0
 19 20  1  0  0  0
 20 21  2  0  0  0
 21 16  1  0  0  0
 11  1  1  0  0  0
  9  2  1  0  0  0
 13  3  1  0  0  0
  8  4  1  0  0  0
 13  6  1  0  0  0
 10  7  1  0  0  0
 12 14  1  0  0  0
M  END
> <minimizedAffinity>
-9.41160

> <CNNscore>
0.3597117662

> <CNNaffinity>
6.1304159164

> <CNN_VS>
2.2051827908

> <CNNaffinity_variance>
0.1105665714

$$$$
[H]OC12N(C([H])([H])c3c([H])c([H])c(OC([H])([H])[H])c([H])c3[H])C3([H])C4([H])C5([H])C([H])([H])C([H])(C14[H])C1([H])C2([H])C3([H])C51[H]


 23 29  0  0  0  0  0  0  0  0999 V2000
   12.3302   23.9314   -0.8318 N   0  0  0  0  0  0  0  0  0  0  0  0
   12.1736   22.5547   -1.2813 C   0  0  0  0  0  0  0  0  0  0  0  0
   12.6789   21.8349   -0.0501 C   0  0  0  0  0  0  0  0  0  0  0  0
   11.8331   20.5981    0.0403 C   0  0  0  0  0  0  0  0  0  0  0  0
   11.6661   20.4891    1.5607 C   0  0  0  0  0  0  0  0  0  0  0  0
   11.1471   21.9198    1.7673 C   0  0  0  0  0  0  0  0  0  0  0  0
   10.0200   21.9703    0.7864 C   0  0  0  0  0  0  0  0  0  0  0  0
   10.4840   21.0776   -0.3737 C   0  0  0  0  0  0  0  0  0  0  0  0
   10.7034   22.2877   -1.2298 C   0  0  0  0  0  0  0  0  0  0  0  0
   10.2319   23.1679   -0.0700 C   0  0  0  0  0  0  0  0  0  0  0  0
   11.5097   23.8471    0.3517 C   0  0  0  0  0  0  0  0  0  0  0  0
   11.3631   24.9689    1.0832 O   0  0  0  0  0  0  0  0  0  0  0  0
   12.2147   22.7137    1.0946 C   0  0  0  0  0  0  0  0  0  0  0  0
   10.4324   25.0741    1.3996 H   0  0  0  0  0  0  0  0  0  0  0  0
   11.9132   24.8836   -1.8074 C   0  0  0  0  0  0  0  0  0  0  0  0
   15.4059   26.4840   -3.7655 C   0  0  0  0  0  0  0  0  0  0  0  0
   14.1378   26.8917   -4.1173 C   0  0  0  0  0  0  0  0  0  0  0  0
   13.0207   26.3790   -3.4950 C   0  0  0  0  0  0  0  0  0  0  0  0
   13.1158   25.4275   -2.4842 C   0  0  0  0  0  0  0  0  0  0  0  0
   14.4096   25.0289   -2.1440 C   0  0  0  0  0  0  0  0  0  0  0  0
   15.5245   25.5432   -2.7677 C   0  0  0  0  0  0  0  0  0  0  0  0
   17.4364   27.8591   -3.7264 C   0  0  0  0  0  0  0  0  0  0  0  0
   16.5305   27.0155   -4.4084 O   0  0  0  0  0  0  0  0  0  0  0  0
 22 23  1  0  0  0
 23 16  1  0  0  0
 16 17  2  0  0  0
 17 18  1  0  0  0
 18 19  2  0  0  0
 19 15  1  0  0  0
 15  1  1  0  0  0
  1  2  1  0  0  0
  2  3  1  0  0  0
  3  4  1  0  0  0
  4  5  1  0  0  0
  5  6  1  0  0  0
  6  7  1  0  0  0
  7  8  1  0  0  0
  8  9  1  0  0  0
  9 10  1  0  0  0
 10 11  1  0  0  0
 11 12  1  0  0  0
 11 13  1  0  0  0
 19 20  1  0  0  0
 20 21  2  0  0  0
 21 16  1  0  0  0
 11  1  1  0  0  0
  9  2  1  0  0  0
 13  3  1  0  0  0
  8  4  1  0  0  0
 13  6  1  0  0  0
 10  7  1  0  0  0
 12 14  1  0  0  0
M  END
> <minimizedAffinity>
-8.16244

> <CNNscore>
0.3198401034

> <CNNaffinity>
6.1597228050

> <CNN_VS>
1.9701263905

> <CNNaffinity_variance>
0.0986231491

$$$$
[H]OC12N(C([H])([H])c3c([H])c([H])c(OC([H])([H])[H])c([H])c3[H])C3([H])C4([H])C5([H])C([H])([H])C([H])(C14[H])C1([H])C2([H])C3([H])C51[H]


 23 29  0  0  0  0  0  0  0  0999 V2000
   12.0569   23.7742   -0.8385 N   0  0  0  0  0  0  0  0  0  0  0  0
   12.0996   23.9678    0.6046 C   0  0  0  0  0  0  0  0  0  0  0  0
   10.6499   24.3264    0.8477 C   0  0  0  0  0  0  0  0  0  0  0  0
   10.3275   23.7193    2.1821 C   0  0  0  0  0  0  0  0  0  0  0  0
    8.8853   23.2606    1.9349 C   0  0  0  0  0  0  0  0  0  0  0  0
    9.1890   22.4589    0.6605 C   0  0  0  0  0  0  0  0  0  0  0  0
   10.2988   21.5720    1.1264 C   0  0  0  0  0  0  0  0  0  0  0  0
   11.0616   22.4226    2.1523 C   0  0  0  0  0  0  0  0  0  0  0  0
   12.1928   22.5928    1.1845 C   0  0  0  0  0  0  0  0  0  0  0  0
   11.4277   21.7372    0.1721 C   0  0  0  0  0  0  0  0  0  0  0  0
   11.0380   22.7535   -0.8707 C   0  0  0  0  0  0  0  0  0  0  0  0
   10.6996   22.2559   -2.0761 O   0  0  0  0  0  0  0  0  0  0  0  0
    9.8975   23.4812   -0.1612 C   0  0  0  0  0  0  0  0  0  0  0  0
   10.5715   21.2763   -2.0388 H   0  0  0  0  0  0  0  0  0  0  0  0
   13.3205   23.4047   -1.3856 C   0  0  0  0  0  0  0  0  0  0  0  0
   14.3731   26.2307   -4.4678 C   0  0  0  0  0  0  0  0  0  0  0  0
   15.0773   25.0585   -4.3002 C   0  0  0  0  0  0  0  0  0  0  0  0
   14.7444   24.1561   -3.3139 C   0  0  0  0  0  0  0  0  0  0  0  0
   13.6849   24.3815   -2.4406 C   0  0  0  0  0  0  0  0  0  0  0  0
   12.9855   25.5749   -2.6284 C   0  0  0  0  0  0  0  0  0  0  0  0
   13.3204   26.4751   -3.6152 C   0  0  0  0  0  0  0  0  0  0  0  0
   15.4550   26.7238   -6.6130 C   0  0  0  0  0  0  0  0  0  0  0  0
   14.7249   27.1369   -5.4756 O   0  0  0  0  0  0  0  0  0  0  0  0
 22 23  1  0  0  0
 23 16  1  0  0  0
 16 17  2  0  0  0
 17 18  1  0  0  0
 18 19  2  0  0  0
 19 15  1  0  0  0
 15  1  1  0  0  0
  1  2  1  0  0  0
  2  3  1  0  0  0
  3  4  1  0  0  0
  4  5  1  0  0  0
  5  6  1  0  0  0
  6  7  1  0  0  0
  7  8  1  0  0  0
  8  9  1  0  0  0
  9 10  1  0  0  0
 10 11  1  0  0  0
 11 12  1  0  0  0
 11 13  1  0  0  0
 19 20  1  0  0  0
 20 21  2  0  0  0
 21 16  1  0  0  0
 11  1  1  0  0  0
  9  2  1  0  0  0
 13  3  1  0  0  0
  8  4  1  0  0  0
 13  6  1  0  0  0
 10  7  1  0  0  0
 12 14  1  0  0  0
M  END
> <minimizedAffinity>
-9.04999

> <CNNscore>
0.2874133289

> <CNNaffinity>
5.8825826645

> <CNN_VS>
1.6907327175

> <CNNaffinity_variance>
0.1354284734

$$$$
[H]OC12N(C([H])([H])c3c([H])c([H])c(OC([H])([H])[H])c([H])c3[H])C3([H])C4([H])C5([H])C([H])([H])C([H])(C14[H])C1([H])C2([H])C3([H])C51[H]


 23 29  0  0  0  0  0  0  0  0999 V2000
   13.3895   25.9041   -0.3780 N   0  0  0  0  0  0  0  0  0  0  0  0
   13.5964   26.1578   -1.7974 C   0  0  0  0  0  0  0  0  0  0  0  0
   15.0868   25.9098   -1.8769 C   0  0  0  0  0  0  0  0  0  0  0  0
   15.2953   25.2798   -3.2234 C   0  0  0  0  0  0  0  0  0  0  0  0
   16.3968   24.2677   -2.8865 C   0  0  0  0  0  0  0  0  0  0  0  0
   15.6528   23.6053   -1.7175 C   0  0  0  0  0  0  0  0  0  0  0  0
   14.3449   23.2624   -2.3555 C   0  0  0  0  0  0  0  0  0  0  0  0
   14.1084   24.3903   -3.3703 C   0  0  0  0  0  0  0  0  0  0  0  0
   13.0331   24.9630   -2.4979 C   0  0  0  0  0  0  0  0  0  0  0  0
   13.2713   23.8302   -1.4967 C   0  0  0  0  0  0  0  0  0  0  0  0
   13.9077   24.5584   -0.3404 C   0  0  0  0  0  0  0  0  0  0  0  0
   13.8771   23.9171    0.8440 O   0  0  0  0  0  0  0  0  0  0  0  0
   15.3179   24.7918   -0.8795 C   0  0  0  0  0  0  0  0  0  0  0  0
   13.6089   22.9717    0.7355 H   0  0  0  0  0  0  0  0  0  0  0  0
   12.0286   26.0545    0.0191 C   0  0  0  0  0  0  0  0  0  0  0  0
   10.2135   22.1457    0.1650 C   0  0  0  0  0  0  0  0  0  0  0  0
   10.1341   22.9303   -0.9646 C   0  0  0  0  0  0  0  0  0  0  0  0
   10.7106   24.1807   -1.0118 C   0  0  0  0  0  0  0  0  0  0  0  0
   11.3992   24.7125    0.0742 C   0  0  0  0  0  0  0  0  0  0  0  0
   11.4672   23.9007    1.2077 C   0  0  0  0  0  0  0  0  0  0  0  0
   10.8901   22.6512    1.2520 C   0  0  0  0  0  0  0  0  0  0  0  0
    8.8977   20.3769   -0.9100 C   0  0  0  0  0  0  0  0  0  0  0  0
    9.6218   20.8770    0.1958 O   0  0  0  0  0  0  0  0  0  0  0  0
 22 23  1  0  0  0
 23 16  1  0  0  0
 16 17  2  0  0  0
 17 18  1  0  0  0
 18 19  2  0  0  0
 19 15  1  0  0  0
 15  1  1  0  0  0
  1  2  1  0  0  0
  2  3  1  0  0  0
  3  4  1  0  0  0
  4  5  1  0  0  0
  5  6  1  0  0  0
  6  7  1  0  0  0
  7  8  1  0  0  0
  8  9  1  0  0  0
  9 10  1  0  0  0
 10 11  1  0  0  0
 11 12  1  0  0  0
 11 13  1  0  0  0
 19 20  1  0  0  0
 20 21  2  0  0  0
 21 16  1  0  0  0
 11  1  1  0  0  0
  9  2  1  0  0  0
 13  3  1  0  0  0
  8  4  1  0  0  0
 13  6  1  0  0  0
 10  7  1  0  0  0
 12 14  1  0  0  0
M  END
> <minimizedAffinity>
-2.82094

> <CNNscore>
0.2815668583

> <CNNaffinity>
6.3139867783

> <CNN_VS>
1.7778093815

> <CNNaffinity_variance>
0.2665554881

$$$$
[H]OC12N(C([H])([H])c3c([H])c([H])c(OC([H])([H])[H])c([H])c3[H])C3([H])C4([H])C5([H])C([H])([H])C([H])(C14[H])C1([H])C2([H])C3([H])C51[H]


 23 29  0  0  0  0  0  0  0  0999 V2000
   14.6018   22.7662   -1.0491 N   0  0  0  0  0  0  0  0  0  0  0  0
   14.1631   21.4940   -0.4915 C   0  0  0  0  0  0  0  0  0  0  0  0
   13.7609   21.9572    0.8916 C   0  0  0  0  0  0  0  0  0  0  0  0
   12.5722   21.1112    1.2443 C   0  0  0  0  0  0  0  0  0  0  0  0
   11.7199   22.1360    2.0024 C   0  0  0  0  0  0  0  0  0  0  0  0
   11.7357   23.2042    0.8990 C   0  0  0  0  0  0  0  0  0  0  0  0
   11.2713   22.4154   -0.2832 C   0  0  0  0  0  0  0  0  0  0  0  0
   11.8341   21.0065   -0.0462 C   0  0  0  0  0  0  0  0  0  0  0  0
   12.8425   21.2157   -1.1347 C   0  0  0  0  0  0  0  0  0  0  0  0
   12.2690   22.6153   -1.3681 C   0  0  0  0  0  0  0  0  0  0  0  0
   13.3755   23.5005   -0.8541 C   0  0  0  0  0  0  0  0  0  0  0  0
   13.3470   24.7793   -1.2769 O   0  0  0  0  0  0  0  0  0  0  0  0
   13.1996   23.3455    0.6554 C   0  0  0  0  0  0  0  0  0  0  0  0
   12.4866   24.9960   -1.7129 H   0  0  0  0  0  0  0  0  0  0  0  0
   15.0486   22.6551   -2.3983 C   0  0  0  0  0  0  0  0  0  0  0  0
   15.4326   26.6237   -4.0405 C   0  0  0  0  0  0  0  0  0  0  0  0
   14.4884   25.7403   -4.5160 C   0  0  0  0  0  0  0  0  0  0  0  0
   14.3666   24.4709   -3.9947 C   0  0  0  0  0  0  0  0  0  0  0  0
   15.1873   24.0183   -2.9662 C   0  0  0  0  0  0  0  0  0  0  0  0
   16.1363   24.9295   -2.4999 C   0  0  0  0  0  0  0  0  0  0  0  0
   16.2558   26.1978   -3.0228 C   0  0  0  0  0  0  0  0  0  0  0  0
   16.7862   28.4191   -5.0203 C   0  0  0  0  0  0  0  0  0  0  0  0
   15.5427   27.9104   -4.5818 O   0  0  0  0  0  0  0  0  0  0  0  0
 22 23  1  0  0  0
 23 16  1  0  0  0
 16 17  2  0  0  0
 17 18  1  0  0  0
 18 19  2  0  0  0
 19 15  1  0  0  0
 15  1  1  0  0  0
  1  2  1  0  0  0
  2  3  1  0  0  0
  3  4  1  0  0  0
  4  5  1  0  0  0
  5  6  1  0  0  0
  6  7  1  0  0  0
  7  8  1  0  0  0
  8  9  1  0  0  0
  9 10  1  0  0  0
 10 11  1  0  0  0
 11 12  1  0  0  0
 11 13  1  0  0  0
 19 20  1  0  0  0
 20 21  2  0  0  0
 21 16  1  0  0  0
 11  1  1  0  0  0
  9  2  1  0  0  0
 13  3  1  0  0  0
  8  4  1  0  0  0
 13  6  1  0  0  0
 10  7  1  0  0  0
 12 14  1  0  0  0
M  END
> <minimizedAffinity>
-6.80740

> <CNNscore>
0.2602768540

> <CNNaffinity>
6.1566491127

> <CNN_VS>
1.6024332047

> <CNNaffinity_variance>
0.3265768290

$$$$
[H]c1nc(N2C([H])([H])C([H])([H])N(C([H])([H])C([H])([H])C([H])([H])Sc3c([H])c([H])c(F)c([H])c3[H])C([H])([H])C2([H])[H])c([H])c([H])c1[H]


 23 25  0  0  0  0  0  0  0  0999 V2000
   12.6454   21.5747   -1.2044 N   0  0  0  0  0  0  0  0  0  0  0  0
   11.9764   22.8476   -1.3132 C   0  0  0  0  0  0  0  0  0  0  0  0
   12.8665   24.0083   -1.6631 C   0  0  0  0  0  0  0  0  0  0  0  0
   13.7945   23.7201   -2.7118 N   0  0  0  0  0  0  0  0  0  0  0  0
   14.2677   22.3691   -2.8677 C   0  0  0  0  0  0  0  0  0  0  0  0
   14.0357   21.6438   -1.5761 C   0  0  0  0  0  0  0  0  0  0  0  0
   14.2285   24.7652   -3.5689 C   0  0  0  0  0  0  0  0  0  0  0  0
   13.6154   25.9962   -3.6115 C   0  0  0  0  0  0  0  0  0  0  0  0
   14.0544   27.0056   -4.4715 C   0  0  0  0  0  0  0  0  0  0  0  0
   15.1194   26.7815   -5.2987 C   0  0  0  0  0  0  0  0  0  0  0  0
   15.7165   25.5444   -5.2388 C   0  0  0  0  0  0  0  0  0  0  0  0
   15.2834   24.5866   -4.4085 N   0  0  0  0  0  0  0  0  0  0  0  0
   12.4579   20.9818    0.1020 C   0  0  0  0  0  0  0  0  0  0  0  0
   13.4114   21.6182    1.0788 C   0  0  0  0  0  0  0  0  0  0  0  0
   14.7581   20.9097    0.9397 C   0  0  0  0  0  0  0  0  0  0  0  0
   16.0824   22.0193    1.4815 S   0  0  0  0  0  0  0  0  0  0  0  0
   16.2846   26.9501   -1.8496 F   0  0  0  0  0  0  0  0  0  0  0  0
   16.2191   25.8312   -1.0790 C   0  0  0  0  0  0  0  0  0  0  0  0
   17.1793   24.8392   -1.2267 C   0  0  0  0  0  0  0  0  0  0  0  0
   17.1387   23.7002   -0.4633 C   0  0  0  0  0  0  0  0  0  0  0  0
   16.1517   23.4909    0.4762 C   0  0  0  0  0  0  0  0  0  0  0  0
   15.2035   24.4837    0.6135 C   0  0  0  0  0  0  0  0  0  0  0  0
   15.2263   25.6396   -0.1460 C   0  0  0  0  0  0  0  0  0  0  0  0
 17 18  1  0  0  0
 18 19  2  0  0  0
 19 20  1  0  0  0
 20 21  2  0  0  0
 21 16  1  0  0  0
 16 15  1  0  0  0
 15 14  1  0  0  0
 14 13  1  0  0  0
 13  1  1  0  0  0
  1  2  1  0  0  0
  2  3  1  0  0  0
  3  4  1  0  0  0
  4  7  1  0  0  0
  7  8  2  0  0  0
  8  9  1  0  0  0
  9 10  2  0  0  0
 10 11  1  0  0  0
 11 12  2  0  0  0
  4  5  1  0  0  0
  5  6  1  0  0  0
 21 22  1  0  0  0
 22 23  2  0  0  0
 23 18  1  0  0  0
  6  1  1  0  0  0
 12  7  1  0  0  0
M  END
> <minimizedAffinity>
-1.56913

> <CNNscore>
0.4571961761

> <CNNaffinity>
6.9967355728

> <CNN_VS>
3.1988806725

> <CNNaffinity_variance>
0.2075652182

$$$$
[H]c1nc(N2C([H])([H])C([H])([H])N(C([H])([H])C([H])([H])C([H])([H])Sc3c([H])c([H])c(F)c([H])c3[H])C([H])([H])C2([H])[H])c([H])c([H])c1[H]


 23 25  0  0  0  0  0  0  0  0999 V2000
   11.3628   24.0958    0.5841 N   0  0  0  0  0  0  0  0  0  0  0  0
   10.8210   24.0551   -0.7517 C   0  0  0  0  0  0  0  0  0  0  0  0
   11.5369   24.9145   -1.7570 C   0  0  0  0  0  0  0  0  0  0  0  0
   12.9612   24.8194   -1.6779 N   0  0  0  0  0  0  0  0  0  0  0  0
   13.5679   24.5337   -0.4037 C   0  0  0  0  0  0  0  0  0  0  0  0
   12.5753   24.8694    0.6689 C   0  0  0  0  0  0  0  0  0  0  0  0
   13.7414   25.0101   -2.8485 C   0  0  0  0  0  0  0  0  0  0  0  0
   13.6500   26.1399   -3.6283 C   0  0  0  0  0  0  0  0  0  0  0  0
   14.4208   26.3000   -4.7821 C   0  0  0  0  0  0  0  0  0  0  0  0
   15.2939   25.3185   -5.1607 C   0  0  0  0  0  0  0  0  0  0  0  0
   15.3687   24.1988   -4.3663 C   0  0  0  0  0  0  0  0  0  0  0  0
   14.6223   24.0603   -3.2626 N   0  0  0  0  0  0  0  0  0  0  0  0
   10.3737   24.5227    1.5498 C   0  0  0  0  0  0  0  0  0  0  0  0
    9.5196   23.3455    1.9410 C   0  0  0  0  0  0  0  0  0  0  0  0
   10.2893   22.5431    2.9892 C   0  0  0  0  0  0  0  0  0  0  0  0
   10.6016   20.8737    2.3615 S   0  0  0  0  0  0  0  0  0  0  0  0
   15.0290   20.8353   -1.6194 F   0  0  0  0  0  0  0  0  0  0  0  0
   14.0026   20.8398   -0.7268 C   0  0  0  0  0  0  0  0  0  0  0  0
   14.2687   21.0222    0.6237 C   0  0  0  0  0  0  0  0  0  0  0  0
   13.2539   21.0315    1.5467 C   0  0  0  0  0  0  0  0  0  0  0  0
   11.9362   20.8615    1.1785 C   0  0  0  0  0  0  0  0  0  0  0  0
   11.6849   20.6811   -0.1661 C   0  0  0  0  0  0  0  0  0  0  0  0
   12.6933   20.6686   -1.1128 C   0  0  0  0  0  0  0  0  0  0  0  0
 17 18  1  0  0  0
 18 19  2  0  0  0
 19 20  1  0  0  0
 20 21  2  0  0  0
 21 16  1  0  0  0
 16 15  1  0  0  0
 15 14  1  0  0  0
 14 13  1  0  0  0
 13  1  1  0  0  0
  1  2  1  0  0  0
  2  3  1  0  0  0
  3  4  1  0  0  0
  4  7  1  0  0  0
  7  8  2  0  0  0
  8  9  1  0  0  0
  9 10  2  0  0  0
 10 11  1  0  0  0
 11 12  2  0  0  0
  4  5  1  0  0  0
  5  6  1  0  0  0
 21 22  1  0  0  0
 22 23  2  0  0  0
 23 18  1  0  0  0
  6  1  1  0  0  0
 12  7  1  0  0  0
M  END
> <minimizedAffinity>
-7.30486

> <CNNscore>
0.3870163560

> <CNNaffinity>
6.6988258362

> <CNN_VS>
2.5925550461

> <CNNaffinity_variance>
0.0503364578

$$$$
[H]c1nc(N2C([H])([H])C([H])([H])N(C([H])([H])C([H])([H])C([H])([H])Sc3c([H])c([H])c(F)c([H])c3[H])C([H])([H])C2([H])[H])c([H])c([H])c1[H]


 23 25  0  0  0  0  0  0  0  0999 V2000
   13.3841   26.7236   -2.9965 N   0  0  0  0  0  0  0  0  0  0  0  0
   12.8383   26.7025   -4.3312 C   0  0  0  0  0  0  0  0  0  0  0  0
   11.5663   27.4839   -4.5128 C   0  0  0  0  0  0  0  0  0  0  0  0
   11.5928   28.7703   -3.8895 N   0  0  0  0  0  0  0  0  0  0  0  0
   12.3943   28.9521   -2.7072 C   0  0  0  0  0  0  0  0  0  0  0  0
   12.6589   27.6010   -2.1133 C   0  0  0  0  0  0  0  0  0  0  0  0
   10.8314   29.8324   -4.4440 C   0  0  0  0  0  0  0  0  0  0  0  0
    9.6303   29.6321   -5.0844 C   0  0  0  0  0  0  0  0  0  0  0  0
    8.9042   30.6926   -5.6316 C   0  0  0  0  0  0  0  0  0  0  0  0
    9.3849   31.9689   -5.5371 C   0  0  0  0  0  0  0  0  0  0  0  0
   10.5866   32.1451   -4.8928 C   0  0  0  0  0  0  0  0  0  0  0  0
   11.2711   31.1174   -4.3733 N   0  0  0  0  0  0  0  0  0  0  0  0
   13.5184   25.3897   -2.4524 C   0  0  0  0  0  0  0  0  0  0  0  0
   12.5632   25.2238   -1.2998 C   0  0  0  0  0  0  0  0  0  0  0  0
   13.3887   24.8844   -0.0595 C   0  0  0  0  0  0  0  0  0  0  0  0
   15.0796   24.4678   -0.5555 S   0  0  0  0  0  0  0  0  0  0  0  0
   15.1116   21.0371   -5.4217 F   0  0  0  0  0  0  0  0  0  0  0  0
   15.0950   21.8036   -4.2981 C   0  0  0  0  0  0  0  0  0  0  0  0
   15.6197   23.0886   -4.3365 C   0  0  0  0  0  0  0  0  0  0  0  0
   15.6164   23.8844   -3.2191 C   0  0  0  0  0  0  0  0  0  0  0  0
   15.0970   23.4483   -2.0188 C   0  0  0  0  0  0  0  0  0  0  0  0
   14.5787   22.1699   -1.9936 C   0  0  0  0  0  0  0  0  0  0  0  0
   14.5721   21.3514   -3.1087 C   0  0  0  0  0  0  0  0  0  0  0  0
 17 18  1  0  0  0
 18 19  2  0  0  0
 19 20  1  0  0  0
 20 21  2  0  0  0
 21 16  1  0  0  0
 16 15  1  0  0  0
 15 14  1  0  0  0
 14 13  1  0  0  0
 13  1  1  0  0  0
  1  2  1  0  0  0
  2  3  1  0  0  0
  3  4  1  0  0  0
  4  7  1  0  0  0
  7  8  2  0  0  0
  8  9  1  0  0  0
  9 10  2  0  0  0
 10 11  1  0  0  0
 11 12  2  0  0  0
  4  5  1  0  0  0
  5  6  1  0  0  0
 21 22  1  0  0  0
 22 23  2  0  0  0
 23 18  1  0  0  0
  6  1  1  0  0  0
 12  7  1  0  0  0
M  END
> <minimizedAffinity>
19.71130

> <CNNscore>
0.3868906498

> <CNNaffinity>
5.9192752838

> <CNN_VS>
2.2901122570

> <CNNaffinity_variance>
1.2194207907

$$$$
[H]c1nc(N2C([H])([H])C([H])([H])N(C([H])([H])C([H])([H])C([H])([H])Sc3c([H])c([H])c(F)c([H])c3[H])C([H])([H])C2([H])[H])c([H])c([H])c1[H]


 23 25  0  0  0  0  0  0  0  0999 V2000
   14.8471   25.7492   -3.9496 N   0  0  0  0  0  0  0  0  0  0  0  0
   14.8773   26.7755   -4.9623 C   0  0  0  0  0  0  0  0  0  0  0  0
   13.5349   27.3379   -5.3410 C   0  0  0  0  0  0  0  0  0  0  0  0
   12.6967   27.6199   -4.2176 N   0  0  0  0  0  0  0  0  0  0  0  0
   12.8406   26.8229   -3.0271 C   0  0  0  0  0  0  0  0  0  0  0  0
   13.5293   25.5455   -3.4039 C   0  0  0  0  0  0  0  0  0  0  0  0
   11.7454   28.6704   -4.3006 C   0  0  0  0  0  0  0  0  0  0  0  0
   10.5215   28.5200   -4.9108 C   0  0  0  0  0  0  0  0  0  0  0  0
    9.6060   29.5721   -4.9893 C   0  0  0  0  0  0  0  0  0  0  0  0
    9.9180   30.7893   -4.4508 C   0  0  0  0  0  0  0  0  0  0  0  0
   11.1462   30.9163   -3.8458 C   0  0  0  0  0  0  0  0  0  0  0  0
   12.0133   29.8975   -3.7789 N   0  0  0  0  0  0  0  0  0  0  0  0
   15.4405   24.5163   -4.4196 C   0  0  0  0  0  0  0  0  0  0  0  0
   15.3050   23.4608   -3.3538 C   0  0  0  0  0  0  0  0  0  0  0  0
   16.1444   23.9022   -2.1557 C   0  0  0  0  0  0  0  0  0  0  0  0
   15.0733   24.1023   -0.7095 S   0  0  0  0  0  0  0  0  0  0  0  0
   11.0571   19.7193   -0.3794 F   0  0  0  0  0  0  0  0  0  0  0  0
   11.9907   20.7051   -0.4597 C   0  0  0  0  0  0  0  0  0  0  0  0
   11.6072   22.0288   -0.2899 C   0  0  0  0  0  0  0  0  0  0  0  0
   12.5268   23.0438   -0.3654 C   0  0  0  0  0  0  0  0  0  0  0  0
   13.8610   22.7979   -0.6111 C   0  0  0  0  0  0  0  0  0  0  0  0
   14.2294   21.4789   -0.7779 C   0  0  0  0  0  0  0  0  0  0  0  0
   13.3182   20.4406   -0.7056 C   0  0  0  0  0  0  0  0  0  0  0  0
 17 18  1  0  0  0
 18 19  2  0  0  0
 19 20  1  0  0  0
 20 21  2  0  0  0
 21 16  1  0  0  0
 16 15  1  0  0  0
 15 14  1  0  0  0
 14 13  1  0  0  0
 13  1  1  0  0  0
  1  2  1  0  0  0
  2  3  1  0  0  0
  3  4  1  0  0  0
  4  7  1  0  0  0
  7  8  2  0  0  0
  8  9  1  0  0  0
  9 10  2  0  0  0
 10 11  1  0  0  0
 11 12  2  0  0  0
  4  5  1  0  0  0
  5  6  1  0  0  0
 21 22  1  0  0  0
 22 23  2  0  0  0
 23 18  1  0  0  0
  6  1  1  0  0  0
 12  7  1  0  0  0
M  END
> <minimizedAffinity>
6.78797

> <CNNscore>
0.3804570735

> <CNNaffinity>
6.3474693298

> <CNN_VS>
2.4149396420

> <CNNaffinity_variance>
0.3044160306

$$$$
[H]c1nc(N2C([H])([H])C([H])([H])N(C([H])([H])C([H])([H])C([H])([H])Sc3c([H])c([H])c(F)c([H])c3[H])C([H])([H])C2([H])[H])c([H])c([H])c1[H]


 23 25  0  0  0  0  0  0  0  0999 V2000
   11.5909   23.7792   -0.3531 N   0  0  0  0  0  0  0  0  0  0  0  0
   11.3830   24.3915    0.9359 C   0  0  0  0  0  0  0  0  0  0  0  0
   10.2803   23.7856    1.7596 C   0  0  0  0  0  0  0  0  0  0  0  0
   10.2895   22.3560    1.7625 N   0  0  0  0  0  0  0  0  0  0  0  0
   10.7975   21.6630    0.6071 C   0  0  0  0  0  0  0  0  0  0  0  0
   10.7697   22.6124   -0.5532 C   0  0  0  0  0  0  0  0  0  0  0  0
    9.7984   21.6553    2.8953 C   0  0  0  0  0  0  0  0  0  0  0  0
    8.4592   21.5808    3.2017 C   0  0  0  0  0  0  0  0  0  0  0  0
    8.0009   20.8940    4.3284 C   0  0  0  0  0  0  0  0  0  0  0  0
    8.8925   20.2740    5.1587 C   0  0  0  0  0  0  0  0  0  0  0  0
   10.2253   20.3615    4.8328 C   0  0  0  0  0  0  0  0  0  0  0  0
   10.6490   21.0242    3.7484 N   0  0  0  0  0  0  0  0  0  0  0  0
   11.4511   24.7366   -1.4289 C   0  0  0  0  0  0  0  0  0  0  0  0
   12.8171   25.1232   -1.9316 C   0  0  0  0  0  0  0  0  0  0  0  0
   13.7888   24.0139   -1.5313 C   0  0  0  0  0  0  0  0  0  0  0  0
   14.9827   23.7468   -2.8662 S   0  0  0  0  0  0  0  0  0  0  0  0
   16.2027   28.8163   -5.7405 F   0  0  0  0  0  0  0  0  0  0  0  0
   15.9110   27.6516   -5.1015 C   0  0  0  0  0  0  0  0  0  0  0  0
   16.4868   27.3836   -3.8667 C   0  0  0  0  0  0  0  0  0  0  0  0
   16.2109   26.2174   -3.1991 C   0  0  0  0  0  0  0  0  0  0  0  0
   15.3576   25.2676   -3.7191 C   0  0  0  0  0  0  0  0  0  0  0  0
   14.7919   25.5456   -4.9464 C   0  0  0  0  0  0  0  0  0  0  0  0
   15.0566   26.7151   -5.6360 C   0  0  0  0  0  0  0  0  0  0  0  0
 17 18  1  0  0  0
 18 19  2  0  0  0
 19 20  1  0  0  0
 20 21  2  0  0  0
 21 16  1  0  0  0
 16 15  1  0  0  0
 15 14  1  0  0  0
 14 13  1  0  0  0
 13  1  1  0  0  0
  1  2  1  0  0  0
  2  3  1  0  0  0
  3  4  1  0  0  0
  4  7  1  0  0  0
  7  8  2  0  0  0
  8  9  1  0  0  0
  9 10  2  0  0  0
 10 11  1  0  0  0
 11 12  2  0  0  0
  4  5  1  0  0  0
  5  6  1  0  0  0
 21 22  1  0  0  0
 22 23  2  0  0  0
 23 18  1  0  0  0
  6  1  1  0  0  0
 12  7  1  0  0  0
M  END
> <minimizedAffinity>
-7.23363

> <CNNscore>
0.3444267511

> <CNNaffinity>
6.2020373344

> <CNN_VS>
2.1361474991

> <CNNaffinity_variance>
0.2292554080

$$$$
[H]c1nc(N2C([H])([H])C([H])([H])N(C([H])([H])C([H])([H])C([H])([H])Sc3c([H])c([H])c(F)c([H])c3[H])C([H])([H])C2([H])[H])c([H])c([H])c1[H]


 23 25  0  0  0  0  0  0  0  0999 V2000
   14.5843   21.3590    0.5383 N   0  0  0  0  0  0  0  0  0  0  0  0
   14.4333   21.1160   -0.8752 C   0  0  0  0  0  0  0  0  0  0  0  0
   14.1454   22.3366   -1.7053 C   0  0  0  0  0  0  0  0  0  0  0  0
   14.9604   23.4616   -1.3677 N   0  0  0  0  0  0  0  0  0  0  0  0
   15.4273   23.5985   -0.0125 C   0  0  0  0  0  0  0  0  0  0  0  0
   14.5490   22.7610    0.8681 C   0  0  0  0  0  0  0  0  0  0  0  0
   15.2872   24.4143   -2.3682 C   0  0  0  0  0  0  0  0  0  0  0  0
   16.1424   25.4680   -2.1419 C   0  0  0  0  0  0  0  0  0  0  0  0
   16.4403   26.3991   -3.1396 C   0  0  0  0  0  0  0  0  0  0  0  0
   15.8764   26.2750   -4.3788 C   0  0  0  0  0  0  0  0  0  0  0  0
   15.0254   25.2144   -4.5820 C   0  0  0  0  0  0  0  0  0  0  0  0
   14.7496   24.3298   -3.6146 N   0  0  0  0  0  0  0  0  0  0  0  0
   13.6377   20.5905    1.3172 C   0  0  0  0  0  0  0  0  0  0  0  0
   12.2380   20.9375    0.8831 C   0  0  0  0  0  0  0  0  0  0  0  0
   11.4423   21.3037    2.1352 C   0  0  0  0  0  0  0  0  0  0  0  0
   10.2952   22.6502    1.7488 S   0  0  0  0  0  0  0  0  0  0  0  0
   12.4756   26.1944   -2.5098 F   0  0  0  0  0  0  0  0  0  0  0  0
   11.9887   25.3970   -1.5212 C   0  0  0  0  0  0  0  0  0  0  0  0
   11.1080   24.3714   -1.8382 C   0  0  0  0  0  0  0  0  0  0  0  0
   10.6011   23.5514   -0.8623 C   0  0  0  0  0  0  0  0  0  0  0  0
   10.9398   23.7072    0.4650 C   0  0  0  0  0  0  0  0  0  0  0  0
   11.8155   24.7297    0.7671 C   0  0  0  0  0  0  0  0  0  0  0  0
   12.3382   25.5674   -0.2016 C   0  0  0  0  0  0  0  0  0  0  0  0
 17 18  1  0  0  0
 18 19  2  0  0  0
 19 20  1  0  0  0
 20 21  2  0  0  0
 21 16  1  0  0  0
 16 15  1  0  0  0
 15 14  1  0  0  0
 14 13  1  0  0  0
 13  1  1  0  0  0
  1  2  1  0  0  0
  2  3  1  0  0  0
  3  4  1  0  0  0
  4  7  1  0  0  0
  7  8  2  0  0  0
  8  9  1  0  0  0
  9 10  2  0  0  0
 10 11  1  0  0  0
 11 12  2  0  0  0
  4  5  1  0  0  0
  5  6  1  0  0  0
 21 22  1  0  0  0
 22 23  2  0  0  0
 23 18  1  0  0  0
  6  1  1  0  0  0
 12  7  1  0  0  0
M  END
> <minimizedAffinity>
-6.77606

> <CNNscore>
0.3002505302

> <CNNaffinity>
6.7128205299

> <CNN_VS>
2.0155279636

> <CNNaffinity_variance>
0.3211488128

$$$$
[H]c1nc(N2C([H])([H])C([H])([H])N(C([H])([H])C([H])([H])C([H])([H])Sc3c([H])c([H])c(F)c([H])c3[H])C([H])([H])C2([H])[H])c([H])c([H])c1[H]


 23 25  0  0  0  0  0  0  0  0999 V2000
   12.8204   25.0050   -0.4325 N   0  0  0  0  0  0  0  0  0  0  0  0
   14.2095   24.7223   -0.6976 C   0  0  0  0  0  0  0  0  0  0  0  0
   14.5657   24.5811   -2.1519 C   0  0  0  0  0  0  0  0  0  0  0  0
   13.9833   25.5885   -2.9825 N   0  0  0  0  0  0  0  0  0  0  0  0
   12.7198   26.1612   -2.5965 C   0  0  0  0  0  0  0  0  0  0  0  0
   12.0575   25.2197   -1.6357 C   0  0  0  0  0  0  0  0  0  0  0  0
   14.6571   25.9977   -4.1632 C   0  0  0  0  0  0  0  0  0  0  0  0
   15.1064   27.2837   -4.3563 C   0  0  0  0  0  0  0  0  0  0  0  0
   15.7576   27.6650   -5.5318 C   0  0  0  0  0  0  0  0  0  0  0  0
   15.9624   26.7494   -6.5260 C   0  0  0  0  0  0  0  0  0  0  0  0
   15.5054   25.4706   -6.3108 C   0  0  0  0  0  0  0  0  0  0  0  0
   14.8823   25.1205   -5.1778 N   0  0  0  0  0  0  0  0  0  0  0  0
   12.2236   24.0007    0.4210 C   0  0  0  0  0  0  0  0  0  0  0  0
   10.8524   24.4581    0.8439 C   0  0  0  0  0  0  0  0  0  0  0  0
    9.8334   23.5082    0.2159 C   0  0  0  0  0  0  0  0  0  0  0  0
   10.1530   21.8190    0.7842 S   0  0  0  0  0  0  0  0  0  0  0  0
   15.6984   20.0780   -0.5075 F   0  0  0  0  0  0  0  0  0  0  0  0
   14.4371   20.4762   -0.1902 C   0  0  0  0  0  0  0  0  0  0  0  0
   13.5125   20.6975   -1.2022 C   0  0  0  0  0  0  0  0  0  0  0  0
   12.2334   21.0995   -0.9122 C   0  0  0  0  0  0  0  0  0  0  0  0
   11.8121   21.3001    0.3851 C   0  0  0  0  0  0  0  0  0  0  0  0
   12.7399   21.0770    1.3815 C   0  0  0  0  0  0  0  0  0  0  0  0
   14.0343   20.6714    1.1107 C   0  0  0  0  0  0  0  0  0  0  0  0
 17 18  1  0  0  0
 18 19  2  0  0  0
 19 20  1  0  0  0
 20 21  2  0  0  0
 21 16  1  0  0  0
 16 15  1  0  0  0
 15 14  1  0  0  0
 14 13  1  0  0  0
 13  1  1  0  0  0
  1  2  1  0  0  0
  2  3  1  0  0  0
  3  4  1  0  0  0
  4  7  1  0  0  0
  7  8  2  0  0  0
  8  9  1  0  0  0
  9 10  2  0  0  0
 10 11  1  0  0  0
 11 12  2  0  0  0
  4  5  1  0  0  0
  5  6  1  0  0  0
 21 22  1  0  0  0
 22 23  2  0  0  0
 23 18  1  0  0  0
  6  1  1  0  0  0
 12  7  1  0  0  0
M  END
> <minimizedAffinity>
-7.05059

> <CNNscore>
0.2908895910

> <CNNaffinity>
6.7905988693

> <CNN_VS>
1.9753144979

> <CNNaffinity_variance>
0.0058705388

$$$$
[H]c1nc(N2C([H])([H])C([H])([H])N(C([H])([H])C([H])([H])C([H])([H])Sc3c([H])c([H])c(F)c([H])c3[H])C([H])([H])C2([H])[H])c([H])c([H])c1[H]


 23 25  0  0  0  0  0  0  0  0999 V2000
   10.2918   24.2620    0.4491 N   0  0  0  0  0  0  0  0  0  0  0  0
   11.5269   24.6127    1.1059 C   0  0  0  0  0  0  0  0  0  0  0  0
   12.7758   24.2689    0.3419 C   0  0  0  0  0  0  0  0  0  0  0  0
   12.7088   24.6105   -1.0448 N   0  0  0  0  0  0  0  0  0  0  0  0
   11.4279   24.5949   -1.7022 C   0  0  0  0  0  0  0  0  0  0  0  0
   10.4958   23.7530   -0.8832 C   0  0  0  0  0  0  0  0  0  0  0  0
   13.8987   24.9525   -1.7395 C   0  0  0  0  0  0  0  0  0  0  0  0
   15.1530   24.7553   -1.2096 C   0  0  0  0  0  0  0  0  0  0  0  0
   16.3093   25.1099   -1.9084 C   0  0  0  0  0  0  0  0  0  0  0  0
   16.2103   25.6682   -3.1523 C   0  0  0  0  0  0  0  0  0  0  0  0
   14.9470   25.8555   -3.6618 C   0  0  0  0  0  0  0  0  0  0  0  0
   13.8476   25.5101   -2.9788 N   0  0  0  0  0  0  0  0  0  0  0  0
    9.4905   23.3695    1.2582 C   0  0  0  0  0  0  0  0  0  0  0  0
    8.5719   22.5778    0.3651 C   0  0  0  0  0  0  0  0  0  0  0  0
    8.7699   21.0984    0.6920 C   0  0  0  0  0  0  0  0  0  0  0  0
    9.8666   20.3499   -0.5391 S   0  0  0  0  0  0  0  0  0  0  0  0
   15.6020   21.0777    0.8844 F   0  0  0  0  0  0  0  0  0  0  0  0
   14.2975   20.9104    0.5371 C   0  0  0  0  0  0  0  0  0  0  0  0
   13.3278   20.8359    1.5281 C   0  0  0  0  0  0  0  0  0  0  0  0
   12.0047   20.6676    1.2076 C   0  0  0  0  0  0  0  0  0  0  0  0
   11.5819   20.5655   -0.1006 C   0  0  0  0  0  0  0  0  0  0  0  0
   12.5548   20.6409   -1.0760 C   0  0  0  0  0  0  0  0  0  0  0  0
   13.8941   20.8105   -0.7744 C   0  0  0  0  0  0  0  0  0  0  0  0
 17 18  1  0  0  0
 18 19  2  0  0  0
 19 20  1  0  0  0
 20 21  2  0  0  0
 21 16  1  0  0  0
 16 15  1  0  0  0
 15 14  1  0  0  0
 14 13  1  0  0  0
 13  1  1  0  0  0
  1  2  1  0  0  0
  2  3  1  0  0  0
  3  4  1  0  0  0
  4  7  1  0  0  0
  7  8  2  0  0  0
  8  9  1  0  0  0
  9 10  2  0  0  0
 10 11  1  0  0  0
 11 12  2  0  0  0
  4  5  1  0  0  0
  5  6  1  0  0  0
 21 22  1  0  0  0
 22 23  2  0  0  0
 23 18  1  0  0  0
  6  1  1  0  0  0
 12  7  1  0  0  0
M  END
> <minimizedAffinity>
-6.36201

> <CNNscore>
0.2772287726

> <CNNaffinity>
6.3590936661

> <CNN_VS>
1.7629237175

> <CNNaffinity_variance>
0.1524265558

$$$$
[H]c1nc(N2C([H])([H])C([H])([H])N(C([H])([H])C([H])([H])C([H])([H])Sc3c([H])c([H])c(F)c([H])c3[H])C([H])([H])C2([H])[H])c([H])c([H])c1[H]


 23 25  0  0  0  0  0  0  0  0999 V2000
   11.7887   22.0256   -0.0629 N   0  0  0  0  0  0  0  0  0  0  0  0
   10.9173   21.5663    0.9903 C   0  0  0  0  0  0  0  0  0  0  0  0
    9.4584   21.5051    0.6301 C   0  0  0  0  0  0  0  0  0  0  0  0
    9.2115   20.9291   -0.6548 N   0  0  0  0  0  0  0  0  0  0  0  0
   10.2080   21.0750   -1.6839 C   0  0  0  0  0  0  0  0  0  0  0  0
   11.0961   22.2240   -1.3106 C   0  0  0  0  0  0  0  0  0  0  0  0
    7.9963   20.2330   -0.8878 C   0  0  0  0  0  0  0  0  0  0  0  0
    7.1030   19.9380    0.1161 C   0  0  0  0  0  0  0  0  0  0  0  0
    5.9183   19.2423   -0.1363 C   0  0  0  0  0  0  0  0  0  0  0  0
    5.6231   18.8369   -1.4080 C   0  0  0  0  0  0  0  0  0  0  0  0
    6.5301   19.1430   -2.3951 C   0  0  0  0  0  0  0  0  0  0  0  0
    7.6621   19.8109   -2.1367 N   0  0  0  0  0  0  0  0  0  0  0  0
   12.5404   23.1955    0.3367 C   0  0  0  0  0  0  0  0  0  0  0  0
   11.6851   24.4220    0.1567 C   0  0  0  0  0  0  0  0  0  0  0  0
   12.4801   25.4219   -0.6818 C   0  0  0  0  0  0  0  0  0  0  0  0
   14.0266   24.6553   -1.2291 S   0  0  0  0  0  0  0  0  0  0  0  0
   15.3040   26.1792   -6.8413 F   0  0  0  0  0  0  0  0  0  0  0  0
   14.9978   25.8488   -5.5578 C   0  0  0  0  0  0  0  0  0  0  0  0
   15.5634   24.7163   -4.9873 C   0  0  0  0  0  0  0  0  0  0  0  0
   15.2731   24.3587   -3.6952 C   0  0  0  0  0  0  0  0  0  0  0  0
   14.4146   25.1005   -2.9120 C   0  0  0  0  0  0  0  0  0  0  0  0
   13.8592   26.2233   -3.4902 C   0  0  0  0  0  0  0  0  0  0  0  0
   14.1386   26.6016   -4.7911 C   0  0  0  0  0  0  0  0  0  0  0  0
 17 18  1  0  0  0
 18 19  2  0  0  0
 19 20  1  0  0  0
 20 21  2  0  0  0
 21 16  1  0  0  0
 16 15  1  0  0  0
 15 14  1  0  0  0
 14 13  1  0  0  0
 13  1  1  0  0  0
  1  2  1  0  0  0
  2  3  1  0  0  0
  3  4  1  0  0  0
  4  7  1  0  0  0
  7  8  2  0  0  0
  8  9  1  0  0  0
  9 10  2  0  0  0
 10 11  1  0  0  0
 11 12  2  0  0  0
  4  5  1  0  0  0
  5  6  1  0  0  0
 21 22  1  0  0  0
 22 23  2  0  0  0
 23 18  1  0  0  0
  6  1  1  0  0  0
 12  7  1  0  0  0
M  END
> <minimizedAffinity>
-7.09654

> <CNNscore>
0.2746785581

> <CNNaffinity>
6.0526762009

> <CNN_VS>
1.6625403166

> <CNNaffinity_variance>
0.0963713974

$$$$
[H]c1c([H])c([H])c2c(c1[H])[C@]([H])(c1c([H])c([H])c(F)c([H])c1[H])C([H])([H])C([H])([H])[C@]2([H])N([H])C([H])([H])[H]


 20 22  0  0  0  0  0  0  0  0999 V2000
   14.3902   23.1891   -1.1454 C   0  0  0  0  0  0  0  0  0  0  0  0
   13.6044   22.8760   -2.3746 C   0  0  0  0  0  0  0  0  0  0  0  0
   13.6800   24.0108   -3.3689 C   0  0  0  0  0  0  0  0  0  0  0  0
   15.1436   24.0515   -3.8331 C   0  0  0  0  0  0  0  0  0  0  0  0
   15.8916   24.5507   -2.6382 C   0  0  0  0  0  0  0  0  0  0  0  0
   16.9365   25.4177   -2.8035 C   0  0  0  0  0  0  0  0  0  0  0  0
   17.6122   25.8666   -1.6858 C   0  0  0  0  0  0  0  0  0  0  0  0
   17.2728   25.4746   -0.4226 C   0  0  0  0  0  0  0  0  0  0  0  0
   16.2064   24.5931   -0.2907 C   0  0  0  0  0  0  0  0  0  0  0  0
   15.5106   24.1255   -1.3836 C   0  0  0  0  0  0  0  0  0  0  0  0
   15.3439   24.8461   -5.0382 C   0  0  0  0  0  0  0  0  0  0  0  0
   14.9605   26.1674   -5.0645 C   0  0  0  0  0  0  0  0  0  0  0  0
   15.1325   26.9538   -6.1835 C   0  0  0  0  0  0  0  0  0  0  0  0
   15.7013   26.4194   -7.3138 C   0  0  0  0  0  0  0  0  0  0  0  0
   15.8661   27.2063   -8.4160 F   0  0  0  0  0  0  0  0  0  0  0  0
   16.0920   25.1091   -7.3167 C   0  0  0  0  0  0  0  0  0  0  0  0
   15.9132   24.3191   -6.1758 C   0  0  0  0  0  0  0  0  0  0  0  0
   12.2070   23.1193   -0.1247 C   0  0  0  0  0  0  0  0  0  0  0  0
   13.5644   23.5764   -0.0171 N   0  0  0  0  0  0  0  0  0  0  0  0
   13.9890   23.1345    0.8287 H   0  0  0  0  0  0  0  0  0  0  0  0
 18 19  1  0  0  0
 19  1  1  0  0  0
  1  2  1  0  0  0
  2  3  1  0  0  0
  3  4  1  0  0  0
  4 11  1  0  0  0
 11 12  2  0  0  0
 12 13  1  0  0  0
 13 14  2  0  0  0
 14 15  1  0  0  0
 14 16  1  0  0  0
 16 17  2  0  0  0
  4  5  1  0  0  0
  5  6  2  0  0  0
  6  7  1  0  0  0
  7  8  2  0  0  0
  8  9  1  0  0  0
  9 10  2  0  0  0
 10  1  1  0  0  0
 17 11  1  0  0  0
 10  5  1  0  0  0
 19 20  1  0  0  0
M  END
> <minimizedAffinity>
0.73035

> <CNNscore>
0.5782279968

> <CNNaffinity>
6.2670965195

> <CNN_VS>
3.6238107681

> <CNNaffinity_variance>
0.5607175827

$$$$
[H]c1c([H])c([H])c2c(c1[H])[C@]([H])(c1c([H])c([H])c(F)c([H])c1[H])C([H])([H])C([H])([H])[C@]2([H])N([H])C([H])([H])[H]


 20 22  0  0  0  0  0  0  0  0999 V2000
   12.5179   24.3549   -0.4030 C   0  0  0  0  0  0  0  0  0  0  0  0
   11.7514   24.6514   -1.6484 C   0  0  0  0  0  0  0  0  0  0  0  0
   12.4865   25.6498   -2.5116 C   0  0  0  0  0  0  0  0  0  0  0  0
   13.7534   24.9240   -2.9885 C   0  0  0  0  0  0  0  0  0  0  0  0
   14.5921   24.8059   -1.7561 C   0  0  0  0  0  0  0  0  0  0  0  0
   15.9480   24.9654   -1.8386 C   0  0  0  0  0  0  0  0  0  0  0  0
   16.7028   24.8532   -0.6874 C   0  0  0  0  0  0  0  0  0  0  0  0
   16.1417   24.5886    0.5291 C   0  0  0  0  0  0  0  0  0  0  0  0
   14.7615   24.4323    0.5770 C   0  0  0  0  0  0  0  0  0  0  0  0
   13.9786   24.5376   -0.5513 C   0  0  0  0  0  0  0  0  0  0  0  0
   14.4163   25.5930   -4.1007 C   0  0  0  0  0  0  0  0  0  0  0  0
   15.0027   24.8516   -5.1006 C   0  0  0  0  0  0  0  0  0  0  0  0
   15.6391   25.4448   -6.1698 C   0  0  0  0  0  0  0  0  0  0  0  0
   15.6993   26.8143   -6.2555 C   0  0  0  0  0  0  0  0  0  0  0  0
   16.3324   27.3912   -7.3174 F   0  0  0  0  0  0  0  0  0  0  0  0
   15.1254   27.5768   -5.2763 C   0  0  0  0  0  0  0  0  0  0  0  0
   14.4816   26.9652   -4.1950 C   0  0  0  0  0  0  0  0  0  0  0  0
   10.7768   24.4159    1.2636 C   0  0  0  0  0  0  0  0  0  0  0  0
   11.9851   25.0174    0.7726 N   0  0  0  0  0  0  0  0  0  0  0  0
   12.7134   24.9355    1.5167 H   0  0  0  0  0  0  0  0  0  0  0  0
 18 19  1  0  0  0
 19  1  1  0  0  0
  1  2  1  0  0  0
  2  3  1  0  0  0
  3  4  1  0  0  0
  4 11  1  0  0  0
 11 12  2  0  0  0
 12 13  1  0  0  0
 13 14  2  0  0  0
 14 15  1  0  0  0
 14 16  1  0  0  0
 16 17  2  0  0  0
  4  5  1  0  0  0
  5  6  2  0  0  0
  6  7  1  0  0  0
  7  8  2  0  0  0
  8  9  1  0  0  0
  9 10  2  0  0  0
 10  1  1  0  0  0
 17 11  1  0  0  0
 10  5  1  0  0  0
 19 20  1  0  0  0
M  END
> <minimizedAffinity>
-8.67506

> <CNNscore>
0.4873217046

> <CNNaffinity>
6.3482098579

> <CNN_VS>
3.0936205387

> <CNNaffinity_variance>
0.2819789052

$$$$
[H]c1c([H])c([H])c2c(c1[H])[C@]([H])(c1c([H])c([H])c(F)c([H])c1[H])C([H])([H])C([H])([H])[C@]2([H])N([H])C([H])([H])[H]


 20 22  0  0  0  0  0  0  0  0999 V2000
   15.0990   23.2587   -2.7452 C   0  0  0  0  0  0  0  0  0  0  0  0
   15.5148   24.1429   -3.8729 C   0  0  0  0  0  0  0  0  0  0  0  0
   14.3695   25.0184   -4.3247 C   0  0  0  0  0  0  0  0  0  0  0  0
   14.0963   25.9724   -3.1523 C   0  0  0  0  0  0  0  0  0  0  0  0
   13.5022   25.0939   -2.0979 C   0  0  0  0  0  0  0  0  0  0  0  0
   12.4816   25.5632   -1.3177 C   0  0  0  0  0  0  0  0  0  0  0  0
   11.9473   24.7341   -0.3509 C   0  0  0  0  0  0  0  0  0  0  0  0
   12.4032   23.4630   -0.1478 C   0  0  0  0  0  0  0  0  0  0  0  0
   13.4411   23.0182   -0.9581 C   0  0  0  0  0  0  0  0  0  0  0  0
   13.9972   23.8183   -1.9317 C   0  0  0  0  0  0  0  0  0  0  0  0
   13.2651   27.1120   -3.5186 C   0  0  0  0  0  0  0  0  0  0  0  0
   12.0342   26.9092   -4.0993 C   0  0  0  0  0  0  0  0  0  0  0  0
   11.2171   27.9591   -4.4603 C   0  0  0  0  0  0  0  0  0  0  0  0
   11.6276   29.2515   -4.2414 C   0  0  0  0  0  0  0  0  0  0  0  0
   10.8116   30.2832   -4.6033 F   0  0  0  0  0  0  0  0  0  0  0  0
   12.8460   29.4833   -3.6659 C   0  0  0  0  0  0  0  0  0  0  0  0
   13.6682   28.4109   -3.3029 C   0  0  0  0  0  0  0  0  0  0  0  0
   14.7276   20.9839   -2.0381 C   0  0  0  0  0  0  0  0  0  0  0  0
   14.8589   21.8858   -3.1482 N   0  0  0  0  0  0  0  0  0  0  0  0
   13.9577   21.8833   -3.6760 H   0  0  0  0  0  0  0  0  0  0  0  0
 18 19  1  0  0  0
 19  1  1  0  0  0
  1  2  1  0  0  0
  2  3  1  0  0  0
  3  4  1  0  0  0
  4 11  1  0  0  0
 11 12  2  0  0  0
 12 13  1  0  0  0
 13 14  2  0  0  0
 14 15  1  0  0  0
 14 16  1  0  0  0
 16 17  2  0  0  0
  4  5  1  0  0  0
  5  6  2  0  0  0
  6  7  1  0  0  0
  7  8  2  0  0  0
  8  9  1  0  0  0
  9 10  2  0  0  0
 10  1  1  0  0  0
 17 11  1  0  0  0
 10  5  1  0  0  0
 19 20  1  0  0  0
M  END
> <minimizedAffinity>
9.64164

> <CNNscore>
0.4648557603

> <CNNaffinity>
5.8257775307

> <CNN_VS>
2.7081463337

> <CNNaffinity_variance>
0.8679618835

$$$$
[H]c1c([H])c([H])c2c(c1[H])[C@]([H])(c1c([H])c([H])c(F)c([H])c1[H])C([H])([H])C([H])([H])[C@]2([H])N([H])C([H])([H])[H]


 20 22  0  0  0  0  0  0  0  0999 V2000
   10.3649   23.1284    0.3712 C   0  0  0  0  0  0  0  0  0  0  0  0
   10.9438   24.4211    0.8404 C   0  0  0  0  0  0  0  0  0  0  0  0
   12.3678   24.2376    1.3104 C   0  0  0  0  0  0  0  0  0  0  0  0
   13.1709   23.8766    0.0518 C   0  0  0  0  0  0  0  0  0  0  0  0
   12.7095   22.4963   -0.2920 C   0  0  0  0  0  0  0  0  0  0  0  0
   13.6070   21.5761   -0.7595 C   0  0  0  0  0  0  0  0  0  0  0  0
   13.1589   20.3071   -1.0696 C   0  0  0  0  0  0  0  0  0  0  0  0
   11.8515   19.9403   -0.9255 C   0  0  0  0  0  0  0  0  0  0  0  0
   10.9665   20.8997   -0.4481 C   0  0  0  0  0  0  0  0  0  0  0  0
   11.3792   22.1745   -0.1292 C   0  0  0  0  0  0  0  0  0  0  0  0
   14.6118   23.9970    0.2338 C   0  0  0  0  0  0  0  0  0  0  0  0
   15.3290   22.9515    0.7686 C   0  0  0  0  0  0  0  0  0  0  0  0
   16.6926   23.0244    0.9567 C   0  0  0  0  0  0  0  0  0  0  0  0
   17.3711   24.1659    0.6060 C   0  0  0  0  0  0  0  0  0  0  0  0
   18.7205   24.2278    0.7973 F   0  0  0  0  0  0  0  0  0  0  0  0
   16.6845   25.2210    0.0722 C   0  0  0  0  0  0  0  0  0  0  0  0
   15.3004   25.1373   -0.1150 C   0  0  0  0  0  0  0  0  0  0  0  0
    9.0148   23.4398    2.3443 C   0  0  0  0  0  0  0  0  0  0  0  0
    9.4500   22.5277    1.3236 N   0  0  0  0  0  0  0  0  0  0  0  0
    8.6109   22.2248    0.7806 H   0  0  0  0  0  0  0  0  0  0  0  0
 18 19  1  0  0  0
 19  1  1  0  0  0
  1  2  1  0  0  0
  2  3  1  0  0  0
  3  4  1  0  0  0
  4 11  1  0  0  0
 11 12  2  0  0  0
 12 13  1  0  0  0
 13 14  2  0  0  0
 14 15  1  0  0  0
 14 16  1  0  0  0
 16 17  2  0  0  0
  4  5  1  0  0  0
  5  6  2  0  0  0
  6  7  1  0  0  0
  7  8  2  0  0  0
  8  9  1  0  0  0
  9 10  2  0  0  0
 10  1  1  0  0  0
 17 11  1  0  0  0
 10  5  1  0  0  0
 19 20  1  0  0  0
M  END
> <minimizedAffinity>
-2.66674

> <CNNscore>
0.4168671668

> <CNNaffinity>
5.7491922379

> <CNN_VS>
2.3966493607

> <CNNaffinity_variance>
0.4034231603

$$$$
[H]c1c([H])c([H])c2c(c1[H])[C@]([H])(c1c([H])c([H])c(F)c([H])c1[H])C([H])([H])C([H])([H])[C@]2([H])N([H])C([H])([H])[H]


 20 22  0  0  0  0  0  0  0  0999 V2000
   13.8495   22.8784    0.9317 C   0  0  0  0  0  0  0  0  0  0  0  0
   15.1536   23.3453    0.3771 C   0  0  0  0  0  0  0  0  0  0  0  0
   15.0634   23.5522   -1.1167 C   0  0  0  0  0  0  0  0  0  0  0  0
   14.1038   24.7361   -1.3087 C   0  0  0  0  0  0  0  0  0  0  0  0
   12.7664   24.1875   -0.9256 C   0  0  0  0  0  0  0  0  0  0  0  0
   11.6530   24.5574   -1.6287 C   0  0  0  0  0  0  0  0  0  0  0  0
   10.4284   24.0375   -1.2580 C   0  0  0  0  0  0  0  0  0  0  0  0
   10.2916   23.1676   -0.2144 C   0  0  0  0  0  0  0  0  0  0  0  0
   11.4431   22.8129    0.4783 C   0  0  0  0  0  0  0  0  0  0  0  0
   12.6802   23.3124    0.1358 C   0  0  0  0  0  0  0  0  0  0  0  0
   14.1540   25.3068   -2.6487 C   0  0  0  0  0  0  0  0  0  0  0  0
   15.0460   24.8158   -3.5743 C   0  0  0  0  0  0  0  0  0  0  0  0
   15.1253   25.3268   -4.8521 C   0  0  0  0  0  0  0  0  0  0  0  0
   14.2977   26.3561   -5.2293 C   0  0  0  0  0  0  0  0  0  0  0  0
   14.3851   26.8550   -6.4961 F   0  0  0  0  0  0  0  0  0  0  0  0
   13.4012   26.8641   -4.3306 C   0  0  0  0  0  0  0  0  0  0  0  0
   13.3283   26.3385   -3.0359 C   0  0  0  0  0  0  0  0  0  0  0  0
   14.9042   20.7324    0.6231 C   0  0  0  0  0  0  0  0  0  0  0  0
   13.8275   21.4598    1.2352 N   0  0  0  0  0  0  0  0  0  0  0  0
   13.9270   21.3750    2.2714 H   0  0  0  0  0  0  0  0  0  0  0  0
 18 19  1  0  0  0
 19  1  1  0  0  0
  1  2  1  0  0  0
  2  3  1  0  0  0
  3  4  1  0  0  0
  4 11  1  0  0  0
 11 12  2  0  0  0
 12 13  1  0  0  0
 13 14  2  0  0  0
 14 15  1  0  0  0
 14 16  1  0  0  0
 16 17  2  0  0  0
  4  5  1  0  0  0
  5  6  2  0  0  0
  6  7  1  0  0  0
  7  8  2  0  0  0
  8  9  1  0  0  0
  9 10  2  0  0  0
 10  1  1  0  0  0
 17 11  1  0  0  0
 10  5  1  0  0  0
 19 20  1  0  0  0
M  END
> <minimizedAffinity>
-8.20678

> <CNNscore>
0.4057330787

> <CNNaffinity>
6.2093858719

> <CNN_VS>
2.5193531513

> <CNNaffinity_variance>
0.0127363428

$$$$
[H]c1c([H])c([H])c2c(c1[H])[C@]([H])(c1c([H])c([H])c(F)c([H])c1[H])C([H])([H])C([H])([H])[C@]2([H])N([H])C([H])([H])[H]


 20 22  0  0  0  0  0  0  0  0999 V2000
   13.6012   27.0522   -3.4808 C   0  0  0  0  0  0  0  0  0  0  0  0
   12.5991   27.0537   -2.3752 C   0  0  0  0  0  0  0  0  0  0  0  0
   12.0571   25.6643   -2.1343 C   0  0  0  0  0  0  0  0  0  0  0  0
   13.2425   24.8503   -1.5945 C   0  0  0  0  0  0  0  0  0  0  0  0
   14.1487   24.6989   -2.7744 C   0  0  0  0  0  0  0  0  0  0  0  0
   14.8151   23.5212   -2.9732 C   0  0  0  0  0  0  0  0  0  0  0  0
   15.6459   23.4034   -4.0702 C   0  0  0  0  0  0  0  0  0  0  0  0
   15.8243   24.4218   -4.9621 C   0  0  0  0  0  0  0  0  0  0  0  0
   15.1321   25.6045   -4.7301 C   0  0  0  0  0  0  0  0  0  0  0  0
   14.2956   25.7563   -3.6463 C   0  0  0  0  0  0  0  0  0  0  0  0
   12.8441   23.5897   -0.9814 C   0  0  0  0  0  0  0  0  0  0  0  0
   13.3754   23.2144    0.2311 C   0  0  0  0  0  0  0  0  0  0  0  0
   13.0250   22.0310    0.8451 C   0  0  0  0  0  0  0  0  0  0  0  0
   12.1210   21.1901    0.2433 C   0  0  0  0  0  0  0  0  0  0  0  0
   11.7819   20.0209    0.8592 F   0  0  0  0  0  0  0  0  0  0  0  0
   11.5765   21.5370   -0.9620 C   0  0  0  0  0  0  0  0  0  0  0  0
   11.9385   22.7404   -1.5772 C   0  0  0  0  0  0  0  0  0  0  0  0
   11.6464   27.5550   -4.7994 C   0  0  0  0  0  0  0  0  0  0  0  0
   13.0809   27.5747   -4.7303 N   0  0  0  0  0  0  0  0  0  0  0  0
   13.3947   28.5690   -4.7913 H   0  0  0  0  0  0  0  0  0  0  0  0
 18 19  1  0  0  0
 19  1  1  0  0  0
  1  2  1  0  0  0
  2  3  1  0  0  0
  3  4  1  0  0  0
  4 11  1  0  0  0
 11 12  2  0  0  0
 12 13  1  0  0  0
 13 14  2  0  0  0
 14 15  1  0  0  0
 14 16  1  0  0  0
 16 17  2  0  0  0
  4  5  1  0  0  0
  5  6  2  0  0  0
  6  7  1  0  0  0
  7  8  2  0  0  0
  8  9  1  0  0  0
  9 10  2  0  0  0
 10  1  1  0  0  0
 17 11  1  0  0  0
 10  5  1  0  0  0
 19 20  1  0  0  0
M  END
> <minimizedAffinity>
-1.79563

> <CNNscore>
0.4047295153

> <CNNaffinity>
5.9292144775

> <CNN_VS>
2.3997280598

> <CNNaffinity_variance>
0.3414663374

$$$$
[H]c1c([H])c([H])c2c(c1[H])[C@]([H])(c1c([H])c([H])c(F)c([H])c1[H])C([H])([H])C([H])([H])[C@]2([H])N([H])C([H])([H])[H]


 20 22  0  0  0  0  0  0  0  0999 V2000
   15.1471   24.4366    0.2763 C   0  0  0  0  0  0  0  0  0  0  0  0
   16.4705   24.7149   -0.3543 C   0  0  0  0  0  0  0  0  0  0  0  0
   16.3883   24.5996   -1.8584 C   0  0  0  0  0  0  0  0  0  0  0  0
   15.4829   25.7558   -2.3087 C   0  0  0  0  0  0  0  0  0  0  0  0
   14.1225   25.3623   -1.8284 C   0  0  0  0  0  0  0  0  0  0  0  0
   13.0262   25.6213   -2.6043 C   0  0  0  0  0  0  0  0  0  0  0  0
   11.7798   25.2481   -2.1413 C   0  0  0  0  0  0  0  0  0  0  0  0
   11.6049   24.6299   -0.9363 C   0  0  0  0  0  0  0  0  0  0  0  0
   12.7398   24.3818   -0.1735 C   0  0  0  0  0  0  0  0  0  0  0  0
   13.9979   24.7406   -0.6046 C   0  0  0  0  0  0  0  0  0  0  0  0
   15.5575   26.0222   -3.7395 C   0  0  0  0  0  0  0  0  0  0  0  0
   15.3726   24.9999   -4.6418 C   0  0  0  0  0  0  0  0  0  0  0  0
   15.4345   25.2093   -6.0028 C   0  0  0  0  0  0  0  0  0  0  0  0
   15.6873   26.4683   -6.4900 C   0  0  0  0  0  0  0  0  0  0  0  0
   15.7473   26.6644   -7.8388 F   0  0  0  0  0  0  0  0  0  0  0  0
   15.8752   27.5037   -5.6170 C   0  0  0  0  0  0  0  0  0  0  0  0
   15.8103   27.2810   -4.2371 C   0  0  0  0  0  0  0  0  0  0  0  0
   14.7492   22.0837   -0.0683 C   0  0  0  0  0  0  0  0  0  0  0  0
   15.0614   23.1189    0.8773 N   0  0  0  0  0  0  0  0  0  0  0  0
   16.0019   22.9143    1.2827 H   0  0  0  0  0  0  0  0  0  0  0  0
 18 19  1  0  0  0
 19  1  1  0  0  0
  1  2  1  0  0  0
  2  3  1  0  0  0
  3  4  1  0  0  0
  4 11  1  0  0  0
 11 12  2  0  0  0
 12 13  1  0  0  0
 13 14  2  0  0  0
 14 15  1  0  0  0
 14 16  1  0  0  0
 16 17  2  0  0  0
  4  5  1  0  0  0
  5  6  2  0  0  0
  6  7  1  0  0  0
  7  8  2  0  0  0
  8  9  1  0  0  0
  9 10  2  0  0  0
 10  1  1  0  0  0
 17 11  1  0  0  0
 10  5  1  0  0  0
 19 20  1  0  0  0
M  END
> <minimizedAffinity>
-8.44113

> <CNNscore>
0.3745431602

> <CNNaffinity>
6.2701120377

> <CNN_VS>
2.3484275341

> <CNNaffinity_variance>
0.0849067196

$$$$
[H]c1c([H])c([H])c2c(c1[H])[C@]([H])(c1c([H])c([H])c(F)c([H])c1[H])C([H])([H])C([H])([H])[C@]2([H])N([H])C([H])([H])[H]


 20 22  0  0  0  0  0  0  0  0999 V2000
   11.3196   23.1389    0.1749 C   0  0  0  0  0  0  0  0  0  0  0  0
   11.1341   24.5873   -0.1317 C   0  0  0  0  0  0  0  0  0  0  0  0
   12.4414   25.2262   -0.5380 C   0  0  0  0  0  0  0  0  0  0  0  0
   12.8125   24.5805   -1.8813 C   0  0  0  0  0  0  0  0  0  0  0  0
   13.1785   23.1757   -1.5222 C   0  0  0  0  0  0  0  0  0  0  0  0
   14.2198   22.5600   -2.1603 C   0  0  0  0  0  0  0  0  0  0  0  0
   14.5408   21.2628   -1.8117 C   0  0  0  0  0  0  0  0  0  0  0  0
   13.8544   20.5747   -0.8525 C   0  0  0  0  0  0  0  0  0  0  0  0
   12.8022   21.2302   -0.2241 C   0  0  0  0  0  0  0  0  0  0  0  0
   12.4550   22.5234   -0.5470 C   0  0  0  0  0  0  0  0  0  0  0  0
   13.8536   25.3040   -2.6001 C   0  0  0  0  0  0  0  0  0  0  0  0
   13.5344   26.0437   -3.7156 C   0  0  0  0  0  0  0  0  0  0  0  0
   14.4885   26.7429   -4.4236 C   0  0  0  0  0  0  0  0  0  0  0  0
   15.8004   26.7111   -4.0181 C   0  0  0  0  0  0  0  0  0  0  0  0
   16.7367   27.4060   -4.7266 F   0  0  0  0  0  0  0  0  0  0  0  0
   16.1470   25.9844   -2.9131 C   0  0  0  0  0  0  0  0  0  0  0  0
   15.1712   25.2782   -2.2010 C   0  0  0  0  0  0  0  0  0  0  0  0
   10.1905   23.3694    2.2927 C   0  0  0  0  0  0  0  0  0  0  0  0
   11.3336   22.8483    1.5963 N   0  0  0  0  0  0  0  0  0  0  0  0
   11.3225   21.8080    1.6881 H   0  0  0  0  0  0  0  0  0  0  0  0
 18 19  1  0  0  0
 19  1  1  0  0  0
  1  2  1  0  0  0
  2  3  1  0  0  0
  3  4  1  0  0  0
  4 11  1  0  0  0
 11 12  2  0  0  0
 12 13  1  0  0  0
 13 14  2  0  0  0
 14 15  1  0  0  0
 14 16  1  0  0  0
 16 17  2  0  0  0
  4  5  1  0  0  0
  5  6  2  0  0  0
  6  7  1  0  0  0
  7  8  2  0  0  0
  8  9  1  0  0  0
  9 10  2  0  0  0
 10  1  1  0  0  0
 17 11  1  0  0  0
 10  5  1  0  0  0
 19 20  1  0  0  0
M  END
> <minimizedAffinity>
-8.77185

> <CNNscore>
0.3555366695

> <CNNaffinity>
5.9439611435

> <CNN_VS>
2.1132960320

> <CNNaffinity_variance>
0.0732868761

$$$$
[H]c1c([H])c([H])c2c(c1[H])[C@]([H])(c1c([H])c([H])c(F)c([H])c1[H])C([H])([H])C([H])([H])[C@]2([H])N([H])C([H])([H])[H]


 20 22  0  0  0  0  0  0  0  0999 V2000
   11.3859   23.1540    0.2408 C   0  0  0  0  0  0  0  0  0  0  0  0
   11.1720   24.5982   -0.0675 C   0  0  0  0  0  0  0  0  0  0  0  0
   12.4588   25.2530   -0.5122 C   0  0  0  0  0  0  0  0  0  0  0  0
   12.8024   24.6056   -1.8620 C   0  0  0  0  0  0  0  0  0  0  0  0
   13.1974   23.2078   -1.5063 C   0  0  0  0  0  0  0  0  0  0  0  0
   14.2296   22.6033   -2.1696 C   0  0  0  0  0  0  0  0  0  0  0  0
   14.5779   21.3124   -1.8237 C   0  0  0  0  0  0  0  0  0  0  0  0
   13.9273   20.6198   -0.8429 C   0  0  0  0  0  0  0  0  0  0  0  0
   12.8836   21.2639   -0.1893 C   0  0  0  0  0  0  0  0  0  0  0  0
   12.5097   22.5506   -0.5088 C   0  0  0  0  0  0  0  0  0  0  0  0
   13.8134   25.3396   -2.6123 C   0  0  0  0  0  0  0  0  0  0  0  0
   15.1324   25.2891   -2.2235 C   0  0  0  0  0  0  0  0  0  0  0  0
   16.1194   25.9679   -2.9055 C   0  0  0  0  0  0  0  0  0  0  0  0
   15.7948   26.7215   -4.0070 C   0  0  0  0  0  0  0  0  0  0  0  0
   16.7793   27.3901   -4.6742 F   0  0  0  0  0  0  0  0  0  0  0  0
   14.4921   26.7903   -4.4166 C   0  0  0  0  0  0  0  0  0  0  0  0
   13.4974   26.0975   -3.7177 C   0  0  0  0  0  0  0  0  0  0  0  0
   10.2477   23.2501    2.3640 C   0  0  0  0  0  0  0  0  0  0  0  0
   11.4424   22.8710    1.6626 N   0  0  0  0  0  0  0  0  0  0  0  0
   11.5590   21.8373    1.7564 H   0  0  0  0  0  0  0  0  0  0  0  0
 18 19  1  0  0  0
 19  1  1  0  0  0
  1  2  1  0  0  0
  2  3  1  0  0  0
  3  4  1  0  0  0
  4 11  1  0  0  0
 11 12  2  0  0  0
 12 13  1  0  0  0
 13 14  2  0  0  0
 14 15  1  0  0  0
 14 16  1  0  0  0
 16 17  2  0  0  0
  4  5  1  0  0  0
  5  6  2  0  0  0
  6  7  1  0  0  0
  7  8  2  0  0  0
  8  9  1  0  0  0
  9 10  2  0  0  0
 10  1  1  0  0  0
 17 11  1  0  0  0
 10  5  1  0  0  0
 19 20  1  0  0  0
M  END
> <minimizedAffinity>
-8.76279

> <CNNscore>
0.3411831856

> <CNNaffinity>
5.9219479561

> <CNN_VS>
2.0204689503

> <CNNaffinity_variance>
0.0864162520

$$$$
[H]OC(=O)C([H])(Oc1c([H])c([H])c(-c2noc([H])c3c(C(=O)C4([H])C([H])([H])C([H])([H])C([H])([H])C4([H])[H])c([H])c([H])c2-3)c([H])c1[H])C(=O)O[H]


 32 35  0  0  0  0  0  0  0  0999 V2000
   13.9309   25.3714   -2.4385 C   0  0  0  0  0  0  0  0  0  0  0  0
   12.6072   25.7021   -2.6368 C   0  0  0  0  0  0  0  0  0  0  0  0
   11.7960   25.1345   -1.6600 C   0  0  0  0  0  0  0  0  0  0  0  0
   12.6062   24.4186   -0.8069 C   0  0  0  0  0  0  0  0  0  0  0  0
   12.4159   23.6547    0.3249 C   0  0  0  0  0  0  0  0  0  0  0  0
   13.4783   23.0800    0.9295 N   0  0  0  0  0  0  0  0  0  0  0  0
   14.6693   23.2280    0.4730 O   0  0  0  0  0  0  0  0  0  0  0  0
   14.9616   23.9306   -0.5927 C   0  0  0  0  0  0  0  0  0  0  0  0
   13.9650   24.5767   -1.3125 C   0  0  0  0  0  0  0  0  0  0  0  0
   11.0753   23.4688    0.8725 C   0  0  0  0  0  0  0  0  0  0  0  0
   10.5683   24.3973    1.7552 C   0  0  0  0  0  0  0  0  0  0  0  0
    9.3009   24.2671    2.3115 C   0  0  0  0  0  0  0  0  0  0  0  0
    8.5067   23.1960    1.9942 C   0  0  0  0  0  0  0  0  0  0  0  0
    9.0110   22.2497    1.1009 C   0  0  0  0  0  0  0  0  0  0  0  0
   10.2606   22.3988    0.5664 C   0  0  0  0  0  0  0  0  0  0  0  0
    7.2556   23.0082    2.5041 O   0  0  0  0  0  0  0  0  0  0  0  0
    6.7596   21.9799    3.2867 C   0  0  0  0  0  0  0  0  0  0  0  0
    7.7924   21.4966    4.2184 C   0  0  0  0  0  0  0  0  0  0  0  0
    8.0390   22.1127    5.2967 O   0  0  0  0  0  0  0  0  0  0  0  0
    8.5355   20.3697    3.9731 O   0  0  0  0  0  0  0  0  0  0  0  0
    9.5145   20.4225    3.7295 H   0  0  0  0  0  0  0  0  0  0  0  0
    6.0764   20.9097    2.5240 C   0  0  0  0  0  0  0  0  0  0  0  0
    5.4419   21.2016    1.4830 O   0  0  0  0  0  0  0  0  0  0  0  0
    6.1486   19.6006    2.9721 O   0  0  0  0  0  0  0  0  0  0  0  0
    5.8032   18.8595    2.3786 H   0  0  0  0  0  0  0  0  0  0  0  0
   16.2487   25.4604   -2.8266 O   0  0  0  0  0  0  0  0  0  0  0  0
   15.0923   25.7509   -3.2302 C   0  0  0  0  0  0  0  0  0  0  0  0
   15.0259   26.4750   -4.5127 C   0  0  0  0  0  0  0  0  0  0  0  0
   16.0202   27.5533   -4.6913 C   0  0  0  0  0  0  0  0  0  0  0  0
   16.0617   27.7256   -6.2146 C   0  0  0  0  0  0  0  0  0  0  0  0
   15.6374   26.4248   -6.8123 C   0  0  0  0  0  0  0  0  0  0  0  0
   15.2203   25.5480   -5.6701 C   0  0  0  0  0  0  0  0  0  0  0  0
 26 27  2  0  0  0
 27  1  1  0  0  0
  1  2  2  0  0  0
  2  3  1  0  0  0
  3  4  2  0  0  0
  4  5  1  0  0  0
  5 10  1  0  0  0
 10 11  2  0  0  0
 11 12  1  0  0  0
 12 13  2  0  0  0
 13 16  1  0  0  0
 16 17  1  0  0  0
 17 18  1  0  0  0
 18 19  2  0  0  0
 18 20  1  0  0  0
 17 22  1  0  0  0
 22 23  2  0  0  0
 22 24  1  0  0  0
 13 14  1  0  0  0
 14 15  2  0  0  0
  5  6  2  0  0  0
  6  7  1  0  0  0
  7  8  1  0  0  0
  8  9  2  0  0  0
 27 28  1  0  0  0
 28 29  1  0  0  0
 29 30  1  0  0  0
 30 31  1  0  0  0
 31 32  1  0  0  0
  9  1  1  0  0  0
 32 28  1  0  0  0
  9  4  1  0  0  0
 15 10  1  0  0  0
 20 21  1  0  0  0
 24 25  1  0  0  0
M  END
> <minimizedAffinity>
-9.60823

> <CNNscore>
0.6477853060

> <CNNaffinity>
6.9012870789

> <CNN_VS>
4.4705524445

> <CNNaffinity_variance>
0.3452926874

$$$$
[H]OC(=O)C([H])(Oc1c([H])c([H])c(-c2noc([H])c3c(C(=O)C4([H])C([H])([H])C([H])([H])C([H])([H])C4([H])[H])c([H])c([H])c2-3)c([H])c1[H])C(=O)O[H]


 32 35  0  0  0  0  0  0  0  0999 V2000
   14.1065   25.6120   -2.5482 C   0  0  0  0  0  0  0  0  0  0  0  0
   12.7503   25.7645   -2.7436 C   0  0  0  0  0  0  0  0  0  0  0  0
   12.0235   25.0990   -1.7621 C   0  0  0  0  0  0  0  0  0  0  0  0
   12.9233   24.4996   -0.9089 C   0  0  0  0  0  0  0  0  0  0  0  0
   12.8384   23.7220    0.2264 C   0  0  0  0  0  0  0  0  0  0  0  0
   13.9689   23.2948    0.8297 N   0  0  0  0  0  0  0  0  0  0  0  0
   15.1288   23.5966    0.3689 O   0  0  0  0  0  0  0  0  0  0  0  0
   15.3231   24.3272   -0.7004 C   0  0  0  0  0  0  0  0  0  0  0  0
   14.2481   24.8333   -1.4195 C   0  0  0  0  0  0  0  0  0  0  0  0
   11.5355   23.3632    0.7789 C   0  0  0  0  0  0  0  0  0  0  0  0
   10.6895   24.3567    1.2215 C   0  0  0  0  0  0  0  0  0  0  0  0
    9.4406   24.0720    1.7616 C   0  0  0  0  0  0  0  0  0  0  0  0
    9.0075   22.7762    1.8719 C   0  0  0  0  0  0  0  0  0  0  0  0
    9.8569   21.7624    1.4266 C   0  0  0  0  0  0  0  0  0  0  0  0
   11.0810   22.0666    0.8987 C   0  0  0  0  0  0  0  0  0  0  0  0
    7.7953   22.4284    2.3921 O   0  0  0  0  0  0  0  0  0  0  0  0
    7.4862   21.8200    3.5963 C   0  0  0  0  0  0  0  0  0  0  0  0
    6.4913   20.7534    3.3948 C   0  0  0  0  0  0  0  0  0  0  0  0
    6.7377   19.5583    3.7328 O   0  0  0  0  0  0  0  0  0  0  0  0
    5.2608   20.9906    2.8363 O   0  0  0  0  0  0  0  0  0  0  0  0
    5.0298   20.6706    1.9064 H   0  0  0  0  0  0  0  0  0  0  0  0
    7.1560   22.7646    4.6883 C   0  0  0  0  0  0  0  0  0  0  0  0
    8.0713   23.2022    5.4247 O   0  0  0  0  0  0  0  0  0  0  0  0
    5.8394   23.1514    4.8804 O   0  0  0  0  0  0  0  0  0  0  0  0
    5.6377   23.8980    5.5304 H   0  0  0  0  0  0  0  0  0  0  0  0
   16.3542   26.2394   -2.8400 O   0  0  0  0  0  0  0  0  0  0  0  0
   15.2056   26.1379   -3.3451 C   0  0  0  0  0  0  0  0  0  0  0  0
   15.0822   26.5795   -4.7463 C   0  0  0  0  0  0  0  0  0  0  0  0
   16.0617   27.5945   -5.1864 C   0  0  0  0  0  0  0  0  0  0  0  0
   16.0395   27.4459   -6.7126 C   0  0  0  0  0  0  0  0  0  0  0  0
   15.5990   26.0503   -7.0085 C   0  0  0  0  0  0  0  0  0  0  0  0
   15.2346   25.4314   -5.6925 C   0  0  0  0  0  0  0  0  0  0  0  0
 26 27  2  0  0  0
 27  1  1  0  0  0
  1  2  2  0  0  0
  2  3  1  0  0  0
  3  4  2  0  0  0
  4  5  1  0  0  0
  5 10  1  0  0  0
 10 11  2  0  0  0
 11 12  1  0  0  0
 12 13  2  0  0  0
 13 16  1  0  0  0
 16 17  1  0  0  0
 17 18  1  0  0  0
 18 19  2  0  0  0
 18 20  1  0  0  0
 17 22  1  0  0  0
 22 23  2  0  0  0
 22 24  1  0  0  0
 13 14  1  0  0  0
 14 15  2  0  0  0
  5  6  2  0  0  0
  6  7  1  0  0  0
  7  8  1  0  0  0
  8  9  2  0  0  0
 27 28  1  0  0  0
 28 29  1  0  0  0
 29 30  1  0  0  0
 30 31  1  0  0  0
 31 32  1  0  0  0
  9  1  1  0  0  0
 32 28  1  0  0  0
  9  4  1  0  0  0
 15 10  1  0  0  0
 20 21  1  0  0  0
 24 25  1  0  0  0
M  END
> <minimizedAffinity>
-9.12444

> <CNNscore>
0.5599914789

> <CNNaffinity>
6.8110427856

> <CNN_VS>
3.8141260147

> <CNNaffinity_variance>
0.3057380915

$$$$
[H]OC(=O)C([H])(Oc1c([H])c([H])c(-c2noc([H])c3c(C(=O)C4([H])C([H])([H])C([H])([H])C([H])([H])C4([H])[H])c([H])c([H])c2-3)c([H])c1[H])C(=O)O[H]


 32 35  0  0  0  0  0  0  0  0999 V2000
   14.3451   24.6605   -2.1573 C   0  0  0  0  0  0  0  0  0  0  0  0
   13.0620   24.7928   -1.6706 C   0  0  0  0  0  0  0  0  0  0  0  0
   12.3813   25.8166   -2.3209 C   0  0  0  0  0  0  0  0  0  0  0  0
   13.2372   26.3639   -3.2508 C   0  0  0  0  0  0  0  0  0  0  0  0
   13.1634   27.3767   -4.1833 C   0  0  0  0  0  0  0  0  0  0  0  0
   14.2349   27.6500   -4.9590 N   0  0  0  0  0  0  0  0  0  0  0  0
   15.3283   26.9858   -4.8486 O   0  0  0  0  0  0  0  0  0  0  0  0
   15.5059   26.0065   -3.9974 C   0  0  0  0  0  0  0  0  0  0  0  0
   14.4861   25.6192   -3.1378 C   0  0  0  0  0  0  0  0  0  0  0  0
   11.9343   28.1494   -4.3374 C   0  0  0  0  0  0  0  0  0  0  0  0
   10.8965   27.6319   -5.0815 C   0  0  0  0  0  0  0  0  0  0  0  0
    9.7065   28.3265   -5.2660 C   0  0  0  0  0  0  0  0  0  0  0  0
    9.5276   29.5645   -4.7054 C   0  0  0  0  0  0  0  0  0  0  0  0
   10.5728   30.0976   -3.9497 C   0  0  0  0  0  0  0  0  0  0  0  0
   11.7343   29.3958   -3.7820 C   0  0  0  0  0  0  0  0  0  0  0  0
    8.3866   30.2984   -4.8476 O   0  0  0  0  0  0  0  0  0  0  0  0
    7.0692   29.9496   -4.6051 C   0  0  0  0  0  0  0  0  0  0  0  0
    6.7713   30.0289   -3.1653 C   0  0  0  0  0  0  0  0  0  0  0  0
    7.6816   30.2849   -2.3232 O   0  0  0  0  0  0  0  0  0  0  0  0
    5.5101   29.8310   -2.6627 O   0  0  0  0  0  0  0  0  0  0  0  0
    5.2720   29.0003   -2.1394 H   0  0  0  0  0  0  0  0  0  0  0  0
    6.6469   28.6834   -5.2471 C   0  0  0  0  0  0  0  0  0  0  0  0
    6.8119   28.5308   -6.4804 O   0  0  0  0  0  0  0  0  0  0  0  0
    6.0753   27.6850   -4.4750 O   0  0  0  0  0  0  0  0  0  0  0  0
    5.9187   26.7758   -4.8868 H   0  0  0  0  0  0  0  0  0  0  0  0
   16.5943   24.0311   -1.8818 O   0  0  0  0  0  0  0  0  0  0  0  0
   15.3811   23.7225   -1.7491 C   0  0  0  0  0  0  0  0  0  0  0  0
   15.1195   22.3910   -1.1727 C   0  0  0  0  0  0  0  0  0  0  0  0
   14.6233   22.3821    0.2190 C   0  0  0  0  0  0  0  0  0  0  0  0
   13.9635   21.0025    0.3336 C   0  0  0  0  0  0  0  0  0  0  0  0
   13.5634   20.5946   -1.0459 C   0  0  0  0  0  0  0  0  0  0  0  0
   14.0992   21.6447   -1.9720 C   0  0  0  0  0  0  0  0  0  0  0  0
 26 27  2  0  0  0
 27  1  1  0  0  0
  1  2  2  0  0  0
  2  3  1  0  0  0
  3  4  2  0  0  0
  4  5  1  0  0  0
  5 10  1  0  0  0
 10 11  2  0  0  0
 11 12  1  0  0  0
 12 13  2  0  0  0
 13 16  1  0  0  0
 16 17  1  0  0  0
 17 18  1  0  0  0
 18 19  2  0  0  0
 18 20  1  0  0  0
 17 22  1  0  0  0
 22 23  2  0  0  0
 22 24  1  0  0  0
 13 14  1  0  0  0
 14 15  2  0  0  0
  5  6  2  0  0  0
  6  7  1  0  0  0
  7  8  1  0  0  0
  8  9  2  0  0  0
 27 28  1  0  0  0
 28 29  1  0  0  0
 29 30  1  0  0  0
 30 31  1  0  0  0
 31 32  1  0  0  0
  9  1  1  0  0  0
 32 28  1  0  0  0
  9  4  1  0  0  0
 15 10  1  0  0  0
 20 21  1  0  0  0
 24 25  1  0  0  0
M  END
> <minimizedAffinity>
7.54467

> <CNNscore>
0.5247225165

> <CNNaffinity>
6.1185960770

> <CNN_VS>
3.2105650902

> <CNNaffinity_variance>
0.9856843948

$$$$
[H]OC(=O)C([H])(Oc1c([H])c([H])c(-c2noc([H])c3c(C(=O)C4([H])C([H])([H])C([H])([H])C([H])([H])C4([H])[H])c([H])c([H])c2-3)c([H])c1[H])C(=O)O[H]


 32 35  0  0  0  0  0  0  0  0999 V2000
   13.5513   23.3663   -0.6402 C   0  0  0  0  0  0  0  0  0  0  0  0
   12.5199   24.1783   -0.2187 C   0  0  0  0  0  0  0  0  0  0  0  0
   12.3093   25.2257   -1.1092 C   0  0  0  0  0  0  0  0  0  0  0  0
   13.2218   25.0951   -2.1326 C   0  0  0  0  0  0  0  0  0  0  0  0
   13.5171   25.7912   -3.2855 C   0  0  0  0  0  0  0  0  0  0  0  0
   14.5135   25.3604   -4.0893 N   0  0  0  0  0  0  0  0  0  0  0  0
   15.1976   24.3117   -3.8044 O   0  0  0  0  0  0  0  0  0  0  0  0
   15.0014   23.5786   -2.7371 C   0  0  0  0  0  0  0  0  0  0  0  0
   14.0082   23.9064   -1.8234 C   0  0  0  0  0  0  0  0  0  0  0  0
   12.7567   26.9857   -3.6411 C   0  0  0  0  0  0  0  0  0  0  0  0
   11.6095   26.8604   -4.3938 C   0  0  0  0  0  0  0  0  0  0  0  0
   10.8503   27.9639   -4.7659 C   0  0  0  0  0  0  0  0  0  0  0  0
   11.2258   29.2274   -4.3901 C   0  0  0  0  0  0  0  0  0  0  0  0
   12.3865   29.3652   -3.6275 C   0  0  0  0  0  0  0  0  0  0  0  0
   13.1171   28.2651   -3.2733 C   0  0  0  0  0  0  0  0  0  0  0  0
   10.5272   30.3512   -4.7216 O   0  0  0  0  0  0  0  0  0  0  0  0
    9.4679   30.5134   -5.5976 C   0  0  0  0  0  0  0  0  0  0  0  0
    9.4065   31.9029   -6.0811 C   0  0  0  0  0  0  0  0  0  0  0  0
    9.1850   32.1606   -7.3008 O   0  0  0  0  0  0  0  0  0  0  0  0
    9.5852   32.9799   -5.2502 O   0  0  0  0  0  0  0  0  0  0  0  0
   10.4192   33.5486   -5.2907 H   0  0  0  0  0  0  0  0  0  0  0  0
    8.1783   29.9834   -5.0979 C   0  0  0  0  0  0  0  0  0  0  0  0
    7.6227   29.0370   -5.7038 O   0  0  0  0  0  0  0  0  0  0  0  0
    7.6041   30.5414   -3.9670 O   0  0  0  0  0  0  0  0  0  0  0  0
    6.8024   30.0893   -3.5503 H   0  0  0  0  0  0  0  0  0  0  0  0
   15.3294   22.0819    0.2082 O   0  0  0  0  0  0  0  0  0  0  0  0
   14.0915   22.1752   -0.0005 C   0  0  0  0  0  0  0  0  0  0  0  0
   13.2806   21.0250    0.4392 C   0  0  0  0  0  0  0  0  0  0  0  0
   12.7155   21.1234    1.8009 C   0  0  0  0  0  0  0  0  0  0  0  0
   11.5569   20.1195    1.7591 C   0  0  0  0  0  0  0  0  0  0  0  0
   11.1359   19.9987    0.3317 C   0  0  0  0  0  0  0  0  0  0  0  0
   12.1134   20.8049   -0.4696 C   0  0  0  0  0  0  0  0  0  0  0  0
 26 27  2  0  0  0
 27  1  1  0  0  0
  1  2  2  0  0  0
  2  3  1  0  0  0
  3  4  2  0  0  0
  4  5  1  0  0  0
  5 10  1  0  0  0
 10 11  2  0  0  0
 11 12  1  0  0  0
 12 13  2  0  0  0
 13 16  1  0  0  0
 16 17  1  0  0  0
 17 18  1  0  0  0
 18 19  2  0  0  0
 18 20  1  0  0  0
 17 22  1  0  0  0
 22 23  2  0  0  0
 22 24  1  0  0  0
 13 14  1  0  0  0
 14 15  2  0  0  0
  5  6  2  0  0  0
  6  7  1  0  0  0
  7  8  1  0  0  0
  8  9  2  0  0  0
 27 28  1  0  0  0
 28 29  1  0  0  0
 29 30  1  0  0  0
 30 31  1  0  0  0
 31 32  1  0  0  0
  9  1  1  0  0  0
 32 28  1  0  0  0
  9  4  1  0  0  0
 15 10  1  0  0  0
 20 21  1  0  0  0
 24 25  1  0  0  0
M  END
> <minimizedAffinity>
9.99633

> <CNNscore>
0.4779395759

> <CNNaffinity>
6.2613883018

> <CNN_VS>
2.9925651550

> <CNNaffinity_variance>
1.4745514393

$$$$
[H]OC(=O)C([H])(Oc1c([H])c([H])c(-c2noc([H])c3c(C(=O)C4([H])C([H])([H])C([H])([H])C([H])([H])C4([H])[H])c([H])c([H])c2-3)c([H])c1[H])C(=O)O[H]


 32 35  0  0  0  0  0  0  0  0999 V2000
   11.6115   21.0250    0.0676 C   0  0  0  0  0  0  0  0  0  0  0  0
   12.2316   20.6611   -1.1087 C   0  0  0  0  0  0  0  0  0  0  0  0
   12.8124   21.7609   -1.7313 C   0  0  0  0  0  0  0  0  0  0  0  0
   12.5662   22.8651   -0.9458 C   0  0  0  0  0  0  0  0  0  0  0  0
   12.8689   24.2086   -1.0104 C   0  0  0  0  0  0  0  0  0  0  0  0
   12.4544   25.0349   -0.0255 N   0  0  0  0  0  0  0  0  0  0  0  0
   11.7806   24.5974    0.9762 O   0  0  0  0  0  0  0  0  0  0  0  0
   11.4393   23.3432    1.1359 C   0  0  0  0  0  0  0  0  0  0  0  0
   11.8001   22.3843    0.1983 C   0  0  0  0  0  0  0  0  0  0  0  0
   13.6363   24.7386   -2.1337 C   0  0  0  0  0  0  0  0  0  0  0  0
   14.9150   24.2776   -2.3593 C   0  0  0  0  0  0  0  0  0  0  0  0
   15.6925   24.7514   -3.4098 C   0  0  0  0  0  0  0  0  0  0  0  0
   15.2035   25.7050   -4.2644 C   0  0  0  0  0  0  0  0  0  0  0  0
   13.9093   26.1787   -4.0445 C   0  0  0  0  0  0  0  0  0  0  0  0
   13.1631   25.6977   -3.0045 C   0  0  0  0  0  0  0  0  0  0  0  0
   15.9132   26.2123   -5.3131 O   0  0  0  0  0  0  0  0  0  0  0  0
   15.4788   26.9165   -6.4227 C   0  0  0  0  0  0  0  0  0  0  0  0
   15.1906   25.9976   -7.5366 C   0  0  0  0  0  0  0  0  0  0  0  0
   14.0368   25.4992   -7.6900 O   0  0  0  0  0  0  0  0  0  0  0  0
   16.1421   25.6338   -8.4556 O   0  0  0  0  0  0  0  0  0  0  0  0
   16.5362   24.7038   -8.4713 H   0  0  0  0  0  0  0  0  0  0  0  0
   16.3369   28.0675   -6.7872 C   0  0  0  0  0  0  0  0  0  0  0  0
   16.7690   28.1692   -7.9596 O   0  0  0  0  0  0  0  0  0  0  0  0
   16.6500   29.0158   -5.8267 O   0  0  0  0  0  0  0  0  0  0  0  0
   17.1151   29.8665   -6.1109 H   0  0  0  0  0  0  0  0  0  0  0  0
   10.0856   19.3123    0.5868 O   0  0  0  0  0  0  0  0  0  0  0  0
   10.8859   20.1865    1.0111 C   0  0  0  0  0  0  0  0  0  0  0  0
   11.0132   20.2790    2.4770 C   0  0  0  0  0  0  0  0  0  0  0  0
   12.3023   20.8011    2.9760 C   0  0  0  0  0  0  0  0  0  0  0  0
   11.9507   21.2710    4.3928 C   0  0  0  0  0  0  0  0  0  0  0  0
   10.4901   21.5806    4.3997 C   0  0  0  0  0  0  0  0  0  0  0  0
    9.9621   21.1704    3.0579 C   0  0  0  0  0  0  0  0  0  0  0  0
 26 27  2  0  0  0
 27  1  1  0  0  0
  1  2  2  0  0  0
  2  3  1  0  0  0
  3  4  2  0  0  0
  4  5  1  0  0  0
  5 10  1  0  0  0
 10 11  2  0  0  0
 11 12  1  0  0  0
 12 13  2  0  0  0
 13 16  1  0  0  0
 16 17  1  0  0  0
 17 18  1  0  0  0
 18 19  2  0  0  0
 18 20  1  0  0  0
 17 22  1  0  0  0
 22 23  2  0  0  0
 22 24  1  0  0  0
 13 14  1  0  0  0
 14 15  2  0  0  0
  5  6  2  0  0  0
  6  7  1  0  0  0
  7  8  1  0  0  0
  8  9  2  0  0  0
 27 28  1  0  0  0
 28 29  1  0  0  0
 29 30  1  0  0  0
 30 31  1  0  0  0
 31 32  1  0  0  0
  9  1  1  0  0  0
 32 28  1  0  0  0
  9  4  1  0  0  0
 15 10  1  0  0  0
 20 21  1  0  0  0
 24 25  1  0  0  0
M  END
> <minimizedAffinity>
-2.40382

> <CNNscore>
0.4691556096

> <CNNaffinity>
6.5349073410

> <CNN_VS>
3.0658884048

> <CNNaffinity_variance>
0.4361817241

$$$$
[H]OC(=O)C([H])(Oc1c([H])c([H])c(-c2noc([H])c3c(C(=O)C4([H])C([H])([H])C([H])([H])C([H])([H])C4([H])[H])c([H])c([H])c2-3)c([H])c1[H])C(=O)O[H]


 32 35  0  0  0  0  0  0  0  0999 V2000
   11.5962   22.1771   -0.8695 C   0  0  0  0  0  0  0  0  0  0  0  0
   12.1758   21.7095   -2.0297 C   0  0  0  0  0  0  0  0  0  0  0  0
   12.9958   22.6740   -2.6057 C   0  0  0  0  0  0  0  0  0  0  0  0
   12.9505   23.7941   -1.8055 C   0  0  0  0  0  0  0  0  0  0  0  0
   13.5259   25.0468   -1.8288 C   0  0  0  0  0  0  0  0  0  0  0  0
   13.2507   25.9269   -0.8419 N   0  0  0  0  0  0  0  0  0  0  0  0
   12.4606   25.6242    0.1240 O   0  0  0  0  0  0  0  0  0  0  0  0
   11.8619   24.4656    0.2430 C   0  0  0  0  0  0  0  0  0  0  0  0
   12.0555   23.4661   -0.7017 C   0  0  0  0  0  0  0  0  0  0  0  0
   14.4316   25.4224   -2.9107 C   0  0  0  0  0  0  0  0  0  0  0  0
   15.7242   24.9453   -2.9097 C   0  0  0  0  0  0  0  0  0  0  0  0
   16.6303   25.2754   -3.9110 C   0  0  0  0  0  0  0  0  0  0  0  0
   16.2597   26.0971   -4.9436 C   0  0  0  0  0  0  0  0  0  0  0  0
   14.9525   26.5858   -4.9539 C   0  0  0  0  0  0  0  0  0  0  0  0
   14.0787   26.2474   -3.9580 C   0  0  0  0  0  0  0  0  0  0  0  0
   17.0985   26.4601   -5.9562 O   0  0  0  0  0  0  0  0  0  0  0  0
   16.8236   26.7246   -7.2867 C   0  0  0  0  0  0  0  0  0  0  0  0
   15.3701   26.8133   -7.5054 C   0  0  0  0  0  0  0  0  0  0  0  0
   14.8143   27.9225   -7.7580 O   0  0  0  0  0  0  0  0  0  0  0  0
   14.5487   25.7159   -7.4465 O   0  0  0  0  0  0  0  0  0  0  0  0
   13.9033   25.5769   -6.6819 H   0  0  0  0  0  0  0  0  0  0  0  0
   17.5319   25.8414   -8.2418 C   0  0  0  0  0  0  0  0  0  0  0  0
   16.8891   24.9644   -8.8657 O   0  0  0  0  0  0  0  0  0  0  0  0
   18.8954   25.9972   -8.4321 O   0  0  0  0  0  0  0  0  0  0  0  0
   19.3468   25.4918   -9.1815 H   0  0  0  0  0  0  0  0  0  0  0  0
   10.1790   20.3864   -0.3077 O   0  0  0  0  0  0  0  0  0  0  0  0
   10.6753   21.4937    0.0275 C   0  0  0  0  0  0  0  0  0  0  0  0
   10.2582   22.0089    1.3444 C   0  0  0  0  0  0  0  0  0  0  0  0
   10.9216   23.2538    1.7841 C   0  0  0  0  0  0  0  0  0  0  0  0
    9.9520   23.7983    2.8402 C   0  0  0  0  0  0  0  0  0  0  0  0
    8.6007   23.2541    2.5133 C   0  0  0  0  0  0  0  0  0  0  0  0
    8.7913   22.2985    1.3740 C   0  0  0  0  0  0  0  0  0  0  0  0
 26 27  2  0  0  0
 27  1  1  0  0  0
  1  2  2  0  0  0
  2  3  1  0  0  0
  3  4  2  0  0  0
  4  5  1  0  0  0
  5 10  1  0  0  0
 10 11  2  0  0  0
 11 12  1  0  0  0
 12 13  2  0  0  0
 13 16  1  0  0  0
 16 17  1  0  0  0
 17 18  1  0  0  0
 18 19  2  0  0  0
 18 20  1  0  0  0
 17 22  1  0  0  0
 22 23  2  0  0  0
 22 24  1  0  0  0
 13 14  1  0  0  0
 14 15  2  0  0  0
  5  6  2  0  0  0
  6  7  1  0  0  0
  7  8  1  0  0  0
  8  9  2  0  0  0
 27 28  1  0  0  0
 28 29  1  0  0  0
 29 30  1  0  0  0
 30 31  1  0  0  0
 31 32  1  0  0  0
  9  1  1  0  0  0
 32 28  1  0  0  0
  9  4  1  0  0  0
 15 10  1  0  0  0
 20 21  1  0  0  0
 24 25  1  0  0  0
M  END
> <minimizedAffinity>
11.41595

> <CNNscore>
0.4337399304

> <CNNaffinity>
6.4706587791

> <CNN_VS>
2.8065831661

> <CNNaffinity_variance>
1.1336429119

$$$$
[H]OC(=O)C([H])(Oc1c([H])c([H])c(-c2noc([H])c3c(C(=O)C4([H])C([H])([H])C([H])([H])C([H])([H])C4([H])[H])c([H])c([H])c2-3)c([H])c1[H])C(=O)O[H]


 32 35  0  0  0  0  0  0  0  0999 V2000
   14.2568   22.9514   -1.0425 C   0  0  0  0  0  0  0  0  0  0  0  0
   13.4937   23.8823   -0.3703 C   0  0  0  0  0  0  0  0  0  0  0  0
   13.1359   24.9356   -1.2052 C   0  0  0  0  0  0  0  0  0  0  0  0
   13.6765   24.6876   -2.4474 C   0  0  0  0  0  0  0  0  0  0  0  0
   13.6811   25.3302   -3.6672 C   0  0  0  0  0  0  0  0  0  0  0  0
   14.3359   24.7771   -4.7112 N   0  0  0  0  0  0  0  0  0  0  0  0
   14.9588   23.6603   -4.5951 O   0  0  0  0  0  0  0  0  0  0  0  0
   15.0182   22.9683   -3.4849 C   0  0  0  0  0  0  0  0  0  0  0  0
   14.3888   23.4201   -2.3322 C   0  0  0  0  0  0  0  0  0  0  0  0
   12.9800   26.5998   -3.8346 C   0  0  0  0  0  0  0  0  0  0  0  0
   11.6191   26.6000   -4.0499 C   0  0  0  0  0  0  0  0  0  0  0  0
   10.9022   27.7786   -4.2218 C   0  0  0  0  0  0  0  0  0  0  0  0
   11.5369   28.9928   -4.1820 C   0  0  0  0  0  0  0  0  0  0  0  0
   12.9154   29.0037   -3.9645 C   0  0  0  0  0  0  0  0  0  0  0  0
   13.5994   27.8315   -3.7981 C   0  0  0  0  0  0  0  0  0  0  0  0
   10.8937   30.1849   -4.3434 O   0  0  0  0  0  0  0  0  0  0  0  0
   10.0183   30.5958   -5.3337 C   0  0  0  0  0  0  0  0  0  0  0  0
   10.0314   32.0631   -5.4575 C   0  0  0  0  0  0  0  0  0  0  0  0
   10.8883   32.7626   -4.8415 O   0  0  0  0  0  0  0  0  0  0  0  0
    9.1283   32.7443   -6.2338 O   0  0  0  0  0  0  0  0  0  0  0  0
    8.3920   33.3023   -5.8250 H   0  0  0  0  0  0  0  0  0  0  0  0
    8.6644   30.0037   -5.2331 C   0  0  0  0  0  0  0  0  0  0  0  0
    8.1405   29.4836   -6.2463 O   0  0  0  0  0  0  0  0  0  0  0  0
    7.9958   30.0330   -4.0198 O   0  0  0  0  0  0  0  0  0  0  0  0
    7.1384   29.5081   -3.9197 H   0  0  0  0  0  0  0  0  0  0  0  0
   14.5097   20.6133   -1.0547 O   0  0  0  0  0  0  0  0  0  0  0  0
   14.8357   21.7142   -0.5386 C   0  0  0  0  0  0  0  0  0  0  0  0
   15.8073   21.6389    0.5678 C   0  0  0  0  0  0  0  0  0  0  0  0
   15.3093   21.0258    1.8165 C   0  0  0  0  0  0  0  0  0  0  0  0
   16.6028   20.6113    2.5284 C   0  0  0  0  0  0  0  0  0  0  0  0
   17.6397   20.4183    1.4716 C   0  0  0  0  0  0  0  0  0  0  0  0
   17.0128   20.8441    0.1781 C   0  0  0  0  0  0  0  0  0  0  0  0
 26 27  2  0  0  0
 27  1  1  0  0  0
  1  2  2  0  0  0
  2  3  1  0  0  0
  3  4  2  0  0  0
  4  5  1  0  0  0
  5 10  1  0  0  0
 10 11  2  0  0  0
 11 12  1  0  0  0
 12 13  2  0  0  0
 13 16  1  0  0  0
 16 17  1  0  0  0
 17 18  1  0  0  0
 18 19  2  0  0  0
 18 20  1  0  0  0
 17 22  1  0  0  0
 22 23  2  0  0  0
 22 24  1  0  0  0
 13 14  1  0  0  0
 14 15  2  0  0  0
  5  6  2  0  0  0
  6  7  1  0  0  0
  7  8  1  0  0  0
  8  9  2  0  0  0
 27 28  1  0  0  0
 28 29  1  0  0  0
 29 30  1  0  0  0
 30 31  1  0  0  0
 31 32  1  0  0  0
  9  1  1  0  0  0
 32 28  1  0  0  0
  9  4  1  0  0  0
 15 10  1  0  0  0
 20 21  1  0  0  0
 24 25  1  0  0  0
M  END
> <minimizedAffinity>
24.57421

> <CNNscore>
0.4141910076

> <CNNaffinity>
5.5783104897

> <CNN_VS>
2.3104860783

> <CNNaffinity_variance>
0.7250689268

$$$$
[H]OC(=O)C([H])(Oc1c([H])c([H])c(-c2noc([H])c3c(C(=O)C4([H])C([H])([H])C([H])([H])C([H])([H])C4([H])[H])c([H])c([H])c2-3)c([H])c1[H])C(=O)O[H]


 32 35  0  0  0  0  0  0  0  0999 V2000
   15.2962   24.6693   -2.1136 C   0  0  0  0  0  0  0  0  0  0  0  0
   14.5552   24.0013   -3.0653 C   0  0  0  0  0  0  0  0  0  0  0  0
   13.5366   23.2583   -2.4781 C   0  0  0  0  0  0  0  0  0  0  0  0
   13.6141   23.4447   -1.1157 C   0  0  0  0  0  0  0  0  0  0  0  0
   12.9104   22.9980   -0.0176 C   0  0  0  0  0  0  0  0  0  0  0  0
   13.2752   23.4011    1.2189 N   0  0  0  0  0  0  0  0  0  0  0  0
   14.2682   24.1952    1.3985 O   0  0  0  0  0  0  0  0  0  0  0  0
   15.0029   24.6779    0.4278 C   0  0  0  0  0  0  0  0  0  0  0  0
   14.7392   24.3460   -0.8947 C   0  0  0  0  0  0  0  0  0  0  0  0
   11.7739   22.0971   -0.1863 C   0  0  0  0  0  0  0  0  0  0  0  0
   11.8439   20.8157    0.3153 C   0  0  0  0  0  0  0  0  0  0  0  0
   10.7944   19.9144    0.1781 C   0  0  0  0  0  0  0  0  0  0  0  0
    9.6426   20.2786   -0.4696 C   0  0  0  0  0  0  0  0  0  0  0  0
    9.5617   21.5744   -0.9815 C   0  0  0  0  0  0  0  0  0  0  0  0
   10.6069   22.4436   -0.8344 C   0  0  0  0  0  0  0  0  0  0  0  0
    8.5771   19.4438   -0.6390 O   0  0  0  0  0  0  0  0  0  0  0  0
    7.2261   19.6770   -0.4487 C   0  0  0  0  0  0  0  0  0  0  0  0
    6.5445   19.8461   -1.7430 C   0  0  0  0  0  0  0  0  0  0  0  0
    5.2813   19.8171   -1.8244 O   0  0  0  0  0  0  0  0  0  0  0  0
    7.2296   20.0397   -2.9158 O   0  0  0  0  0  0  0  0  0  0  0  0
    7.2828   19.3210   -3.6238 H   0  0  0  0  0  0  0  0  0  0  0  0
    6.9249   20.7354    0.5427 C   0  0  0  0  0  0  0  0  0  0  0  0
    7.1261   20.5166    1.7606 O   0  0  0  0  0  0  0  0  0  0  0  0
    6.4248   21.9529    0.1097 O   0  0  0  0  0  0  0  0  0  0  0  0
    6.3536   22.7158    0.7682 H   0  0  0  0  0  0  0  0  0  0  0  0
   17.5807   25.1835   -1.8956 O   0  0  0  0  0  0  0  0  0  0  0  0
   16.4452   25.5431   -2.3031 C   0  0  0  0  0  0  0  0  0  0  0  0
   16.3889   26.8640   -2.9556 C   0  0  0  0  0  0  0  0  0  0  0  0
   17.6892   27.5388   -3.1484 C   0  0  0  0  0  0  0  0  0  0  0  0
   17.3848   28.5462   -4.2639 C   0  0  0  0  0  0  0  0  0  0  0  0
   16.2311   28.0021   -5.0399 C   0  0  0  0  0  0  0  0  0  0  0  0
   15.7741   26.7715   -4.3159 C   0  0  0  0  0  0  0  0  0  0  0  0
 26 27  2  0  0  0
 27  1  1  0  0  0
  1  2  2  0  0  0
  2  3  1  0  0  0
  3  4  2  0  0  0
  4  5  1  0  0  0
  5 10  1  0  0  0
 10 11  2  0  0  0
 11 12  1  0  0  0
 12 13  2  0  0  0
 13 16  1  0  0  0
 16 17  1  0  0  0
 17 18  1  0  0  0
 18 19  2  0  0  0
 18 20  1  0  0  0
 17 22  1  0  0  0
 22 23  2  0  0  0
 22 24  1  0  0  0
 13 14  1  0  0  0
 14 15  2  0  0  0
  5  6  2  0  0  0
  6  7  1  0  0  0
  7  8  1  0  0  0
  8  9  2  0  0  0
 27 28  1  0  0  0
 28 29  1  0  0  0
 29 30  1  0  0  0
 30 31  1  0  0  0
 31 32  1  0  0  0
  9  1  1  0  0  0
 32 28  1  0  0  0
  9  4  1  0  0  0
 15 10  1  0  0  0
 20 21  1  0  0  0
 24 25  1  0  0  0
M  END
> <minimizedAffinity>
-7.58620

> <CNNscore>
0.3966054916

> <CNNaffinity>
6.6975049973

> <CNN_VS>
2.6562671661

> <CNNaffinity_variance>
0.5716660619

$$$$
[H]OC(=O)C([H])(Oc1c([H])c([H])c(-c2noc([H])c3c(C(=O)C4([H])C([H])([H])C([H])([H])C([H])([H])C4([H])[H])c([H])c([H])c2-3)c([H])c1[H])C(=O)O[H]


 32 35  0  0  0  0  0  0  0  0999 V2000
   15.0548   24.3436   -3.4849 C   0  0  0  0  0  0  0  0  0  0  0  0
   15.2705   23.1153   -2.8968 C   0  0  0  0  0  0  0  0  0  0  0  0
   14.2556   22.8036   -1.9983 C   0  0  0  0  0  0  0  0  0  0  0  0
   13.3594   23.8494   -1.9996 C   0  0  0  0  0  0  0  0  0  0  0  0
   12.1788   24.1373   -1.3484 C   0  0  0  0  0  0  0  0  0  0  0  0
   11.5408   25.3000   -1.6046 N   0  0  0  0  0  0  0  0  0  0  0  0
   12.0099   26.1500   -2.4450 O   0  0  0  0  0  0  0  0  0  0  0  0
   13.1209   25.9773   -3.1165 C   0  0  0  0  0  0  0  0  0  0  0  0
   13.8788   24.8253   -2.9509 C   0  0  0  0  0  0  0  0  0  0  0  0
   11.6158   23.1914   -0.3893 C   0  0  0  0  0  0  0  0  0  0  0  0
   11.6679   21.8410   -0.6580 C   0  0  0  0  0  0  0  0  0  0  0  0
   11.1425   20.8967    0.2167 C   0  0  0  0  0  0  0  0  0  0  0  0
   10.5484   21.2864    1.3888 C   0  0  0  0  0  0  0  0  0  0  0  0
   10.4904   22.6521    1.6704 C   0  0  0  0  0  0  0  0  0  0  0  0
   11.0141   23.5625    0.7949 C   0  0  0  0  0  0  0  0  0  0  0  0
   10.0134   20.4126    2.2894 O   0  0  0  0  0  0  0  0  0  0  0  0
   10.0460   20.4308    3.6730 C   0  0  0  0  0  0  0  0  0  0  0  0
    8.7451   20.8585    4.2141 C   0  0  0  0  0  0  0  0  0  0  0  0
    8.4325   20.6304    5.4197 O   0  0  0  0  0  0  0  0  0  0  0  0
    7.8119   21.5165    3.4534 O   0  0  0  0  0  0  0  0  0  0  0  0
    6.9574   21.0670    3.1561 H   0  0  0  0  0  0  0  0  0  0  0  0
   11.2101   21.1463    4.2449 C   0  0  0  0  0  0  0  0  0  0  0  0
   11.0814   21.7734    5.3227 O   0  0  0  0  0  0  0  0  0  0  0  0
   12.4253   21.1121    3.5802 O   0  0  0  0  0  0  0  0  0  0  0  0
   13.2462   21.4800    4.0400 H   0  0  0  0  0  0  0  0  0  0  0  0
   15.7861   24.7325   -5.6860 O   0  0  0  0  0  0  0  0  0  0  0  0
   15.8737   25.0382   -4.4680 C   0  0  0  0  0  0  0  0  0  0  0  0
   16.8341   26.1093   -4.1453 C   0  0  0  0  0  0  0  0  0  0  0  0
   16.5738   27.4162   -4.7836 C   0  0  0  0  0  0  0  0  0  0  0  0
   17.3473   28.3902   -3.8865 C   0  0  0  0  0  0  0  0  0  0  0  0
   17.4505   27.7543   -2.5395 C   0  0  0  0  0  0  0  0  0  0  0  0
   16.8743   26.3769   -2.6744 C   0  0  0  0  0  0  0  0  0  0  0  0
 26 27  2  0  0  0
 27  1  1  0  0  0
  1  2  2  0  0  0
  2  3  1  0  0  0
  3  4  2  0  0  0
  4  5  1  0  0  0
  5 10  1  0  0  0
 10 11  2  0  0  0
 11 12  1  0  0  0
 12 13  2  0  0  0
 13 16  1  0  0  0
 16 17  1  0  0  0
 17 18  1  0  0  0
 18 19  2  0  0  0
 18 20  1  0  0  0
 17 22  1  0  0  0
 22 23  2  0  0  0
 22 24  1  0  0  0
 13 14  1  0  0  0
 14 15  2  0  0  0
  5  6  2  0  0  0
  6  7  1  0  0  0
  7  8  1  0  0  0
  8  9  2  0  0  0
 27 28  1  0  0  0
 28 29  1  0  0  0
 29 30  1  0  0  0
 30 31  1  0  0  0
 31 32  1  0  0  0
  9  1  1  0  0  0
 32 28  1  0  0  0
  9  4  1  0  0  0
 15 10  1  0  0  0
 20 21  1  0  0  0
 24 25  1  0  0  0
M  END
> <minimizedAffinity>
-5.84274

> <CNNscore>
0.3835331798

> <CNNaffinity>
6.2103509903

> <CNN_VS>
2.3818757534

> <CNNaffinity_variance>
0.8516436815

$$$$
[H]c1c(OC([H])([H])[H])c([H])c2c3nnc(SC([H])([H])[H])nc3n(C([H])([H])[H])c2c1[H]


 18 20  0  0  0  0  0  0  0  0999 V2000
   14.6092   26.2187   -4.2582 C   0  0  0  0  0  0  0  0  0  0  0  0
   15.8690   26.0211   -3.7344 C   0  0  0  0  0  0  0  0  0  0  0  0
   15.9916   25.4225   -2.4790 C   0  0  0  0  0  0  0  0  0  0  0  0
   14.8817   25.0226   -1.7473 C   0  0  0  0  0  0  0  0  0  0  0  0
   13.6322   25.2277   -2.2857 C   0  0  0  0  0  0  0  0  0  0  0  0
   13.5020   25.8254   -3.5400 C   0  0  0  0  0  0  0  0  0  0  0  0
   12.7041   24.7542   -1.3857 C   0  0  0  0  0  0  0  0  0  0  0  0
   11.3632   24.7181   -1.4319 N   0  0  0  0  0  0  0  0  0  0  0  0
   10.6942   24.1994   -0.4163 N   0  0  0  0  0  0  0  0  0  0  0  0
   11.3821   23.7273    0.6259 C   0  0  0  0  0  0  0  0  0  0  0  0
   12.7218   23.7469    0.7067 N   0  0  0  0  0  0  0  0  0  0  0  0
   13.4411   24.2708   -0.3156 C   0  0  0  0  0  0  0  0  0  0  0  0
   14.7577   24.4325   -0.5331 N   0  0  0  0  0  0  0  0  0  0  0  0
   15.8450   24.0441    0.3726 C   0  0  0  0  0  0  0  0  0  0  0  0
   15.1718   26.5341   -6.6401 C   0  0  0  0  0  0  0  0  0  0  0  0
   14.4221   26.8055   -5.4951 O   0  0  0  0  0  0  0  0  0  0  0  0
   10.4449   23.0330    1.9842 S   0  0  0  0  0  0  0  0  0  0  0  0
    9.5960   24.3823    2.8685 C   0  0  0  0  0  0  0  0  0  0  0  0
 15 16  1  0  0  0
 16  1  1  0  0  0
  1  2  2  0  0  0
  2  3  1  0  0  0
  3  4  2  0  0  0
  4  5  1  0  0  0
  5  6  2  0  0  0
  5  7  1  0  0  0
  7  8  2  0  0  0
  8  9  1  0  0  0
  9 10  2  0  0  0
 10 17  1  0  0  0
 17 18  1  0  0  0
 10 11  1  0  0  0
 11 12  2  0  0  0
 12 13  1  0  0  0
 13 14  1  0  0  0
  6  1  1  0  0  0
 12  7  1  0  0  0
 13  4  1  0  0  0
M  END
> <minimizedAffinity>
-7.47000

> <CNNscore>
0.7188641429

> <CNNaffinity>
6.3359947205

> <CNN_VS>
4.5547194481

> <CNNaffinity_variance>
0.0203880761

$$$$
[H]c1c(OC([H])([H])[H])c([H])c2c3nnc(SC([H])([H])[H])nc3n(C([H])([H])[H])c2c1[H]


 18 20  0  0  0  0  0  0  0  0999 V2000
   15.0718   25.9697   -5.3625 C   0  0  0  0  0  0  0  0  0  0  0  0
   14.2526   26.9410   -4.8277 C   0  0  0  0  0  0  0  0  0  0  0  0
   13.5630   26.6662   -3.6453 C   0  0  0  0  0  0  0  0  0  0  0  0
   13.6805   25.4444   -2.9965 C   0  0  0  0  0  0  0  0  0  0  0  0
   14.5026   24.4868   -3.5445 C   0  0  0  0  0  0  0  0  0  0  0  0
   15.1951   24.7546   -4.7262 C   0  0  0  0  0  0  0  0  0  0  0  0
   14.4553   23.3771   -2.7312 C   0  0  0  0  0  0  0  0  0  0  0  0
   15.0685   22.1865   -2.8200 N   0  0  0  0  0  0  0  0  0  0  0  0
   14.8492   21.2741   -1.8886 N   0  0  0  0  0  0  0  0  0  0  0  0
   14.0191   21.5727   -0.8866 C   0  0  0  0  0  0  0  0  0  0  0  0
   13.3887   22.7515   -0.7654 N   0  0  0  0  0  0  0  0  0  0  0  0
   13.5895   23.7112   -1.7012 C   0  0  0  0  0  0  0  0  0  0  0  0
   13.1205   24.9608   -1.8605 N   0  0  0  0  0  0  0  0  0  0  0  0
   12.1835   25.6599   -0.9736 C   0  0  0  0  0  0  0  0  0  0  0  0
   15.5353   25.5496   -7.7496 C   0  0  0  0  0  0  0  0  0  0  0  0
   15.7805   26.1809   -6.5297 O   0  0  0  0  0  0  0  0  0  0  0  0
   13.7436   20.3141    0.3567 S   0  0  0  0  0  0  0  0  0  0  0  0
   12.6094   20.9716    1.6233 C   0  0  0  0  0  0  0  0  0  0  0  0
 15 16  1  0  0  0
 16  1  1  0  0  0
  1  2  2  0  0  0
  2  3  1  0  0  0
  3  4  2  0  0  0
  4  5  1  0  0  0
  5  6  2  0  0  0
  5  7  1  0  0  0
  7  8  2  0  0  0
  8  9  1  0  0  0
  9 10  2  0  0  0
 10 17  1  0  0  0
 17 18  1  0  0  0
 10 11  1  0  0  0
 11 12  2  0  0  0
 12 13  1  0  0  0
 13 14  1  0  0  0
  6  1  1  0  0  0
 12  7  1  0  0  0
 13  4  1  0  0  0
M  END
> <minimizedAffinity>
-7.11950

> <CNNscore>
0.5851062536

> <CNNaffinity>
6.1888847351

> <CNN_VS>
3.6211552620

> <CNNaffinity_variance>
0.0686214417

$$$$
[H]c1c(OC([H])([H])[H])c([H])c2c3nnc(SC([H])([H])[H])nc3n(C([H])([H])[H])c2c1[H]


 18 20  0  0  0  0  0  0  0  0999 V2000
   15.4326   25.5041   -2.7019 C   0  0  0  0  0  0  0  0  0  0  0  0
   14.2478   26.0262   -3.1753 C   0  0  0  0  0  0  0  0  0  0  0  0
   13.0432   25.5255   -2.6779 C   0  0  0  0  0  0  0  0  0  0  0  0
   13.0079   24.5191   -1.7222 C   0  0  0  0  0  0  0  0  0  0  0  0
   14.2000   24.0100   -1.2610 C   0  0  0  0  0  0  0  0  0  0  0  0
   15.4080   24.5056   -1.7537 C   0  0  0  0  0  0  0  0  0  0  0  0
   13.9098   23.0368   -0.3315 C   0  0  0  0  0  0  0  0  0  0  0  0
   14.7082   22.2471    0.4036 N   0  0  0  0  0  0  0  0  0  0  0  0
   14.1669   21.3780    1.2401 N   0  0  0  0  0  0  0  0  0  0  0  0
   12.8358   21.3170    1.3231 C   0  0  0  0  0  0  0  0  0  0  0  0
   12.0068   22.0899    0.6041 N   0  0  0  0  0  0  0  0  0  0  0  0
   12.5257   22.9927   -0.2635 C   0  0  0  0  0  0  0  0  0  0  0  0
   11.9794   23.8884   -1.1038 N   0  0  0  0  0  0  0  0  0  0  0  0
   10.5467   24.1311   -1.3081 C   0  0  0  0  0  0  0  0  0  0  0  0
   17.0287   27.2969   -3.2746 C   0  0  0  0  0  0  0  0  0  0  0  0
   16.6569   25.9574   -3.1545 O   0  0  0  0  0  0  0  0  0  0  0  0
   12.1361   20.1284    2.4646 S   0  0  0  0  0  0  0  0  0  0  0  0
   11.3570   21.0241    3.8481 C   0  0  0  0  0  0  0  0  0  0  0  0
 15 16  1  0  0  0
 16  1  1  0  0  0
  1  2  2  0  0  0
  2  3  1  0  0  0
  3  4  2  0  0  0
  4  5  1  0  0  0
  5  6  2  0  0  0
  5  7  1  0  0  0
  7  8  2  0  0  0
  8  9  1  0  0  0
  9 10  2  0  0  0
 10 17  1  0  0  0
 17 18  1  0  0  0
 10 11  1  0  0  0
 11 12  2  0  0  0
 12 13  1  0  0  0
 13 14  1  0  0  0
  6  1  1  0  0  0
 12  7  1  0  0  0
 13  4  1  0  0  0
M  END
> <minimizedAffinity>
-6.72317

> <CNNscore>
0.5644420385

> <CNNaffinity>
6.3802690506

> <CNN_VS>
3.6012921333

> <CNNaffinity_variance>
0.2337890416

$$$$
[H]c1c(OC([H])([H])[H])c([H])c2c3nnc(SC([H])([H])[H])nc3n(C([H])([H])[H])c2c1[H]


 18 20  0  0  0  0  0  0  0  0999 V2000
   11.7109   24.4164    0.2996 C   0  0  0  0  0  0  0  0  0  0  0  0
   12.3063   23.1748    0.3674 C   0  0  0  0  0  0  0  0  0  0  0  0
   13.2272   22.8133   -0.6177 C   0  0  0  0  0  0  0  0  0  0  0  0
   13.5578   23.6687   -1.6599 C   0  0  0  0  0  0  0  0  0  0  0  0
   12.9539   24.9039   -1.7117 C   0  0  0  0  0  0  0  0  0  0  0  0
   12.0324   25.2721   -0.7304 C   0  0  0  0  0  0  0  0  0  0  0  0
   13.4372   25.5618   -2.8203 C   0  0  0  0  0  0  0  0  0  0  0  0
   13.1704   26.7812   -3.3135 N   0  0  0  0  0  0  0  0  0  0  0  0
   13.7826   27.1825   -4.4145 N   0  0  0  0  0  0  0  0  0  0  0  0
   14.6499   26.3535   -5.0001 C   0  0  0  0  0  0  0  0  0  0  0  0
   14.9411   25.1281   -4.5360 N   0  0  0  0  0  0  0  0  0  0  0  0
   14.3331   24.6829   -3.4094 C   0  0  0  0  0  0  0  0  0  0  0  0
   14.4069   23.5381   -2.7088 N   0  0  0  0  0  0  0  0  0  0  0  0
   15.2453   22.3758   -3.0238 C   0  0  0  0  0  0  0  0  0  0  0  0
    9.9577   23.9940    1.9840 C   0  0  0  0  0  0  0  0  0  0  0  0
   10.7921   24.8325    1.2439 O   0  0  0  0  0  0  0  0  0  0  0  0
   15.4601   26.9279   -6.4897 S   0  0  0  0  0  0  0  0  0  0  0  0
   15.5904   25.5407   -7.6652 C   0  0  0  0  0  0  0  0  0  0  0  0
 15 16  1  0  0  0
 16  1  1  0  0  0
  1  2  2  0  0  0
  2  3  1  0  0  0
  3  4  2  0  0  0
  4  5  1  0  0  0
  5  6  2  0  0  0
  5  7  1  0  0  0
  7  8  2  0  0  0
  8  9  1  0  0  0
  9 10  2  0  0  0
 10 17  1  0  0  0
 17 18  1  0  0  0
 10 11  1  0  0  0
 11 12  2  0  0  0
 12 13  1  0  0  0
 13 14  1  0  0  0
  6  1  1  0  0  0
 12  7  1  0  0  0
 13  4  1  0  0  0
M  END
> <minimizedAffinity>
-7.02129

> <CNNscore>
0.5317327380

> <CNNaffinity>
5.9751267433

> <CNN_VS>
3.1771705151

> <CNNaffinity_variance>
0.0710949451

$$$$
[H]c1c(OC([H])([H])[H])c([H])c2c3nnc(SC([H])([H])[H])nc3n(C([H])([H])[H])c2c1[H]


 18 20  0  0  0  0  0  0  0  0999 V2000
   14.0251   24.8971   -2.3497 C   0  0  0  0  0  0  0  0  0  0  0  0
   12.8121   25.5469   -2.4342 C   0  0  0  0  0  0  0  0  0  0  0  0
   11.7632   25.1274   -1.6139 C   0  0  0  0  0  0  0  0  0  0  0  0
   11.9095   24.0767   -0.7184 C   0  0  0  0  0  0  0  0  0  0  0  0
   13.1271   23.4397   -0.6474 C   0  0  0  0  0  0  0  0  0  0  0  0
   14.1801   23.8537   -1.4644 C   0  0  0  0  0  0  0  0  0  0  0  0
   13.0267   22.4459    0.2999 C   0  0  0  0  0  0  0  0  0  0  0  0
   13.9224   21.5494    0.7422 N   0  0  0  0  0  0  0  0  0  0  0  0
   13.5665   20.6864    1.6784 N   0  0  0  0  0  0  0  0  0  0  0  0
   12.3198   20.7383    2.1528 C   0  0  0  0  0  0  0  0  0  0  0  0
   11.3980   21.6199    1.7346 N   0  0  0  0  0  0  0  0  0  0  0  0
   11.7268   22.5201    0.7763 C   0  0  0  0  0  0  0  0  0  0  0  0
   11.0505   23.5057    0.1614 N   0  0  0  0  0  0  0  0  0  0  0  0
    9.6530   23.8846    0.4000 C   0  0  0  0  0  0  0  0  0  0  0  0
   15.3110   24.8687   -4.4556 C   0  0  0  0  0  0  0  0  0  0  0  0
   15.1011   25.2652   -3.1344 O   0  0  0  0  0  0  0  0  0  0  0  0
   11.8709   19.5545    3.4188 S   0  0  0  0  0  0  0  0  0  0  0  0
   11.0542   20.4354    4.7900 C   0  0  0  0  0  0  0  0  0  0  0  0
 15 16  1  0  0  0
 16  1  1  0  0  0
  1  2  2  0  0  0
  2  3  1  0  0  0
  3  4  2  0  0  0
  4  5  1  0  0  0
  5  6  2  0  0  0
  5  7  1  0  0  0
  7  8  2  0  0  0
  8  9  1  0  0  0
  9 10  2  0  0  0
 10 17  1  0  0  0
 17 18  1  0  0  0
 10 11  1  0  0  0
 11 12  2  0  0  0
 12 13  1  0  0  0
 13 14  1  0  0  0
  6  1  1  0  0  0
 12  7  1  0  0  0
 13  4  1  0  0  0
M  END
> <minimizedAffinity>
-6.51159

> <CNNscore>
0.4570471942

> <CNNaffinity>
5.9578638077

> <CNN_VS>
2.7230248451

> <CNNaffinity_variance>
0.1206643358

$$$$
[H]c1c(OC([H])([H])[H])c([H])c2c3nnc(SC([H])([H])[H])nc3n(C([H])([H])[H])c2c1[H]


 18 20  0  0  0  0  0  0  0  0999 V2000
   11.4354   22.9252   -0.5414 C   0  0  0  0  0  0  0  0  0  0  0  0
   12.3323   22.6141    0.4583 C   0  0  0  0  0  0  0  0  0  0  0  0
   13.6178   23.1562    0.4043 C   0  0  0  0  0  0  0  0  0  0  0  0
   14.0147   23.9974   -0.6264 C   0  0  0  0  0  0  0  0  0  0  0  0
   13.1064   24.2971   -1.6154 C   0  0  0  0  0  0  0  0  0  0  0  0
   11.8196   23.7589   -1.5679 C   0  0  0  0  0  0  0  0  0  0  0  0
   13.7249   25.1378   -2.5131 C   0  0  0  0  0  0  0  0  0  0  0  0
   13.2790   25.7125   -3.6412 N   0  0  0  0  0  0  0  0  0  0  0  0
   14.0899   26.4937   -4.3341 N   0  0  0  0  0  0  0  0  0  0  0  0
   15.3320   26.6836   -3.8830 C   0  0  0  0  0  0  0  0  0  0  0  0
   15.8120   26.1258   -2.7605 N   0  0  0  0  0  0  0  0  0  0  0  0
   15.0095   25.3191   -2.0241 C   0  0  0  0  0  0  0  0  0  0  0  0
   15.1858   24.6302   -0.8835 N   0  0  0  0  0  0  0  0  0  0  0  0
   16.4111   24.5768   -0.0778 C   0  0  0  0  0  0  0  0  0  0  0  0
    9.6358   21.5107    0.3807 C   0  0  0  0  0  0  0  0  0  0  0  0
   10.1490   22.4207   -0.5442 O   0  0  0  0  0  0  0  0  0  0  0  0
   16.4039   27.7462   -4.8460 S   0  0  0  0  0  0  0  0  0  0  0  0
   17.9001   28.1165   -3.8726 C   0  0  0  0  0  0  0  0  0  0  0  0
 15 16  1  0  0  0
 16  1  1  0  0  0
  1  2  2  0  0  0
  2  3  1  0  0  0
  3  4  2  0  0  0
  4  5  1  0  0  0
  5  6  2  0  0  0
  5  7  1  0  0  0
  7  8  2  0  0  0
  8  9  1  0  0  0
  9 10  2  0  0  0
 10 17  1  0  0  0
 17 18  1  0  0  0
 10 11  1  0  0  0
 11 12  2  0  0  0
 12 13  1  0  0  0
 13 14  1  0  0  0
  6  1  1  0  0  0
 12  7  1  0  0  0
 13  4  1  0  0  0
M  END
> <minimizedAffinity>
-5.51318

> <CNNscore>
0.3717316985

> <CNNaffinity>
5.9881944656

> <CNN_VS>
2.2260017395

> <CNNaffinity_variance>
0.2408179939

$$$$
[H]c1c(OC([H])([H])[H])c([H])c2c3nnc(SC([H])([H])[H])nc3n(C([H])([H])[H])c2c1[H]


 18 20  0  0  0  0  0  0  0  0999 V2000
   16.0538   24.2703   -5.6566 C   0  0  0  0  0  0  0  0  0  0  0  0
   15.7958   23.3824   -4.6341 C   0  0  0  0  0  0  0  0  0  0  0  0
   14.9306   23.7674   -3.6082 C   0  0  0  0  0  0  0  0  0  0  0  0
   14.3256   25.0168   -3.5913 C   0  0  0  0  0  0  0  0  0  0  0  0
   14.5946   25.8902   -4.6199 C   0  0  0  0  0  0  0  0  0  0  0  0
   15.4584   25.5121   -5.6488 C   0  0  0  0  0  0  0  0  0  0  0  0
   13.8873   27.0475   -4.3842 C   0  0  0  0  0  0  0  0  0  0  0  0
   13.8048   28.1928   -5.0793 N   0  0  0  0  0  0  0  0  0  0  0  0
   13.0381   29.1706   -4.6274 N   0  0  0  0  0  0  0  0  0  0  0  0
   12.3694   28.9816   -3.4875 C   0  0  0  0  0  0  0  0  0  0  0  0
   12.4279   27.8511   -2.7663 N   0  0  0  0  0  0  0  0  0  0  0  0
   13.2032   26.8269   -3.1986 C   0  0  0  0  0  0  0  0  0  0  0  0
   13.4675   25.5996   -2.7183 N   0  0  0  0  0  0  0  0  0  0  0  0
   12.9288   25.0108   -1.4869 C   0  0  0  0  0  0  0  0  0  0  0  0
   16.8404   24.4881   -7.9854 C   0  0  0  0  0  0  0  0  0  0  0  0
   16.9005   23.9485   -6.7001 O   0  0  0  0  0  0  0  0  0  0  0  0
   11.3416   30.3263   -2.9037 S   0  0  0  0  0  0  0  0  0  0  0  0
   10.2177   30.8376   -4.2448 C   0  0  0  0  0  0  0  0  0  0  0  0
 15 16  1  0  0  0
 16  1  1  0  0  0
  1  2  2  0  0  0
  2  3  1  0  0  0
  3  4  2  0  0  0
  4  5  1  0  0  0
  5  6  2  0  0  0
  5  7  1  0  0  0
  7  8  2  0  0  0
  8  9  1  0  0  0
  9 10  2  0  0  0
 10 17  1  0  0  0
 17 18  1  0  0  0
 10 11  1  0  0  0
 11 12  2  0  0  0
 12 13  1  0  0  0
 13 14  1  0  0  0
  6  1  1  0  0  0
 12  7  1  0  0  0
 13  4  1  0  0  0
M  END
> <minimizedAffinity>
19.58907

> <CNNscore>
0.3497910798

> <CNNaffinity>
5.0420160294

> <CNN_VS>
1.7636522055

> <CNNaffinity_variance>
0.2443540394

$$$$
[H]c1c(OC([H])([H])[H])c([H])c2c3nnc(SC([H])([H])[H])nc3n(C([H])([H])[H])c2c1[H]


 18 20  0  0  0  0  0  0  0  0999 V2000
    8.4775   23.8709    4.4048 C   0  0  0  0  0  0  0  0  0  0  0  0
    8.4359   22.8163    5.2917 C   0  0  0  0  0  0  0  0  0  0  0  0
    9.3176   21.7487    5.1126 C   0  0  0  0  0  0  0  0  0  0  0  0
   10.2318   21.7218    4.0681 C   0  0  0  0  0  0  0  0  0  0  0  0
   10.2593   22.7828    3.1926 C   0  0  0  0  0  0  0  0  0  0  0  0
    9.3810   23.8535    3.3655 C   0  0  0  0  0  0  0  0  0  0  0  0
   11.2360   22.5296    2.2560 C   0  0  0  0  0  0  0  0  0  0  0  0
   11.6568   23.2423    1.1995 N   0  0  0  0  0  0  0  0  0  0  0  0
   12.6316   22.7659    0.4438 N   0  0  0  0  0  0  0  0  0  0  0  0
   13.1653   21.5843    0.7616 C   0  0  0  0  0  0  0  0  0  0  0  0
   12.7702   20.8443    1.8095 N   0  0  0  0  0  0  0  0  0  0  0  0
   11.7737   21.3007    2.6068 C   0  0  0  0  0  0  0  0  0  0  0  0
   11.1674   20.8114    3.7021 N   0  0  0  0  0  0  0  0  0  0  0  0
   11.4646   19.5378    4.3675 C   0  0  0  0  0  0  0  0  0  0  0  0
    8.0063   26.2278    4.9639 C   0  0  0  0  0  0  0  0  0  0  0  0
    7.6314   24.9563    4.5286 O   0  0  0  0  0  0  0  0  0  0  0  0
   14.4822   20.9683   -0.2832 S   0  0  0  0  0  0  0  0  0  0  0  0
   14.3939   21.8035   -1.9012 C   0  0  0  0  0  0  0  0  0  0  0  0
 15 16  1  0  0  0
 16  1  1  0  0  0
  1  2  2  0  0  0
  2  3  1  0  0  0
  3  4  2  0  0  0
  4  5  1  0  0  0
  5  6  2  0  0  0
  5  7  1  0  0  0
  7  8  2  0  0  0
  8  9  1  0  0  0
  9 10  2  0  0  0
 10 17  1  0  0  0
 17 18  1  0  0  0
 10 11  1  0  0  0
 11 12  2  0  0  0
 12 13  1  0  0  0
 13 14  1  0  0  0
  6  1  1  0  0  0
 12  7  1  0  0  0
 13  4  1  0  0  0
M  END
> <minimizedAffinity>
-5.25964

> <CNNscore>
0.3362152278

> <CNNaffinity>
5.2718048096

> <CNN_VS>
1.7724610567

> <CNNaffinity_variance>
0.2999646068

$$$$
[H]c1c(OC([H])([H])[H])c([H])c2c3nnc(SC([H])([H])[H])nc3n(C([H])([H])[H])c2c1[H]


 18 20  0  0  0  0  0  0  0  0999 V2000
   14.5357   25.8722   -4.1208 C   0  0  0  0  0  0  0  0  0  0  0  0
   15.2971   24.7577   -4.4017 C   0  0  0  0  0  0  0  0  0  0  0  0
   15.1566   23.6245   -3.5983 C   0  0  0  0  0  0  0  0  0  0  0  0
   14.2732   23.5912   -2.5278 C   0  0  0  0  0  0  0  0  0  0  0  0
   13.5214   24.7125   -2.2623 C   0  0  0  0  0  0  0  0  0  0  0  0
   13.6565   25.8488   -3.0611 C   0  0  0  0  0  0  0  0  0  0  0  0
   12.7311   24.4391   -1.1687 C   0  0  0  0  0  0  0  0  0  0  0  0
   11.8293   25.1899   -0.5171 N   0  0  0  0  0  0  0  0  0  0  0  0
   11.1935   24.6801    0.5240 N   0  0  0  0  0  0  0  0  0  0  0  0
   11.4743   23.4280    0.8921 C   0  0  0  0  0  0  0  0  0  0  0  0
   12.3692   22.6484    0.2652 N   0  0  0  0  0  0  0  0  0  0  0  0
   13.0402   23.1370   -0.8063 C   0  0  0  0  0  0  0  0  0  0  0  0
   13.9724   22.6234   -1.6273 N   0  0  0  0  0  0  0  0  0  0  0  0
   14.5490   21.2759   -1.5568 C   0  0  0  0  0  0  0  0  0  0  0  0
   15.8118   27.7004   -5.1784 C   0  0  0  0  0  0  0  0  0  0  0  0
   14.6290   27.0238   -4.8786 O   0  0  0  0  0  0  0  0  0  0  0  0
   10.5961   22.7694    2.3065 S   0  0  0  0  0  0  0  0  0  0  0  0
    9.6426   24.1118    3.0889 C   0  0  0  0  0  0  0  0  0  0  0  0
 15 16  1  0  0  0
 16  1  1  0  0  0
  1  2  2  0  0  0
  2  3  1  0  0  0
  3  4  2  0  0  0
  4  5  1  0  0  0
  5  6  2  0  0  0
  5  7  1  0  0  0
  7  8  2  0  0  0
  8  9  1  0  0  0
  9 10  2  0  0  0
 10 17  1  0  0  0
 17 18  1  0  0  0
 10 11  1  0  0  0
 11 12  2  0  0  0
 12 13  1  0  0  0
 13 14  1  0  0  0
  6  1  1  0  0  0
 12  7  1  0  0  0
 13  4  1  0  0  0
M  END
> <minimizedAffinity>
-7.48785

> <CNNscore>
0.3167857528

> <CNNaffinity>
5.8999581337

> <CNN_VS>
1.8690227270

> <CNNaffinity_variance>
0.0659428686

$$$$
[H]OC1(c2c([H])c([H])c(C([H])([H])C([H])([H])C([H])([H])[H])c([H])c2[H])C([H])([H])C([H])([H])N(C([H])(c2c([H])c([H])c([H])c([H])c2[H])c2c([H])c([H])c([H])c([H])c2[H])C([H])([H])C1([H])[H]


 30 33  0  0  0  0  0  0  0  0999 V2000
   12.9135   23.7449   -1.6191 C   0  0  0  0  0  0  0  0  0  0  0  0
   13.8959   24.1128   -0.6731 O   0  0  0  0  0  0  0  0  0  0  0  0
   13.4630   22.6357   -2.4312 C   0  0  0  0  0  0  0  0  0  0  0  0
   14.7955   23.0695   -2.9786 C   0  0  0  0  0  0  0  0  0  0  0  0
   14.9317   24.4690   -3.1408 N   0  0  0  0  0  0  0  0  0  0  0  0
   13.8389   25.2955   -3.3378 C   0  0  0  0  0  0  0  0  0  0  0  0
   12.6427   24.9352   -2.4881 C   0  0  0  0  0  0  0  0  0  0  0  0
   13.7339   23.6329    0.1785 H   0  0  0  0  0  0  0  0  0  0  0  0
    9.5358   22.4561    0.6854 C   0  0  0  0  0  0  0  0  0  0  0  0
    9.6910   23.7893    0.3570 C   0  0  0  0  0  0  0  0  0  0  0  0
   10.7696   24.2304   -0.4072 C   0  0  0  0  0  0  0  0  0  0  0  0
   11.7234   23.3370   -0.8606 C   0  0  0  0  0  0  0  0  0  0  0  0
   11.5420   22.0148   -0.5222 C   0  0  0  0  0  0  0  0  0  0  0  0
   10.4841   21.5632    0.2303 C   0  0  0  0  0  0  0  0  0  0  0  0
    8.4388   22.0625    1.5936 C   0  0  0  0  0  0  0  0  0  0  0  0
    7.8311   20.5101    3.4167 C   0  0  0  0  0  0  0  0  0  0  0  0
    8.9598   21.2825    2.7891 C   0  0  0  0  0  0  0  0  0  0  0  0
   16.2167   24.9794   -2.8699 C   0  0  0  0  0  0  0  0  0  0  0  0
   16.4238   26.3993   -3.3708 C   0  0  0  0  0  0  0  0  0  0  0  0
   15.5904   26.9152   -4.3661 C   0  0  0  0  0  0  0  0  0  0  0  0
   15.7784   28.1715   -4.8721 C   0  0  0  0  0  0  0  0  0  0  0  0
   16.8240   28.9233   -4.3676 C   0  0  0  0  0  0  0  0  0  0  0  0
   17.6356   28.4217   -3.3930 C   0  0  0  0  0  0  0  0  0  0  0  0
   17.4333   27.1296   -2.8800 C   0  0  0  0  0  0  0  0  0  0  0  0
   16.6508   25.0326   -1.4751 C   0  0  0  0  0  0  0  0  0  0  0  0
   16.8814   26.2547   -0.8493 C   0  0  0  0  0  0  0  0  0  0  0  0
   17.2199   26.3476    0.4707 C   0  0  0  0  0  0  0  0  0  0  0  0
   17.3443   25.1993    1.2478 C   0  0  0  0  0  0  0  0  0  0  0  0
   17.1280   23.9899    0.6507 C   0  0  0  0  0  0  0  0  0  0  0  0
   16.7885   23.9244   -0.6924 C   0  0  0  0  0  0  0  0  0  0  0  0
 16 17  1  0  0  0
 17 15  1  0  0  0
 15  9  1  0  0  0
  9 10  2  0  0  0
 10 11  1  0  0  0
 11 12  2  0  0  0
 12  1  1  0  0  0
  1  2  1  0  0  0
  1  3  1  0  0  0
  3  4  1  0  0  0
  4  5  1  0  0  0
  5 18  1  0  0  0
 18 19  1  0  0  0
 19 20  2  0  0  0
 20 21  1  0  0  0
 21 22  2  0  0  0
 22 23  1  0  0  0
 23 24  2  0  0  0
 18 25  1  0  0  0
 25 26  2  0  0  0
 26 27  1  0  0  0
 27 28  2  0  0  0
 28 29  1  0  0  0
 29 30  2  0  0  0
  5  6  1  0  0  0
  6  7  1  0  0  0
 12 13  1  0  0  0
 13 14  2  0  0  0
 14  9  1  0  0  0
  7  1  1  0  0  0
 24 19  1  0  0  0
 30 25  1  0  0  0
  2  8  1  0  0  0
M  END
> <minimizedAffinity>
3.14001

> <CNNscore>
0.5168367624

> <CNNaffinity>
7.1089730263

> <CNN_VS>
3.6741786003

> <CNNaffinity_variance>
1.0151380301

$$$$
[H]OC1(c2c([H])c([H])c(C([H])([H])C([H])([H])C([H])([H])[H])c([H])c2[H])C([H])([H])C([H])([H])N(C([H])(c2c([H])c([H])c([H])c([H])c2[H])c2c([H])c([H])c([H])c([H])c2[H])C([H])([H])C1([H])[H]


 30 33  0  0  0  0  0  0  0  0999 V2000
   14.0041   25.8738   -3.3163 C   0  0  0  0  0  0  0  0  0  0  0  0
   13.5152   25.2734   -2.1348 O   0  0  0  0  0  0  0  0  0  0  0  0
   14.0848   24.8227   -4.3558 C   0  0  0  0  0  0  0  0  0  0  0  0
   14.8856   23.6754   -3.8027 C   0  0  0  0  0  0  0  0  0  0  0  0
   15.8228   24.0443   -2.8082 N   0  0  0  0  0  0  0  0  0  0  0  0
   16.3659   25.3160   -2.7462 C   0  0  0  0  0  0  0  0  0  0  0  0
   15.3699   26.4172   -3.0253 C   0  0  0  0  0  0  0  0  0  0  0  0
   12.5319   25.3864   -2.0866 H   0  0  0  0  0  0  0  0  0  0  0  0
   11.3171   29.0759   -4.2688 C   0  0  0  0  0  0  0  0  0  0  0  0
   11.8112   28.2571   -5.2662 C   0  0  0  0  0  0  0  0  0  0  0  0
   12.6704   27.1980   -4.9802 C   0  0  0  0  0  0  0  0  0  0  0  0
   13.0562   26.9363   -3.6779 C   0  0  0  0  0  0  0  0  0  0  0  0
   12.5460   27.7650   -2.7039 C   0  0  0  0  0  0  0  0  0  0  0  0
   11.6977   28.8136   -2.9688 C   0  0  0  0  0  0  0  0  0  0  0  0
   10.5042   30.2522   -4.6413 C   0  0  0  0  0  0  0  0  0  0  0  0
   12.3043   31.7784   -3.9112 C   0  0  0  0  0  0  0  0  0  0  0  0
   10.8406   31.4562   -3.7775 C   0  0  0  0  0  0  0  0  0  0  0  0
   15.9923   23.1069   -1.7701 C   0  0  0  0  0  0  0  0  0  0  0  0
   16.6586   23.6855   -0.5327 C   0  0  0  0  0  0  0  0  0  0  0  0
   15.8896   24.3478    0.4271 C   0  0  0  0  0  0  0  0  0  0  0  0
   16.4633   24.9204    1.5283 C   0  0  0  0  0  0  0  0  0  0  0  0
   17.8360   24.8249    1.6673 C   0  0  0  0  0  0  0  0  0  0  0  0
   18.5870   24.1748    0.7326 C   0  0  0  0  0  0  0  0  0  0  0  0
   17.9872   23.5900   -0.3952 C   0  0  0  0  0  0  0  0  0  0  0  0
   14.7996   22.4422   -1.2480 C   0  0  0  0  0  0  0  0  0  0  0  0
   14.3223   21.2746   -1.8371 C   0  0  0  0  0  0  0  0  0  0  0  0
   13.2536   20.5873   -1.3360 C   0  0  0  0  0  0  0  0  0  0  0  0
   12.5972   21.0408   -0.1952 C   0  0  0  0  0  0  0  0  0  0  0  0
   13.0468   22.1883    0.3943 C   0  0  0  0  0  0  0  0  0  0  0  0
   14.1323   22.8680   -0.1376 C   0  0  0  0  0  0  0  0  0  0  0  0
 16 17  1  0  0  0
 17 15  1  0  0  0
 15  9  1  0  0  0
  9 10  2  0  0  0
 10 11  1  0  0  0
 11 12  2  0  0  0
 12  1  1  0  0  0
  1  2  1  0  0  0
  1  3  1  0  0  0
  3  4  1  0  0  0
  4  5  1  0  0  0
  5 18  1  0  0  0
 18 19  1  0  0  0
 19 20  2  0  0  0
 20 21  1  0  0  0
 21 22  2  0  0  0
 22 23  1  0  0  0
 23 24  2  0  0  0
 18 25  1  0  0  0
 25 26  2  0  0  0
 26 27  1  0  0  0
 27 28  2  0  0  0
 28 29  1  0  0  0
 29 30  2  0  0  0
  5  6  1  0  0  0
  6  7  1  0  0  0
 12 13  1  0  0  0
 13 14  2  0  0  0
 14  9  1  0  0  0
  7  1  1  0  0  0
 24 19  1  0  0  0
 30 25  1  0  0  0
  2  8  1  0  0  0
M  END
> <minimizedAffinity>
23.41302

> <CNNscore>
0.4689348042

> <CNNaffinity>
6.6583418846

> <CNN_VS>
3.1223282814

> <CNNaffinity_variance>
0.7911354303

$$$$
[H]OC1(c2c([H])c([H])c(C([H])([H])C([H])([H])C([H])([H])[H])c([H])c2[H])C([H])([H])C([H])([H])N(C([H])(c2c([H])c([H])c([H])c([H])c2[H])c2c([H])c([H])c([H])c([H])c2[H])C([H])([H])C1([H])[H]


 30 33  0  0  0  0  0  0  0  0999 V2000
   12.5504   24.1085   -1.1834 C   0  0  0  0  0  0  0  0  0  0  0  0
   12.9229   24.7436    0.0222 O   0  0  0  0  0  0  0  0  0  0  0  0
   11.0844   24.2506   -1.3332 C   0  0  0  0  0  0  0  0  0  0  0  0
   10.4323   23.7435   -0.0758 C   0  0  0  0  0  0  0  0  0  0  0  0
   11.1846   22.7655    0.6177 N   0  0  0  0  0  0  0  0  0  0  0  0
   12.0970   21.9476   -0.0262 C   0  0  0  0  0  0  0  0  0  0  0  0
   12.9196   22.6604   -1.0739 C   0  0  0  0  0  0  0  0  0  0  0  0
   13.2018   25.6758   -0.1653 H   0  0  0  0  0  0  0  0  0  0  0  0
   14.7015   25.9289   -4.4144 C   0  0  0  0  0  0  0  0  0  0  0  0
   13.6017   26.5585   -3.8636 C   0  0  0  0  0  0  0  0  0  0  0  0
   12.8975   25.9968   -2.8004 C   0  0  0  0  0  0  0  0  0  0  0  0
   13.2837   24.7817   -2.2637 C   0  0  0  0  0  0  0  0  0  0  0  0
   14.3848   24.1786   -2.8289 C   0  0  0  0  0  0  0  0  0  0  0  0
   15.0905   24.7189   -3.8774 C   0  0  0  0  0  0  0  0  0  0  0  0
   15.3385   26.5126   -5.6131 C   0  0  0  0  0  0  0  0  0  0  0  0
   16.9464   27.8035   -4.2525 C   0  0  0  0  0  0  0  0  0  0  0  0
   15.8974   27.8964   -5.3274 C   0  0  0  0  0  0  0  0  0  0  0  0
   11.1024   22.8340    2.0226 C   0  0  0  0  0  0  0  0  0  0  0  0
    9.7542   23.3202    2.5286 C   0  0  0  0  0  0  0  0  0  0  0  0
    9.6306   24.6093    3.0523 C   0  0  0  0  0  0  0  0  0  0  0  0
    8.4437   25.0615    3.5588 C   0  0  0  0  0  0  0  0  0  0  0  0
    7.3608   24.2015    3.5380 C   0  0  0  0  0  0  0  0  0  0  0  0
    7.4798   22.9442    3.0231 C   0  0  0  0  0  0  0  0  0  0  0  0
    8.7040   22.4896    2.5052 C   0  0  0  0  0  0  0  0  0  0  0  0
   11.3407   21.6078    2.7819 C   0  0  0  0  0  0  0  0  0  0  0  0
   11.0300   21.5403    4.1373 C   0  0  0  0  0  0  0  0  0  0  0  0
   11.1729   20.3923    4.8635 C   0  0  0  0  0  0  0  0  0  0  0  0
   11.6402   19.2296    4.2574 C   0  0  0  0  0  0  0  0  0  0  0  0
   11.9563   19.2769    2.9292 C   0  0  0  0  0  0  0  0  0  0  0  0
   11.8045   20.4568    2.2164 C   0  0  0  0  0  0  0  0  0  0  0  0
 16 17  1  0  0  0
 17 15  1  0  0  0
 15  9  1  0  0  0
  9 10  2  0  0  0
 10 11  1  0  0  0
 11 12  2  0  0  0
 12  1  1  0  0  0
  1  2  1  0  0  0
  1  3  1  0  0  0
  3  4  1  0  0  0
  4  5  1  0  0  0
  5 18  1  0  0  0
 18 19  1  0  0  0
 19 20  2  0  0  0
 20 21  1  0  0  0
 21 22  2  0  0  0
 22 23  1  0  0  0
 23 24  2  0  0  0
 18 25  1  0  0  0
 25 26  2  0  0  0
 26 27  1  0  0  0
 27 28  2  0  0  0
 28 29  1  0  0  0
 29 30  2  0  0  0
  5  6  1  0  0  0
  6  7  1  0  0  0
 12 13  1  0  0  0
 13 14  2  0  0  0
 14  9  1  0  0  0
  7  1  1  0  0  0
 24 19  1  0  0  0
 30 25  1  0  0  0
  2  8  1  0  0  0
M  END
> <minimizedAffinity>
-10.31289

> <CNNscore>
0.4031345546

> <CNNaffinity>
6.5902528763

> <CNN_VS>
2.6567585468

> <CNNaffinity_variance>
0.2697625160

$$$$
[H]OC1(c2c([H])c([H])c(C([H])([H])C([H])([H])C([H])([H])[H])c([H])c2[H])C([H])([H])C([H])([H])N(C([H])(c2c([H])c([H])c([H])c([H])c2[H])c2c([H])c([H])c([H])c([H])c2[H])C([H])([H])C1([H])[H]


 30 33  0  0  0  0  0  0  0  0999 V2000
   12.2321   23.8271   -0.7634 C   0  0  0  0  0  0  0  0  0  0  0  0
   12.7795   24.3180    0.4427 O   0  0  0  0  0  0  0  0  0  0  0  0
   10.8105   24.2377   -0.8130 C   0  0  0  0  0  0  0  0  0  0  0  0
   10.1467   23.7876    0.4598 C   0  0  0  0  0  0  0  0  0  0  0  0
   10.7451   22.6540    1.0603 N   0  0  0  0  0  0  0  0  0  0  0  0
   11.4565   21.7223    0.3241 C   0  0  0  0  0  0  0  0  0  0  0  0
   12.3365   22.3324   -0.7415 C   0  0  0  0  0  0  0  0  0  0  0  0
   13.2130   25.1939    0.2791 H   0  0  0  0  0  0  0  0  0  0  0  0
   14.5007   25.6935   -3.8859 C   0  0  0  0  0  0  0  0  0  0  0  0
   14.9131   24.4909   -3.3446 C   0  0  0  0  0  0  0  0  0  0  0  0
   14.1830   23.8547   -2.3425 C   0  0  0  0  0  0  0  0  0  0  0  0
   13.0155   24.4161   -1.8576 C   0  0  0  0  0  0  0  0  0  0  0  0
   12.6260   25.6121   -2.4174 C   0  0  0  0  0  0  0  0  0  0  0  0
   13.3341   26.2526   -3.4062 C   0  0  0  0  0  0  0  0  0  0  0  0
   15.3729   26.3793   -4.8617 C   0  0  0  0  0  0  0  0  0  0  0  0
   15.9548   26.6436   -7.2480 C   0  0  0  0  0  0  0  0  0  0  0  0
   15.2334   25.7783   -6.2504 C   0  0  0  0  0  0  0  0  0  0  0  0
   10.7537   22.6590    2.4692 C   0  0  0  0  0  0  0  0  0  0  0  0
    9.4322   23.0915    3.0827 C   0  0  0  0  0  0  0  0  0  0  0  0
    8.2714   22.3587    2.8242 C   0  0  0  0  0  0  0  0  0  0  0  0
    7.0584   22.7466    3.3220 C   0  0  0  0  0  0  0  0  0  0  0  0
    7.0118   23.8929    4.0944 C   0  0  0  0  0  0  0  0  0  0  0  0
    8.1454   24.6067    4.3506 C   0  0  0  0  0  0  0  0  0  0  0  0
    9.3867   24.1990    3.8342 C   0  0  0  0  0  0  0  0  0  0  0  0
   11.0658   21.4066    3.1553 C   0  0  0  0  0  0  0  0  0  0  0  0
   10.5504   21.1431    4.4214 C   0  0  0  0  0  0  0  0  0  0  0  0
   10.7621   19.9566    5.0643 C   0  0  0  0  0  0  0  0  0  0  0  0
   11.5127   18.9525    4.4593 C   0  0  0  0  0  0  0  0  0  0  0  0
   12.0323   19.1940    3.2192 C   0  0  0  0  0  0  0  0  0  0  0  0
   11.8044   20.4089    2.5906 C   0  0  0  0  0  0  0  0  0  0  0  0
 16 17  1  0  0  0
 17 15  1  0  0  0
 15  9  1  0  0  0
  9 10  2  0  0  0
 10 11  1  0  0  0
 11 12  2  0  0  0
 12  1  1  0  0  0
  1  2  1  0  0  0
  1  3  1  0  0  0
  3  4  1  0  0  0
  4  5  1  0  0  0
  5 18  1  0  0  0
 18 19  1  0  0  0
 19 20  2  0  0  0
 20 21  1  0  0  0
 21 22  2  0  0  0
 22 23  1  0  0  0
 23 24  2  0  0  0
 18 25  1  0  0  0
 25 26  2  0  0  0
 26 27  1  0  0  0
 27 28  2  0  0  0
 28 29  1  0  0  0
 29 30  2  0  0  0
  5  6  1  0  0  0
  6  7  1  0  0  0
 12 13  1  0  0  0
 13 14  2  0  0  0
 14  9  1  0  0  0
  7  1  1  0  0  0
 24 19  1  0  0  0
 30 25  1  0  0  0
  2  8  1  0  0  0
M  END
> <minimizedAffinity>
-9.66716

> <CNNscore>
0.3797313869

> <CNNaffinity>
6.4274115562

> <CNN_VS>
2.4406898022

> <CNNaffinity_variance>
0.0705039352

$$$$
[H]OC1(c2c([H])c([H])c(C([H])([H])C([H])([H])C([H])([H])[H])c([H])c2[H])C([H])([H])C([H])([H])N(C([H])(c2c([H])c([H])c([H])c([H])c2[H])c2c([H])c([H])c([H])c([H])c2[H])C([H])([H])C1([H])[H]


 30 33  0  0  0  0  0  0  0  0999 V2000
   12.7353   23.9909   -1.3964 C   0  0  0  0  0  0  0  0  0  0  0  0
   12.6363   22.6523   -1.8366 O   0  0  0  0  0  0  0  0  0  0  0  0
   13.5000   23.9929   -0.1286 C   0  0  0  0  0  0  0  0  0  0  0  0
   12.8472   23.0203    0.8154 C   0  0  0  0  0  0  0  0  0  0  0  0
   11.4634   22.8271    0.5889 N   0  0  0  0  0  0  0  0  0  0  0  0
   10.6744   23.7956   -0.0074 C   0  0  0  0  0  0  0  0  0  0  0  0
   11.3464   24.5020   -1.1614 C   0  0  0  0  0  0  0  0  0  0  0  0
   13.3691   22.4569   -2.4743 H   0  0  0  0  0  0  0  0  0  0  0  0
   14.7600   26.0323   -4.5765 C   0  0  0  0  0  0  0  0  0  0  0  0
   13.6373   26.5868   -3.9923 C   0  0  0  0  0  0  0  0  0  0  0  0
   12.9728   25.9524   -2.9444 C   0  0  0  0  0  0  0  0  0  0  0  0
   13.4231   24.7386   -2.4574 C   0  0  0  0  0  0  0  0  0  0  0  0
   14.5457   24.2110   -3.0550 C   0  0  0  0  0  0  0  0  0  0  0  0
   15.2128   24.8235   -4.0890 C   0  0  0  0  0  0  0  0  0  0  0  0
   15.3548   26.6903   -5.7582 C   0  0  0  0  0  0  0  0  0  0  0  0
   16.9422   27.8584   -4.2688 C   0  0  0  0  0  0  0  0  0  0  0  0
   15.9634   28.0352   -5.3980 C   0  0  0  0  0  0  0  0  0  0  0  0
   11.0000   21.5146    0.8074 C   0  0  0  0  0  0  0  0  0  0  0  0
   10.9874   21.1114    2.2727 C   0  0  0  0  0  0  0  0  0  0  0  0
   10.3932   21.9483    3.2202 C   0  0  0  0  0  0  0  0  0  0  0  0
   10.4055   21.6383    4.5519 C   0  0  0  0  0  0  0  0  0  0  0  0
   11.0268   20.4645    4.9381 C   0  0  0  0  0  0  0  0  0  0  0  0
   11.6036   19.6449    4.0130 C   0  0  0  0  0  0  0  0  0  0  0  0
   11.5851   19.9731    2.6472 C   0  0  0  0  0  0  0  0  0  0  0  0
    9.6570   21.1772    0.3391 C   0  0  0  0  0  0  0  0  0  0  0  0
    9.4768   20.4237   -0.8177 C   0  0  0  0  0  0  0  0  0  0  0  0
    8.2419   20.0296   -1.2482 C   0  0  0  0  0  0  0  0  0  0  0  0
    7.1021   20.3737   -0.5269 C   0  0  0  0  0  0  0  0  0  0  0  0
    7.2574   21.1180    0.6081 C   0  0  0  0  0  0  0  0  0  0  0  0
    8.5229   21.5073    1.0207 C   0  0  0  0  0  0  0  0  0  0  0  0
 16 17  1  0  0  0
 17 15  1  0  0  0
 15  9  1  0  0  0
  9 10  2  0  0  0
 10 11  1  0  0  0
 11 12  2  0  0  0
 12  1  1  0  0  0
  1  2  1  0  0  0
  1  3  1  0  0  0
  3  4  1  0  0  0
  4  5  1  0  0  0
  5 18  1  0  0  0
 18 19  1  0  0  0
 19 20  2  0  0  0
 20 21  1  0  0  0
 21 22  2  0  0  0
 22 23  1  0  0  0
 23 24  2  0  0  0
 18 25  1  0  0  0
 25 26  2  0  0  0
 26 27  1  0  0  0
 27 28  2  0  0  0
 28 29  1  0  0  0
 29 30  2  0  0  0
  5  6  1  0  0  0
  6  7  1  0  0  0
 12 13  1  0  0  0
 13 14  2  0  0  0
 14  9  1  0  0  0
  7  1  1  0  0  0
 24 19  1  0  0  0
 30 25  1  0  0  0
  2  8  1  0  0  0
M  END
> <minimizedAffinity>
-10.52565

> <CNNscore>
0.3379935920

> <CNNaffinity>
6.5331406593

> <CNN_VS>
2.2081596851

> <CNNaffinity_variance>
0.3214126229

$$$$
[H]OC1(c2c([H])c([H])c(C([H])([H])C([H])([H])C([H])([H])[H])c([H])c2[H])C([H])([H])C([H])([H])N(C([H])(c2c([H])c([H])c([H])c([H])c2[H])c2c([H])c([H])c([H])c([H])c2[H])C([H])([H])C1([H])[H]


 30 33  0  0  0  0  0  0  0  0999 V2000
   12.8185   23.9597   -1.4716 C   0  0  0  0  0  0  0  0  0  0  0  0
   12.6944   22.6060   -1.8553 O   0  0  0  0  0  0  0  0  0  0  0  0
   13.6042   24.0023   -0.2175 C   0  0  0  0  0  0  0  0  0  0  0  0
   12.9543   23.0780    0.7758 C   0  0  0  0  0  0  0  0  0  0  0  0
   11.5645   22.8951    0.5796 N   0  0  0  0  0  0  0  0  0  0  0  0
   10.7787   23.8497   -0.0428 C   0  0  0  0  0  0  0  0  0  0  0  0
   11.4407   24.4993   -1.2353 C   0  0  0  0  0  0  0  0  0  0  0  0
   13.4139   22.3746   -2.4963 H   0  0  0  0  0  0  0  0  0  0  0  0
   14.7925   26.1263   -4.6004 C   0  0  0  0  0  0  0  0  0  0  0  0
   15.2503   24.8807   -4.2155 C   0  0  0  0  0  0  0  0  0  0  0  0
   14.6147   24.1484   -3.2147 C   0  0  0  0  0  0  0  0  0  0  0  0
   13.4986   24.6542   -2.5731 C   0  0  0  0  0  0  0  0  0  0  0  0
   13.0618   25.8952   -2.9790 C   0  0  0  0  0  0  0  0  0  0  0  0
   13.6768   26.6305   -3.9641 C   0  0  0  0  0  0  0  0  0  0  0  0
   15.5722   26.9065   -5.5836 C   0  0  0  0  0  0  0  0  0  0  0  0
   17.1658   27.8489   -3.9479 C   0  0  0  0  0  0  0  0  0  0  0  0
   16.1160   28.1867   -4.9717 C   0  0  0  0  0  0  0  0  0  0  0  0
   11.0873   21.5992    0.8587 C   0  0  0  0  0  0  0  0  0  0  0  0
   11.0601   21.2688    2.3419 C   0  0  0  0  0  0  0  0  0  0  0  0
   11.6125   20.0697    2.7986 C   0  0  0  0  0  0  0  0  0  0  0  0
   11.5633   19.7203    4.1196 C   0  0  0  0  0  0  0  0  0  0  0  0
   10.9473   20.5930    4.9980 C   0  0  0  0  0  0  0  0  0  0  0  0
   10.4113   21.7658    4.5535 C   0  0  0  0  0  0  0  0  0  0  0  0
   10.4676   22.1151    3.1939 C   0  0  0  0  0  0  0  0  0  0  0  0
    9.7447   21.2511    0.3971 C   0  0  0  0  0  0  0  0  0  0  0  0
    9.5657   20.4668   -0.7392 C   0  0  0  0  0  0  0  0  0  0  0  0
    8.3310   20.0629   -1.1613 C   0  0  0  0  0  0  0  0  0  0  0  0
    7.1903   20.4280   -0.4519 C   0  0  0  0  0  0  0  0  0  0  0  0
    7.3445   21.2026    0.6628 C   0  0  0  0  0  0  0  0  0  0  0  0
    8.6098   21.6012    1.0672 C   0  0  0  0  0  0  0  0  0  0  0  0
 16 17  1  0  0  0
 17 15  1  0  0  0
 15  9  1  0  0  0
  9 10  2  0  0  0
 10 11  1  0  0  0
 11 12  2  0  0  0
 12  1  1  0  0  0
  1  2  1  0  0  0
  1  3  1  0  0  0
  3  4  1  0  0  0
  4  5  1  0  0  0
  5 18  1  0  0  0
 18 19  1  0  0  0
 19 20  2  0  0  0
 20 21  1  0  0  0
 21 22  2  0  0  0
 22 23  1  0  0  0
 23 24  2  0  0  0
 18 25  1  0  0  0
 25 26  2  0  0  0
 26 27  1  0  0  0
 27 28  2  0  0  0
 28 29  1  0  0  0
 29 30  2  0  0  0
  5  6  1  0  0  0
  6  7  1  0  0  0
 12 13  1  0  0  0
 13 14  2  0  0  0
 14  9  1  0  0  0
  7  1  1  0  0  0
 24 19  1  0  0  0
 30 25  1  0  0  0
  2  8  1  0  0  0
M  END
> <minimizedAffinity>
-10.51502

> <CNNscore>
0.3270933926

> <CNNaffinity>
6.5359635353

> <CNN_VS>
2.1378705502

> <CNNaffinity_variance>
0.3811233342

$$$$
[H]OC1(c2c([H])c([H])c(C([H])([H])C([H])([H])C([H])([H])[H])c([H])c2[H])C([H])([H])C([H])([H])N(C([H])(c2c([H])c([H])c([H])c([H])c2[H])c2c([H])c([H])c([H])c([H])c2[H])C([H])([H])C1([H])[H]


 30 33  0  0  0  0  0  0  0  0999 V2000
   13.5327   25.0487   -1.9590 C   0  0  0  0  0  0  0  0  0  0  0  0
   13.3315   23.6507   -1.9831 O   0  0  0  0  0  0  0  0  0  0  0  0
   14.6170   25.3312   -0.9914 C   0  0  0  0  0  0  0  0  0  0  0  0
   14.2608   24.6797    0.3170 C   0  0  0  0  0  0  0  0  0  0  0  0
   12.8705   24.5218    0.5304 N   0  0  0  0  0  0  0  0  0  0  0  0
   11.9367   25.3502   -0.0678 C   0  0  0  0  0  0  0  0  0  0  0  0
   12.2565   25.6895   -1.5048 C   0  0  0  0  0  0  0  0  0  0  0  0
   13.8625   23.2509   -2.7181 H   0  0  0  0  0  0  0  0  0  0  0  0
   14.5781   26.0643   -5.9908 C   0  0  0  0  0  0  0  0  0  0  0  0
   13.6604   26.8260   -5.2930 C   0  0  0  0  0  0  0  0  0  0  0  0
   13.3183   26.5281   -3.9754 C   0  0  0  0  0  0  0  0  0  0  0  0
   13.8930   25.4509   -3.3251 C   0  0  0  0  0  0  0  0  0  0  0  0
   14.8067   24.7117   -4.0424 C   0  0  0  0  0  0  0  0  0  0  0  0
   15.1553   24.9919   -5.3422 C   0  0  0  0  0  0  0  0  0  0  0  0
   14.8157   26.3556   -7.4198 C   0  0  0  0  0  0  0  0  0  0  0  0
   17.2041   26.8912   -7.7541 C   0  0  0  0  0  0  0  0  0  0  0  0
   16.1591   25.8159   -7.8811 C   0  0  0  0  0  0  0  0  0  0  0  0
   12.5002   23.3427    1.2070 C   0  0  0  0  0  0  0  0  0  0  0  0
   11.0389   22.9690    1.0199 C   0  0  0  0  0  0  0  0  0  0  0  0
   10.6270   22.3351   -0.1547 C   0  0  0  0  0  0  0  0  0  0  0  0
    9.3131   22.0274   -0.3750 C   0  0  0  0  0  0  0  0  0  0  0  0
    8.3961   22.3632    0.6044 C   0  0  0  0  0  0  0  0  0  0  0  0
    8.7981   22.9785    1.7533 C   0  0  0  0  0  0  0  0  0  0  0  0
   10.1508   23.2900    1.9695 C   0  0  0  0  0  0  0  0  0  0  0  0
   13.2210   22.1132    0.8821 C   0  0  0  0  0  0  0  0  0  0  0  0
   14.1767   22.0968   -0.1302 C   0  0  0  0  0  0  0  0  0  0  0  0
   14.9197   20.9868   -0.4159 C   0  0  0  0  0  0  0  0  0  0  0  0
   14.7427   19.8145    0.3136 C   0  0  0  0  0  0  0  0  0  0  0  0
   13.8054   19.8085    1.3074 C   0  0  0  0  0  0  0  0  0  0  0  0
   13.0626   20.9489    1.5742 C   0  0  0  0  0  0  0  0  0  0  0  0
 16 17  1  0  0  0
 17 15  1  0  0  0
 15  9  1  0  0  0
  9 10  2  0  0  0
 10 11  1  0  0  0
 11 12  2  0  0  0
 12  1  1  0  0  0
  1  2  1  0  0  0
  1  3  1  0  0  0
  3  4  1  0  0  0
  4  5  1  0  0  0
  5 18  1  0  0  0
 18 19  1  0  0  0
 19 20  2  0  0  0
 20 21  1  0  0  0
 21 22  2  0  0  0
 22 23  1  0  0  0
 23 24  2  0  0  0
 18 25  1  0  0  0
 25 26  2  0  0  0
 26 27  1  0  0  0
 27 28  2  0  0  0
 28 29  1  0  0  0
 29 30  2  0  0  0
  5  6  1  0  0  0
  6  7  1  0  0  0
 12 13  1  0  0  0
 13 14  2  0  0  0
 14  9  1  0  0  0
  7  1  1  0  0  0
 24 19  1  0  0  0
 30 25  1  0  0  0
  2  8  1  0  0  0
M  END
> <minimizedAffinity>
-3.54235

> <CNNscore>
0.3022412956

> <CNNaffinity>
6.7153944969

> <CNN_VS>
2.0296695232

> <CNNaffinity_variance>
0.3657075763

$$$$
[H]OC1(c2c([H])c([H])c(C([H])([H])C([H])([H])C([H])([H])[H])c([H])c2[H])C([H])([H])C([H])([H])N(C([H])(c2c([H])c([H])c([H])c([H])c2[H])c2c([H])c([H])c([H])c([H])c2[H])C([H])([H])C1([H])[H]


 30 33  0  0  0  0  0  0  0  0999 V2000
   13.2739   23.4161   -1.4977 C   0  0  0  0  0  0  0  0  0  0  0  0
   11.8733   23.4342   -1.6804 O   0  0  0  0  0  0  0  0  0  0  0  0
   13.7139   22.0028   -1.5271 C   0  0  0  0  0  0  0  0  0  0  0  0
   12.8945   21.2347   -0.5261 C   0  0  0  0  0  0  0  0  0  0  0  0
   12.4103   22.0138    0.5519 N   0  0  0  0  0  0  0  0  0  0  0  0
   13.0527   23.1655    0.9727 C   0  0  0  0  0  0  0  0  0  0  0  0
   13.5714   24.0210   -0.1594 C   0  0  0  0  0  0  0  0  0  0  0  0
   11.6648   23.5650   -2.6403 H   0  0  0  0  0  0  0  0  0  0  0  0
   14.9697   25.8338   -4.6057 C   0  0  0  0  0  0  0  0  0  0  0  0
   15.4720   24.5727   -4.3476 C   0  0  0  0  0  0  0  0  0  0  0  0
   14.9259   23.7600   -3.3560 C   0  0  0  0  0  0  0  0  0  0  0  0
   13.8569   24.1988   -2.5956 C   0  0  0  0  0  0  0  0  0  0  0  0
   13.3740   25.4572   -2.8766 C   0  0  0  0  0  0  0  0  0  0  0  0
   13.9008   26.2713   -3.8508 C   0  0  0  0  0  0  0  0  0  0  0  0
   15.6602   26.6955   -5.5874 C   0  0  0  0  0  0  0  0  0  0  0  0
   17.1247   27.8046   -3.9358 C   0  0  0  0  0  0  0  0  0  0  0  0
   16.0589   28.0275   -4.9744 C   0  0  0  0  0  0  0  0  0  0  0  0
   11.1270   21.6614    1.0145 C   0  0  0  0  0  0  0  0  0  0  0  0
   11.1471   20.8380    2.2918 C   0  0  0  0  0  0  0  0  0  0  0  0
   10.2229   21.1021    3.3053 C   0  0  0  0  0  0  0  0  0  0  0  0
   10.2432   20.4118    4.4855 C   0  0  0  0  0  0  0  0  0  0  0  0
   11.2110   19.4374    4.6494 C   0  0  0  0  0  0  0  0  0  0  0  0
   12.1111   19.1762    3.6587 C   0  0  0  0  0  0  0  0  0  0  0  0
   12.0812   19.8915    2.4499 C   0  0  0  0  0  0  0  0  0  0  0  0
   10.1858   22.7408    1.3077 C   0  0  0  0  0  0  0  0  0  0  0  0
    8.9255   22.7639    0.7169 C   0  0  0  0  0  0  0  0  0  0  0  0
    7.9940   23.7162    1.0190 C   0  0  0  0  0  0  0  0  0  0  0  0
    8.2813   24.7118    1.9485 C   0  0  0  0  0  0  0  0  0  0  0  0
    9.5151   24.7099    2.5351 C   0  0  0  0  0  0  0  0  0  0  0  0
   10.4430   23.7327    2.2075 C   0  0  0  0  0  0  0  0  0  0  0  0
 16 17  1  0  0  0
 17 15  1  0  0  0
 15  9  1  0  0  0
  9 10  2  0  0  0
 10 11  1  0  0  0
 11 12  2  0  0  0
 12  1  1  0  0  0
  1  2  1  0  0  0
  1  3  1  0  0  0
  3  4  1  0  0  0
  4  5  1  0  0  0
  5 18  1  0  0  0
 18 19  1  0  0  0
 19 20  2  0  0  0
 20 21  1  0  0  0
 21 22  2  0  0  0
 22 23  1  0  0  0
 23 24  2  0  0  0
 18 25  1  0  0  0
 25 26  2  0  0  0
 26 27  1  0  0  0
 27 28  2  0  0  0
 28 29  1  0  0  0
 29 30  2  0  0  0
  5  6  1  0  0  0
  6  7  1  0  0  0
 12 13  1  0  0  0
 13 14  2  0  0  0
 14  9  1  0  0  0
  7  1  1  0  0  0
 24 19  1  0  0  0
 30 25  1  0  0  0
  2  8  1  0  0  0
M  END
> <minimizedAffinity>
-9.96622

> <CNNscore>
0.2928136289

> <CNNaffinity>
6.5209846497

> <CNN_VS>
1.9094331264

> <CNNaffinity_variance>
0.3764526844

$$$$
[H]OC1(c2c([H])c([H])c(C([H])([H])C([H])([H])C([H])([H])[H])c([H])c2[H])C([H])([H])C([H])([H])N(C([H])(c2c([H])c([H])c([H])c([H])c2[H])c2c([H])c([H])c([H])c([H])c2[H])C([H])([H])C1([H])[H]


 30 33  0  0  0  0  0  0  0  0999 V2000
   13.3857   23.5350   -1.3283 C   0  0  0  0  0  0  0  0  0  0  0  0
   12.4085   24.3401   -0.7020 O   0  0  0  0  0  0  0  0  0  0  0  0
   12.7363   22.2652   -1.7254 C   0  0  0  0  0  0  0  0  0  0  0  0
   12.0611   21.6836   -0.5133 C   0  0  0  0  0  0  0  0  0  0  0  0
   12.6509   22.0567    0.7182 N   0  0  0  0  0  0  0  0  0  0  0  0
   13.9850   22.4129    0.8156 C   0  0  0  0  0  0  0  0  0  0  0  0
   14.4714   23.2688   -0.3304 C   0  0  0  0  0  0  0  0  0  0  0  0
   12.0038   24.9512   -1.3688 H   0  0  0  0  0  0  0  0  0  0  0  0
   14.8172   25.8735   -4.6242 C   0  0  0  0  0  0  0  0  0  0  0  0
   15.3980   24.6557   -4.3260 C   0  0  0  0  0  0  0  0  0  0  0  0
   14.9385   23.8682   -3.2722 C   0  0  0  0  0  0  0  0  0  0  0  0
   13.8793   24.2891   -2.4884 C   0  0  0  0  0  0  0  0  0  0  0  0
   13.3170   25.5040   -2.8101 C   0  0  0  0  0  0  0  0  0  0  0  0
   13.7579   26.2929   -3.8458 C   0  0  0  0  0  0  0  0  0  0  0  0
   15.4184   26.7181   -5.6770 C   0  0  0  0  0  0  0  0  0  0  0  0
   17.0384   27.7811   -4.1445 C   0  0  0  0  0  0  0  0  0  0  0  0
   15.9162   28.0385   -5.1134 C   0  0  0  0  0  0  0  0  0  0  0  0
   11.7451   22.2511    1.7797 C   0  0  0  0  0  0  0  0  0  0  0  0
   10.3079   22.4420    1.3239 C   0  0  0  0  0  0  0  0  0  0  0  0
    9.7202   23.7078    1.3847 C   0  0  0  0  0  0  0  0  0  0  0  0
    8.4154   23.9053    1.0267 C   0  0  0  0  0  0  0  0  0  0  0  0
    7.6879   22.8094    0.5993 C   0  0  0  0  0  0  0  0  0  0  0  0
    8.2622   21.5740    0.5358 C   0  0  0  0  0  0  0  0  0  0  0  0
    9.6038   21.3823    0.9059 C   0  0  0  0  0  0  0  0  0  0  0  0
   11.6540   21.2084    2.8001 C   0  0  0  0  0  0  0  0  0  0  0  0
   10.9689   21.4375    3.9902 C   0  0  0  0  0  0  0  0  0  0  0  0
   10.8026   20.4665    4.9363 C   0  0  0  0  0  0  0  0  0  0  0  0
   11.3212   19.1906    4.7342 C   0  0  0  0  0  0  0  0  0  0  0  0
   12.0021   18.9474    3.5751 C   0  0  0  0  0  0  0  0  0  0  0  0
   12.1588   19.9527    2.6327 C   0  0  0  0  0  0  0  0  0  0  0  0
 16 17  1  0  0  0
 17 15  1  0  0  0
 15  9  1  0  0  0
  9 10  2  0  0  0
 10 11  1  0  0  0
 11 12  2  0  0  0
 12  1  1  0  0  0
  1  2  1  0  0  0
  1  3  1  0  0  0
  3  4  1  0  0  0
  4  5  1  0  0  0
  5 18  1  0  0  0
 18 19  1  0  0  0
 19 20  2  0  0  0
 20 21  1  0  0  0
 21 22  2  0  0  0
 22 23  1  0  0  0
 23 24  2  0  0  0
 18 25  1  0  0  0
 25 26  2  0  0  0
 26 27  1  0  0  0
 27 28  2  0  0  0
 28 29  1  0  0  0
 29 30  2  0  0  0
  5  6  1  0  0  0
  6  7  1  0  0  0
 12 13  1  0  0  0
 13 14  2  0  0  0
 14  9  1  0  0  0
  7  1  1  0  0  0
 24 19  1  0  0  0
 30 25  1  0  0  0
  2  8  1  0  0  0
M  END
> <minimizedAffinity>
-9.67437

> <CNNscore>
0.2868545353

> <CNNaffinity>
6.5660705566

> <CNN_VS>
1.8835071325

> <CNNaffinity_variance>
0.2098295242

$$$$
[H]N=C(c1c([H])c([H])c([H])c(Oc2nc(Oc3c([H])c([H])c([H])c(N([H])C(=O)C([H])([H])[H])c3[H])c(F)c(C([H])([H])[H])c2F)c1[H])N([H])[H]


 34 36  0  0  0  0  0  0  0  0999 V2000
   13.8789   22.9763   -0.4487 C   0  0  0  0  0  0  0  0  0  0  0  0
   13.4434   22.9088    0.8327 N   0  0  0  0  0  0  0  0  0  0  0  0
   12.8186   21.8567    1.3669 C   0  0  0  0  0  0  0  0  0  0  0  0
   12.5932   20.7523    0.5713 C   0  0  0  0  0  0  0  0  0  0  0  0
   11.9564   19.6664    1.0983 F   0  0  0  0  0  0  0  0  0  0  0  0
   13.0050   20.7420   -0.7414 C   0  0  0  0  0  0  0  0  0  0  0  0
   12.7739   19.5659   -1.6166 C   0  0  0  0  0  0  0  0  0  0  0  0
   13.6431   21.8625   -1.2247 C   0  0  0  0  0  0  0  0  0  0  0  0
   14.0319   21.8031   -2.5338 F   0  0  0  0  0  0  0  0  0  0  0  0
   14.5096   24.0854   -0.9245 O   0  0  0  0  0  0  0  0  0  0  0  0
   14.4914   25.6206   -4.2579 C   0  0  0  0  0  0  0  0  0  0  0  0
   13.4152   26.4559   -4.0868 C   0  0  0  0  0  0  0  0  0  0  0  0
   12.6891   26.5381   -2.9153 C   0  0  0  0  0  0  0  0  0  0  0  0
   13.0316   25.7614   -1.8498 C   0  0  0  0  0  0  0  0  0  0  0  0
   14.0997   24.9041   -1.9584 C   0  0  0  0  0  0  0  0  0  0  0  0
   14.8020   24.8440   -3.1335 C   0  0  0  0  0  0  0  0  0  0  0  0
   16.1518   25.9404   -7.7315 C   0  0  0  0  0  0  0  0  0  0  0  0
   15.2080   26.2377   -6.6043 C   0  0  0  0  0  0  0  0  0  0  0  0
   14.3972   27.1494   -6.8039 O   0  0  0  0  0  0  0  0  0  0  0  0
   15.2763   25.5089   -5.4272 N   0  0  0  0  0  0  0  0  0  0  0  0
   16.0269   24.7325   -5.3686 H   0  0  0  0  0  0  0  0  0  0  0  0
   12.4095   21.8880    2.6997 O   0  0  0  0  0  0  0  0  0  0  0  0
   11.0846   22.0325    3.0631 C   0  0  0  0  0  0  0  0  0  0  0  0
   10.5142   21.3619    4.1365 C   0  0  0  0  0  0  0  0  0  0  0  0
    9.1914   21.5394    4.4583 C   0  0  0  0  0  0  0  0  0  0  0  0
    8.3829   22.4020    3.7115 C   0  0  0  0  0  0  0  0  0  0  0  0
    8.9190   23.0723    2.6525 C   0  0  0  0  0  0  0  0  0  0  0  0
   10.2791   22.8719    2.3441 C   0  0  0  0  0  0  0  0  0  0  0  0
    8.1298   23.9836    1.8380 C   0  0  0  0  0  0  0  0  0  0  0  0
    7.5393   24.9842    2.3384 N   0  0  0  0  0  0  0  0  0  0  0  0
    8.0163   23.7489    0.4454 N   0  0  0  0  0  0  0  0  0  0  0  0
    7.5729   25.2200    3.3291 H   0  0  0  0  0  0  0  0  0  0  0  0
    7.0745   23.6348    0.0365 H   0  0  0  0  0  0  0  0  0  0  0  0
    8.8668   23.6949   -0.1389 H   0  0  0  0  0  0  0  0  0  0  0  0
 17 18  1  0  0  0
 18 19  2  0  0  0
 18 20  1  0  0  0
 20 11  1  0  0  0
 11 12  2  0  0  0
 12 13  1  0  0  0
 13 14  2  0  0  0
 14 15  1  0  0  0
 15 10  1  0  0  0
 10  1  1  0  0  0
  1  2  2  0  0  0
  2  3  1  0  0  0
  3 22  1  0  0  0
 22 23  1  0  0  0
 23 24  2  0  0  0
 24 25  1  0  0  0
 25 26  2  0  0  0
 26 27  1  0  0  0
 27 29  1  0  0  0
 29 30  2  0  0  0
 29 31  1  0  0  0
 27 28  2  0  0  0
  3  4  2  0  0  0
  4  5  1  0  0  0
  4  6  1  0  0  0
  6  7  1  0  0  0
  6  8  2  0  0  0
  8  9  1  0  0  0
 15 16  2  0  0  0
 16 11  1  0  0  0
  8  1  1  0  0  0
 28 23  1  0  0  0
 20 21  1  0  0  0
 30 32  1  0  0  0
 31 33  1  0  0  0
 31 34  1  0  0  0
M  END
> <minimizedAffinity>
-7.22939

> <CNNscore>
0.3509543836

> <CNNaffinity>
7.1388130188

> <CNN_VS>
2.5053977966

> <CNNaffinity_variance>
0.4116896987

$$$$
[H]N=C(c1c([H])c([H])c([H])c(Oc2nc(Oc3c([H])c([H])c([H])c(N([H])C(=O)C([H])([H])[H])c3[H])c(F)c(C([H])([H])[H])c2F)c1[H])N([H])[H]


 34 36  0  0  0  0  0  0  0  0999 V2000
   14.2749   22.4503   -1.8438 C   0  0  0  0  0  0  0  0  0  0  0  0
   13.3867   21.5352   -1.3857 N   0  0  0  0  0  0  0  0  0  0  0  0
   12.7434   21.6207   -0.2188 C   0  0  0  0  0  0  0  0  0  0  0  0
   12.9891   22.7118    0.5888 C   0  0  0  0  0  0  0  0  0  0  0  0
   12.3417   22.8182    1.7854 F   0  0  0  0  0  0  0  0  0  0  0  0
   13.8779   23.6856    0.1952 C   0  0  0  0  0  0  0  0  0  0  0  0
   14.1584   24.8682    1.0468 C   0  0  0  0  0  0  0  0  0  0  0  0
   14.5048   23.5312   -1.0210 C   0  0  0  0  0  0  0  0  0  0  0  0
   15.3783   24.5243   -1.3663 F   0  0  0  0  0  0  0  0  0  0  0  0
   14.8938   22.2956   -3.0469 O   0  0  0  0  0  0  0  0  0  0  0  0
   14.5980   25.5052   -4.8017 C   0  0  0  0  0  0  0  0  0  0  0  0
   15.5468   25.2908   -5.7708 C   0  0  0  0  0  0  0  0  0  0  0  0
   16.2855   24.1290   -5.8746 C   0  0  0  0  0  0  0  0  0  0  0  0
   16.0884   23.1185   -4.9822 C   0  0  0  0  0  0  0  0  0  0  0  0
   15.1525   23.2725   -3.9882 C   0  0  0  0  0  0  0  0  0  0  0  0
   14.4340   24.4367   -3.9100 C   0  0  0  0  0  0  0  0  0  0  0  0
   12.1753   28.3084   -3.7074 C   0  0  0  0  0  0  0  0  0  0  0  0
   12.9224   27.0092   -3.6483 C   0  0  0  0  0  0  0  0  0  0  0  0
   12.6945   26.2986   -2.6625 O   0  0  0  0  0  0  0  0  0  0  0  0
   13.8054   26.6661   -4.6601 N   0  0  0  0  0  0  0  0  0  0  0  0
   13.9216   27.3679   -5.4747 H   0  0  0  0  0  0  0  0  0  0  0  0
   11.8467   20.6225    0.1609 O   0  0  0  0  0  0  0  0  0  0  0  0
   10.4786   20.8129    0.1453 C   0  0  0  0  0  0  0  0  0  0  0  0
    9.6932   20.5857   -0.9766 C   0  0  0  0  0  0  0  0  0  0  0  0
    8.3359   20.7894   -0.9419 C   0  0  0  0  0  0  0  0  0  0  0  0
    7.7084   21.2320    0.2267 C   0  0  0  0  0  0  0  0  0  0  0  0
    8.4575   21.4626    1.3421 C   0  0  0  0  0  0  0  0  0  0  0  0
    9.8481   21.2456    1.2792 C   0  0  0  0  0  0  0  0  0  0  0  0
    7.8631   21.9232    2.5877 C   0  0  0  0  0  0  0  0  0  0  0  0
    6.7777   22.5727    2.6085 N   0  0  0  0  0  0  0  0  0  0  0  0
    8.5133   21.6389    3.8139 N   0  0  0  0  0  0  0  0  0  0  0  0
    6.2512   22.8159    1.7707 H   0  0  0  0  0  0  0  0  0  0  0  0
    8.7770   22.4253    4.4297 H   0  0  0  0  0  0  0  0  0  0  0  0
    8.7141   20.6597    4.0756 H   0  0  0  0  0  0  0  0  0  0  0  0
 17 18  1  0  0  0
 18 19  2  0  0  0
 18 20  1  0  0  0
 20 11  1  0  0  0
 11 12  2  0  0  0
 12 13  1  0  0  0
 13 14  2  0  0  0
 14 15  1  0  0  0
 15 10  1  0  0  0
 10  1  1  0  0  0
  1  2  2  0  0  0
  2  3  1  0  0  0
  3 22  1  0  0  0
 22 23  1  0  0  0
 23 24  2  0  0  0
 24 25  1  0  0  0
 25 26  2  0  0  0
 26 27  1  0  0  0
 27 29  1  0  0  0
 29 30  2  0  0  0
 29 31  1  0  0  0
 27 28  2  0  0  0
  3  4  2  0  0  0
  4  5  1  0  0  0
  4  6  1  0  0  0
  6  7  1  0  0  0
  6  8  2  0  0  0
  8  9  1  0  0  0
 15 16  2  0  0  0
 16 11  1  0  0  0
  8  1  1  0  0  0
 28 23  1  0  0  0
 20 21  1  0  0  0
 30 32  1  0  0  0
 31 33  1  0  0  0
 31 34  1  0  0  0
M  END
> <minimizedAffinity>
-2.90424

> <CNNscore>
0.3254522383

> <CNNaffinity>
6.5647497177

> <CNN_VS>
2.1365125179

> <CNNaffinity_variance>
0.6772339940

$$$$
[H]N=C(c1c([H])c([H])c([H])c(Oc2nc(Oc3c([H])c([H])c([H])c(N([H])C(=O)C([H])([H])[H])c3[H])c(F)c(C([H])([H])[H])c2F)c1[H])N([H])[H]


 34 36  0  0  0  0  0  0  0  0999 V2000
   14.9997   23.1127   -2.8241 C   0  0  0  0  0  0  0  0  0  0  0  0
   14.0441   22.2352   -2.4330 N   0  0  0  0  0  0  0  0  0  0  0  0
   13.5619   22.1426   -1.1914 C   0  0  0  0  0  0  0  0  0  0  0  0
   14.0612   22.9935   -0.2270 C   0  0  0  0  0  0  0  0  0  0  0  0
   13.5815   22.9152    1.0481 F   0  0  0  0  0  0  0  0  0  0  0  0
   15.0337   23.9137   -0.5441 C   0  0  0  0  0  0  0  0  0  0  0  0
   15.5861   24.8395    0.4759 C   0  0  0  0  0  0  0  0  0  0  0  0
   15.4838   23.9524   -1.8448 C   0  0  0  0  0  0  0  0  0  0  0  0
   16.4499   24.8827   -2.1089 F   0  0  0  0  0  0  0  0  0  0  0  0
   15.4434   23.1491   -4.1110 O   0  0  0  0  0  0  0  0  0  0  0  0
   14.4979   26.4510   -5.4040 C   0  0  0  0  0  0  0  0  0  0  0  0
   15.1238   26.3742   -6.6238 C   0  0  0  0  0  0  0  0  0  0  0  0
   15.8486   25.2768   -7.0440 C   0  0  0  0  0  0  0  0  0  0  0  0
   15.9706   24.1924   -6.2284 C   0  0  0  0  0  0  0  0  0  0  0  0
   15.3671   24.2080   -4.9943 C   0  0  0  0  0  0  0  0  0  0  0  0
   14.6538   25.3111   -4.6041 C   0  0  0  0  0  0  0  0  0  0  0  0
   12.1043   28.8673   -3.5718 C   0  0  0  0  0  0  0  0  0  0  0  0
   12.8094   27.5847   -3.8995 C   0  0  0  0  0  0  0  0  0  0  0  0
   12.5105   26.6095   -3.2009 O   0  0  0  0  0  0  0  0  0  0  0  0
   13.7330   27.5410   -4.9321 N   0  0  0  0  0  0  0  0  0  0  0  0
   13.9113   28.4587   -5.4759 H   0  0  0  0  0  0  0  0  0  0  0  0
   12.5763   21.2028   -0.8915 O   0  0  0  0  0  0  0  0  0  0  0  0
   11.2961   21.5666   -0.5215 C   0  0  0  0  0  0  0  0  0  0  0  0
   11.0088   22.7361    0.1693 C   0  0  0  0  0  0  0  0  0  0  0  0
    9.7185   23.0539    0.5145 C   0  0  0  0  0  0  0  0  0  0  0  0
    8.6585   22.2060    0.1788 C   0  0  0  0  0  0  0  0  0  0  0  0
    8.9141   21.0515   -0.4993 C   0  0  0  0  0  0  0  0  0  0  0  0
   10.2471   20.7494   -0.8414 C   0  0  0  0  0  0  0  0  0  0  0  0
    7.8543   20.1291   -0.8773 C   0  0  0  0  0  0  0  0  0  0  0  0
    7.2115   19.4626   -0.0154 N   0  0  0  0  0  0  0  0  0  0  0  0
    7.5288   19.9694   -2.2469 N   0  0  0  0  0  0  0  0  0  0  0  0
    7.3861   19.5221    0.9867 H   0  0  0  0  0  0  0  0  0  0  0  0
    7.5812   19.0252   -2.6626 H   0  0  0  0  0  0  0  0  0  0  0  0
    7.2459   20.7895   -2.8081 H   0  0  0  0  0  0  0  0  0  0  0  0
 17 18  1  0  0  0
 18 19  2  0  0  0
 18 20  1  0  0  0
 20 11  1  0  0  0
 11 12  2  0  0  0
 12 13  1  0  0  0
 13 14  2  0  0  0
 14 15  1  0  0  0
 15 10  1  0  0  0
 10  1  1  0  0  0
  1  2  2  0  0  0
  2  3  1  0  0  0
  3 22  1  0  0  0
 22 23  1  0  0  0
 23 24  2  0  0  0
 24 25  1  0  0  0
 25 26  2  0  0  0
 26 27  1  0  0  0
 27 29  1  0  0  0
 29 30  2  0  0  0
 29 31  1  0  0  0
 27 28  2  0  0  0
  3  4  2  0  0  0
  4  5  1  0  0  0
  4  6  1  0  0  0
  6  7  1  0  0  0
  6  8  2  0  0  0
  8  9  1  0  0  0
 15 16  2  0  0  0
 16 11  1  0  0  0
  8  1  1  0  0  0
 28 23  1  0  0  0
 20 21  1  0  0  0
 30 32  1  0  0  0
 31 33  1  0  0  0
 31 34  1  0  0  0
M  END
> <minimizedAffinity>
-2.80338

> <CNNscore>
0.3021231592

> <CNNaffinity>
6.7423310280

> <CNN_VS>
2.0370142460

> <CNNaffinity_variance>
0.3301772177

$$$$
[H]N=C(c1c([H])c([H])c([H])c(Oc2nc(Oc3c([H])c([H])c([H])c(N([H])C(=O)C([H])([H])[H])c3[H])c(F)c(C([H])([H])[H])c2F)c1[H])N([H])[H]


 34 36  0  0  0  0  0  0  0  0999 V2000
   12.5212   23.3240   -0.1402 C   0  0  0  0  0  0  0  0  0  0  0  0
   12.8080   22.4968    0.8940 N   0  0  0  0  0  0  0  0  0  0  0  0
   12.2329   21.3091    1.0972 C   0  0  0  0  0  0  0  0  0  0  0  0
   11.2774   20.8792    0.1997 C   0  0  0  0  0  0  0  0  0  0  0  0
   10.6777   19.6681    0.3892 F   0  0  0  0  0  0  0  0  0  0  0  0
   10.9296   21.6613   -0.8775 C   0  0  0  0  0  0  0  0  0  0  0  0
    9.9048   21.2203   -1.8563 C   0  0  0  0  0  0  0  0  0  0  0  0
   11.5642   22.8745   -1.0238 C   0  0  0  0  0  0  0  0  0  0  0  0
   11.1836   23.6141   -2.1085 F   0  0  0  0  0  0  0  0  0  0  0  0
   13.1500   24.5234   -0.2828 O   0  0  0  0  0  0  0  0  0  0  0  0
   15.4443   25.1949   -3.0674 C   0  0  0  0  0  0  0  0  0  0  0  0
   16.6128   25.2672   -2.3499 C   0  0  0  0  0  0  0  0  0  0  0  0
   16.6813   25.1037   -0.9807 C   0  0  0  0  0  0  0  0  0  0  0  0
   15.5456   24.8559   -0.2701 C   0  0  0  0  0  0  0  0  0  0  0  0
   14.3440   24.7721   -0.9308 C   0  0  0  0  0  0  0  0  0  0  0  0
   14.3066   24.9385   -2.2905 C   0  0  0  0  0  0  0  0  0  0  0  0
   15.0549   26.4062   -6.7151 C   0  0  0  0  0  0  0  0  0  0  0  0
   15.1723   26.4919   -5.2223 C   0  0  0  0  0  0  0  0  0  0  0  0
   15.1271   27.6297   -4.7407 O   0  0  0  0  0  0  0  0  0  0  0  0
   15.3210   25.3390   -4.4673 N   0  0  0  0  0  0  0  0  0  0  0  0
   15.3451   24.3982   -5.0001 H   0  0  0  0  0  0  0  0  0  0  0  0
   12.6001   20.5322    2.1955 O   0  0  0  0  0  0  0  0  0  0  0  0
   11.7371   20.2801    3.2443 C   0  0  0  0  0  0  0  0  0  0  0  0
   11.7624   19.1046    3.9825 C   0  0  0  0  0  0  0  0  0  0  0  0
   10.8831   18.9010    5.0171 C   0  0  0  0  0  0  0  0  0  0  0  0
    9.9373   19.8743    5.3544 C   0  0  0  0  0  0  0  0  0  0  0  0
    9.8919   21.0373    4.6447 C   0  0  0  0  0  0  0  0  0  0  0  0
   10.8057   21.2206    3.5881 C   0  0  0  0  0  0  0  0  0  0  0  0
    8.9318   22.0877    4.9476 C   0  0  0  0  0  0  0  0  0  0  0  0
    7.7523   21.8252    5.3222 N   0  0  0  0  0  0  0  0  0  0  0  0
    9.3232   23.4434    4.8216 N   0  0  0  0  0  0  0  0  0  0  0  0
    7.3960   20.8774    5.4367 H   0  0  0  0  0  0  0  0  0  0  0  0
    8.7846   24.0589    4.1905 H   0  0  0  0  0  0  0  0  0  0  0  0
   10.1336   23.7974    5.3561 H   0  0  0  0  0  0  0  0  0  0  0  0
 17 18  1  0  0  0
 18 19  2  0  0  0
 18 20  1  0  0  0
 20 11  1  0  0  0
 11 12  2  0  0  0
 12 13  1  0  0  0
 13 14  2  0  0  0
 14 15  1  0  0  0
 15 10  1  0  0  0
 10  1  1  0  0  0
  1  2  2  0  0  0
  2  3  1  0  0  0
  3 22  1  0  0  0
 22 23  1  0  0  0
 23 24  2  0  0  0
 24 25  1  0  0  0
 25 26  2  0  0  0
 26 27  1  0  0  0
 27 29  1  0  0  0
 29 30  2  0  0  0
 29 31  1  0  0  0
 27 28  2  0  0  0
  3  4  2  0  0  0
  4  5  1  0  0  0
  4  6  1  0  0  0
  6  7  1  0  0  0
  6  8  2  0  0  0
  8  9  1  0  0  0
 15 16  2  0  0  0
 16 11  1  0  0  0
  8  1  1  0  0  0
 28 23  1  0  0  0
 20 21  1  0  0  0
 30 32  1  0  0  0
 31 33  1  0  0  0
 31 34  1  0  0  0
M  END
> <minimizedAffinity>
-8.43325

> <CNNscore>
0.2472874224

> <CNNaffinity>
6.8508443832

> <CNN_VS>
1.6941276789

> <CNNaffinity_variance>
0.3883711100

$$$$
[H]N=C(c1c([H])c([H])c([H])c(Oc2nc(Oc3c([H])c([H])c([H])c(N([H])C(=O)C([H])([H])[H])c3[H])c(F)c(C([H])([H])[H])c2F)c1[H])N([H])[H]


 34 36  0  0  0  0  0  0  0  0999 V2000
   13.7230   23.5574   -1.0851 C   0  0  0  0  0  0  0  0  0  0  0  0
   12.7472   22.6233   -1.1923 N   0  0  0  0  0  0  0  0  0  0  0  0
   12.7635   21.4361   -0.5815 C   0  0  0  0  0  0  0  0  0  0  0  0
   13.8427   21.1233    0.2189 C   0  0  0  0  0  0  0  0  0  0  0  0
   13.8785   19.9151    0.8523 F   0  0  0  0  0  0  0  0  0  0  0  0
   14.8752   22.0184    0.3796 C   0  0  0  0  0  0  0  0  0  0  0  0
   16.0464   21.7046    1.2354 C   0  0  0  0  0  0  0  0  0  0  0  0
   14.7909   23.2237   -0.2810 C   0  0  0  0  0  0  0  0  0  0  0  0
   15.8410   24.0776   -0.0897 F   0  0  0  0  0  0  0  0  0  0  0  0
   13.6375   24.7486   -1.7394 O   0  0  0  0  0  0  0  0  0  0  0  0
   15.5415   26.3549   -4.4344 C   0  0  0  0  0  0  0  0  0  0  0  0
   16.6030   26.8042   -3.6882 C   0  0  0  0  0  0  0  0  0  0  0  0
   16.7223   26.6012   -2.3278 C   0  0  0  0  0  0  0  0  0  0  0  0
   15.7510   25.9216   -1.6562 C   0  0  0  0  0  0  0  0  0  0  0  0
   14.6626   25.4466   -2.3471 C   0  0  0  0  0  0  0  0  0  0  0  0
   14.5713   25.6630   -3.6971 C   0  0  0  0  0  0  0  0  0  0  0  0
   15.2780   25.9933   -8.2717 C   0  0  0  0  0  0  0  0  0  0  0  0
   15.4935   25.5865   -6.8442 C   0  0  0  0  0  0  0  0  0  0  0  0
   15.7712   24.3963   -6.6570 O   0  0  0  0  0  0  0  0  0  0  0  0
   15.3782   26.5218   -5.8277 N   0  0  0  0  0  0  0  0  0  0  0  0
   15.1326   27.5355   -6.1134 H   0  0  0  0  0  0  0  0  0  0  0  0
   11.7066   20.5436   -0.7580 O   0  0  0  0  0  0  0  0  0  0  0  0
   10.4437   20.7841   -0.2526 C   0  0  0  0  0  0  0  0  0  0  0  0
    9.2788   20.4895   -0.9481 C   0  0  0  0  0  0  0  0  0  0  0  0
    8.0457   20.7473   -0.4024 C   0  0  0  0  0  0  0  0  0  0  0  0
    7.9311   21.3145    0.8706 C   0  0  0  0  0  0  0  0  0  0  0  0
    9.0599   21.6131    1.5741 C   0  0  0  0  0  0  0  0  0  0  0  0
   10.3126   21.3383    0.9907 C   0  0  0  0  0  0  0  0  0  0  0  0
    9.0061   22.2037    2.9028 C   0  0  0  0  0  0  0  0  0  0  0  0
    8.1980   21.7903    3.7840 N   0  0  0  0  0  0  0  0  0  0  0  0
    9.8807   23.2709    3.2240 N   0  0  0  0  0  0  0  0  0  0  0  0
    7.5389   21.0287    3.6302 H   0  0  0  0  0  0  0  0  0  0  0  0
    9.4752   24.1664    3.5415 H   0  0  0  0  0  0  0  0  0  0  0  0
   10.9024   23.1432    3.1381 H   0  0  0  0  0  0  0  0  0  0  0  0
 17 18  1  0  0  0
 18 19  2  0  0  0
 18 20  1  0  0  0
 20 11  1  0  0  0
 11 12  2  0  0  0
 12 13  1  0  0  0
 13 14  2  0  0  0
 14 15  1  0  0  0
 15 10  1  0  0  0
 10  1  1  0  0  0
  1  2  2  0  0  0
  2  3  1  0  0  0
  3 22  1  0  0  0
 22 23  1  0  0  0
 23 24  2  0  0  0
 24 25  1  0  0  0
 25 26  2  0  0  0
 26 27  1  0  0  0
 27 29  1  0  0  0
 29 30  2  0  0  0
 29 31  1  0  0  0
 27 28  2  0  0  0
  3  4  2  0  0  0
  4  5  1  0  0  0
  4  6  1  0  0  0
  6  7  1  0  0  0
  6  8  2  0  0  0
  8  9  1  0  0  0
 15 16  2  0  0  0
 16 11  1  0  0  0
  8  1  1  0  0  0
 28 23  1  0  0  0
 20 21  1  0  0  0
 30 32  1  0  0  0
 31 33  1  0  0  0
 31 34  1  0  0  0
M  END
> <minimizedAffinity>
-6.04964

> <CNNscore>
0.2168812156

> <CNNaffinity>
6.8391675949

> <CNN_VS>
1.4832869768

> <CNNaffinity_variance>
0.3730897307

$$$$
[H]N=C(c1c([H])c([H])c([H])c(Oc2nc(Oc3c([H])c([H])c([H])c(N([H])C(=O)C([H])([H])[H])c3[H])c(F)c(C([H])([H])[H])c2F)c1[H])N([H])[H]


 34 36  0  0  0  0  0  0  0  0999 V2000
   13.8331   23.0986   -0.3748 C   0  0  0  0  0  0  0  0  0  0  0  0
   13.0272   23.1858    0.7110 N   0  0  0  0  0  0  0  0  0  0  0  0
   12.2076   22.2173    1.1269 C   0  0  0  0  0  0  0  0  0  0  0  0
   12.1671   21.0382    0.4119 C   0  0  0  0  0  0  0  0  0  0  0  0
   11.3363   20.0357    0.8206 F   0  0  0  0  0  0  0  0  0  0  0  0
   12.9553   20.8708   -0.7034 C   0  0  0  0  0  0  0  0  0  0  0  0
   12.9291   19.6117   -1.4886 C   0  0  0  0  0  0  0  0  0  0  0  0
   13.7762   21.9125   -1.0737 C   0  0  0  0  0  0  0  0  0  0  0  0
   14.5385   21.6974   -2.1878 F   0  0  0  0  0  0  0  0  0  0  0  0
   14.6441   24.1300   -0.7392 O   0  0  0  0  0  0  0  0  0  0  0  0
   15.6522   26.3326   -3.4963 C   0  0  0  0  0  0  0  0  0  0  0  0
   14.4048   26.5989   -4.0049 C   0  0  0  0  0  0  0  0  0  0  0  0
   13.2376   26.0830   -3.4781 C   0  0  0  0  0  0  0  0  0  0  0  0
   13.2892   25.2600   -2.3936 C   0  0  0  0  0  0  0  0  0  0  0  0
   14.5083   24.9551   -1.8384 C   0  0  0  0  0  0  0  0  0  0  0  0
   15.6502   25.4820   -2.3826 C   0  0  0  0  0  0  0  0  0  0  0  0
   18.9060   28.2881   -4.2128 C   0  0  0  0  0  0  0  0  0  0  0  0
   17.6254   27.9153   -3.5266 C   0  0  0  0  0  0  0  0  0  0  0  0
   17.3087   28.6131   -2.5564 O   0  0  0  0  0  0  0  0  0  0  0  0
   16.8739   26.8452   -3.9864 N   0  0  0  0  0  0  0  0  0  0  0  0
   17.2510   26.3088   -4.8465 H   0  0  0  0  0  0  0  0  0  0  0  0
   11.4172   22.4077    2.2599 O   0  0  0  0  0  0  0  0  0  0  0  0
   10.2519   23.1490    2.2322 C   0  0  0  0  0  0  0  0  0  0  0  0
    9.3406   23.0923    1.1864 C   0  0  0  0  0  0  0  0  0  0  0  0
    8.1953   23.8491    1.2054 C   0  0  0  0  0  0  0  0  0  0  0  0
    7.9167   24.6985    2.2807 C   0  0  0  0  0  0  0  0  0  0  0  0
    8.7957   24.7724    3.3201 C   0  0  0  0  0  0  0  0  0  0  0  0
    9.9632   23.9851    3.2753 C   0  0  0  0  0  0  0  0  0  0  0  0
    8.5618   25.6366    4.4670 C   0  0  0  0  0  0  0  0  0  0  0  0
    7.7878   25.2994    5.4091 N   0  0  0  0  0  0  0  0  0  0  0  0
    9.2166   26.8910    4.5360 N   0  0  0  0  0  0  0  0  0  0  0  0
    7.2816   24.4153    5.4325 H   0  0  0  0  0  0  0  0  0  0  0  0
    8.6433   27.7459    4.6228 H   0  0  0  0  0  0  0  0  0  0  0  0
   10.2482   26.9363    4.4991 H   0  0  0  0  0  0  0  0  0  0  0  0
 17 18  1  0  0  0
 18 19  2  0  0  0
 18 20  1  0  0  0
 20 11  1  0  0  0
 11 12  2  0  0  0
 12 13  1  0  0  0
 13 14  2  0  0  0
 14 15  1  0  0  0
 15 10  1  0  0  0
 10  1  1  0  0  0
  1  2  2  0  0  0
  2  3  1  0  0  0
  3 22  1  0  0  0
 22 23  1  0  0  0
 23 24  2  0  0  0
 24 25  1  0  0  0
 25 26  2  0  0  0
 26 27  1  0  0  0
 27 29  1  0  0  0
 29 30  2  0  0  0
 29 31  1  0  0  0
 27 28  2  0  0  0
  3  4  2  0  0  0
  4  5  1  0  0  0
  4  6  1  0  0  0
  6  7  1  0  0  0
  6  8  2  0  0  0
  8  9  1  0  0  0
 15 16  2  0  0  0
 16 11  1  0  0  0
  8  1  1  0  0  0
 28 23  1  0  0  0
 20 21  1  0  0  0
 30 32  1  0  0  0
 31 33  1  0  0  0
 31 34  1  0  0  0
M  END
> <minimizedAffinity>
-7.67448

> <CNNscore>
0.2049556822

> <CNNaffinity>
6.7304544449

> <CNN_VS>
1.3794448376

> <CNNaffinity_variance>
0.4597120285

$$$$
[H]N=C(c1c([H])c([H])c([H])c(Oc2nc(Oc3c([H])c([H])c([H])c(N([H])C(=O)C([H])([H])[H])c3[H])c(F)c(C([H])([H])[H])c2F)c1[H])N([H])[H]


 34 36  0  0  0  0  0  0  0  0999 V2000
   12.4780   23.1176    0.3322 C   0  0  0  0  0  0  0  0  0  0  0  0
   13.2563   23.0405   -0.7743 N   0  0  0  0  0  0  0  0  0  0  0  0
   14.0791   22.0268   -1.0538 C   0  0  0  0  0  0  0  0  0  0  0  0
   14.1533   20.9757   -0.1632 C   0  0  0  0  0  0  0  0  0  0  0  0
   14.9880   19.9297   -0.4304 F   0  0  0  0  0  0  0  0  0  0  0  0
   13.3947   20.9785    0.9845 C   0  0  0  0  0  0  0  0  0  0  0  0
   13.4575   19.8594    1.9573 C   0  0  0  0  0  0  0  0  0  0  0  0
   12.5684   22.0572    1.2075 C   0  0  0  0  0  0  0  0  0  0  0  0
   11.8363   22.0130    2.3609 F   0  0  0  0  0  0  0  0  0  0  0  0
   11.6617   24.1854    0.5507 O   0  0  0  0  0  0  0  0  0  0  0  0
    8.1078   23.3244    0.8627 C   0  0  0  0  0  0  0  0  0  0  0  0
    7.8277   24.0427    1.9990 C   0  0  0  0  0  0  0  0  0  0  0  0
    8.7620   24.8038    2.6728 C   0  0  0  0  0  0  0  0  0  0  0  0
   10.0428   24.8680    2.2129 C   0  0  0  0  0  0  0  0  0  0  0  0
   10.3861   24.1709    1.0799 C   0  0  0  0  0  0  0  0  0  0  0  0
    9.4375   23.4239    0.4318 C   0  0  0  0  0  0  0  0  0  0  0  0
    5.8710   20.5670   -0.6598 C   0  0  0  0  0  0  0  0  0  0  0  0
    6.8943   21.1938    0.2399 C   0  0  0  0  0  0  0  0  0  0  0  0
    7.4324   20.4373    1.0565 O   0  0  0  0  0  0  0  0  0  0  0  0
    7.1879   22.5438    0.1278 N   0  0  0  0  0  0  0  0  0  0  0  0
    6.6536   23.1056   -0.6263 H   0  0  0  0  0  0  0  0  0  0  0  0
   14.8392   22.0440   -2.2228 O   0  0  0  0  0  0  0  0  0  0  0  0
   14.8950   23.1474   -3.0520 C   0  0  0  0  0  0  0  0  0  0  0  0
   15.7746   23.2498   -4.1213 C   0  0  0  0  0  0  0  0  0  0  0  0
   15.7916   24.3681   -4.9175 C   0  0  0  0  0  0  0  0  0  0  0  0
   14.9219   25.4351   -4.6713 C   0  0  0  0  0  0  0  0  0  0  0  0
   14.0486   25.3592   -3.6273 C   0  0  0  0  0  0  0  0  0  0  0  0
   14.0519   24.2003   -2.8261 C   0  0  0  0  0  0  0  0  0  0  0  0
   13.1190   26.4356   -3.3206 C   0  0  0  0  0  0  0  0  0  0  0  0
   12.5490   26.5239   -2.1947 N   0  0  0  0  0  0  0  0  0  0  0  0
   12.8413   27.4148   -4.3061 N   0  0  0  0  0  0  0  0  0  0  0  0
   12.6965   25.8602   -1.4357 H   0  0  0  0  0  0  0  0  0  0  0  0
   11.8619   27.5568   -4.6023 H   0  0  0  0  0  0  0  0  0  0  0  0
   13.6123   27.9695   -4.7128 H   0  0  0  0  0  0  0  0  0  0  0  0
 17 18  1  0  0  0
 18 19  2  0  0  0
 18 20  1  0  0  0
 20 11  1  0  0  0
 11 12  2  0  0  0
 12 13  1  0  0  0
 13 14  2  0  0  0
 14 15  1  0  0  0
 15 10  1  0  0  0
 10  1  1  0  0  0
  1  2  2  0  0  0
  2  3  1  0  0  0
  3 22  1  0  0  0
 22 23  1  0  0  0
 23 24  2  0  0  0
 24 25  1  0  0  0
 25 26  2  0  0  0
 26 27  1  0  0  0
 27 29  1  0  0  0
 29 30  2  0  0  0
 29 31  1  0  0  0
 27 28  2  0  0  0
  3  4  2  0  0  0
  4  5  1  0  0  0
  4  6  1  0  0  0
  6  7  1  0  0  0
  6  8  2  0  0  0
  8  9  1  0  0  0
 15 16  2  0  0  0
 16 11  1  0  0  0
  8  1  1  0  0  0
 28 23  1  0  0  0
 20 21  1  0  0  0
 30 32  1  0  0  0
 31 33  1  0  0  0
 31 34  1  0  0  0
M  END
> <minimizedAffinity>
-6.55828

> <CNNscore>
0.1994438171

> <CNNaffinity>
6.7252359390

> <CNN_VS>
1.3413066864

> <CNNaffinity_variance>
0.3227979541

$$$$
[H]N=C(c1c([H])c([H])c([H])c(Oc2nc(Oc3c([H])c([H])c([H])c(N([H])C(=O)C([H])([H])[H])c3[H])c(F)c(C([H])([H])[H])c2F)c1[H])N([H])[H]


 34 36  0  0  0  0  0  0  0  0999 V2000
   10.8239   22.2507    1.2103 C   0  0  0  0  0  0  0  0  0  0  0  0
   12.1094   22.1686    0.7900 N   0  0  0  0  0  0  0  0  0  0  0  0
   12.9343   23.2110    0.6643 C   0  0  0  0  0  0  0  0  0  0  0  0
   12.4594   24.4670    0.9810 C   0  0  0  0  0  0  0  0  0  0  0  0
   13.2866   25.5456    0.8596 F   0  0  0  0  0  0  0  0  0  0  0  0
   11.1647   24.6346    1.4154 C   0  0  0  0  0  0  0  0  0  0  0  0
   10.6315   25.9756    1.7619 C   0  0  0  0  0  0  0  0  0  0  0  0
   10.3710   23.5144    1.5208 C   0  0  0  0  0  0  0  0  0  0  0  0
    9.0938   23.7334    1.9558 F   0  0  0  0  0  0  0  0  0  0  0  0
   10.0407   21.1415    1.3137 O   0  0  0  0  0  0  0  0  0  0  0  0
    6.6273   20.9287   -0.0176 C   0  0  0  0  0  0  0  0  0  0  0  0
    5.9456   20.9730    1.1736 C   0  0  0  0  0  0  0  0  0  0  0  0
    6.5624   21.0706    2.4050 C   0  0  0  0  0  0  0  0  0  0  0  0
    7.9216   21.1279    2.4795 C   0  0  0  0  0  0  0  0  0  0  0  0
    8.6607   21.0876    1.3221 C   0  0  0  0  0  0  0  0  0  0  0  0
    8.0210   20.9907    0.1141 C   0  0  0  0  0  0  0  0  0  0  0  0
    5.4358   19.9614   -3.5629 C   0  0  0  0  0  0  0  0  0  0  0  0
    6.1437   19.8347   -2.2467 C   0  0  0  0  0  0  0  0  0  0  0  0
    6.7950   18.7970   -2.0806 O   0  0  0  0  0  0  0  0  0  0  0  0
    6.0462   20.8447   -1.3024 N   0  0  0  0  0  0  0  0  0  0  0  0
    5.4484   21.7081   -1.5611 H   0  0  0  0  0  0  0  0  0  0  0  0
   14.2428   23.0189    0.2222 O   0  0  0  0  0  0  0  0  0  0  0  0
   14.6146   23.2138   -1.0938 C   0  0  0  0  0  0  0  0  0  0  0  0
   14.5735   22.2092   -2.0512 C   0  0  0  0  0  0  0  0  0  0  0  0
   14.9535   22.4529   -3.3478 C   0  0  0  0  0  0  0  0  0  0  0  0
   15.3928   23.7217   -3.7382 C   0  0  0  0  0  0  0  0  0  0  0  0
   15.4425   24.7253   -2.8170 C   0  0  0  0  0  0  0  0  0  0  0  0
   15.0469   24.4482   -1.4935 C   0  0  0  0  0  0  0  0  0  0  0  0
   15.8898   26.0662   -3.1618 C   0  0  0  0  0  0  0  0  0  0  0  0
   15.1791   26.8479   -3.8575 N   0  0  0  0  0  0  0  0  0  0  0  0
   17.1551   26.5140   -2.7081 N   0  0  0  0  0  0  0  0  0  0  0  0
   14.2597   26.6000   -4.2201 H   0  0  0  0  0  0  0  0  0  0  0  0
   17.8495   26.8283   -3.4054 H   0  0  0  0  0  0  0  0  0  0  0  0
   17.3667   26.5211   -1.6968 H   0  0  0  0  0  0  0  0  0  0  0  0
 17 18  1  0  0  0
 18 19  2  0  0  0
 18 20  1  0  0  0
 20 11  1  0  0  0
 11 12  2  0  0  0
 12 13  1  0  0  0
 13 14  2  0  0  0
 14 15  1  0  0  0
 15 10  1  0  0  0
 10  1  1  0  0  0
  1  2  2  0  0  0
  2  3  1  0  0  0
  3 22  1  0  0  0
 22 23  1  0  0  0
 23 24  2  0  0  0
 24 25  1  0  0  0
 25 26  2  0  0  0
 26 27  1  0  0  0
 27 29  1  0  0  0
 29 30  2  0  0  0
 29 31  1  0  0  0
 27 28  2  0  0  0
  3  4  2  0  0  0
  4  5  1  0  0  0
  4  6  1  0  0  0
  6  7  1  0  0  0
  6  8  2  0  0  0
  8  9  1  0  0  0
 15 16  2  0  0  0
 16 11  1  0  0  0
  8  1  1  0  0  0
 28 23  1  0  0  0
 20 21  1  0  0  0
 30 32  1  0  0  0
 31 33  1  0  0  0
 31 34  1  0  0  0
M  END
> <minimizedAffinity>
-5.37538

> <CNNscore>
0.1908191442

> <CNNaffinity>
6.6508512497

> <CNN_VS>
1.2691097260

> <CNNaffinity_variance>
0.8767086267

$$$$
[H]N=C(c1c([H])c([H])c([H])c(Oc2nc(Oc3c([H])c([H])c([H])c(N([H])C(=O)C([H])([H])[H])c3[H])c(F)c(C([H])([H])[H])c2F)c1[H])N([H])[H]


 34 36  0  0  0  0  0  0  0  0999 V2000
   12.7088   22.0089    0.8383 C   0  0  0  0  0  0  0  0  0  0  0  0
   13.7311   22.7677    0.3746 N   0  0  0  0  0  0  0  0  0  0  0  0
   13.5892   23.8127   -0.4444 C   0  0  0  0  0  0  0  0  0  0  0  0
   12.3184   24.1572   -0.8564 C   0  0  0  0  0  0  0  0  0  0  0  0
   12.1518   25.2221   -1.6933 F   0  0  0  0  0  0  0  0  0  0  0  0
   11.2270   23.4362   -0.4298 C   0  0  0  0  0  0  0  0  0  0  0  0
    9.8505   23.7877   -0.8594 C   0  0  0  0  0  0  0  0  0  0  0  0
   11.4489   22.3709    0.4139 C   0  0  0  0  0  0  0  0  0  0  0  0
   10.3333   21.6868    0.8087 F   0  0  0  0  0  0  0  0  0  0  0  0
   12.9306   20.9557    1.6726 O   0  0  0  0  0  0  0  0  0  0  0  0
   10.6590   21.3186    4.5321 C   0  0  0  0  0  0  0  0  0  0  0  0
   10.6568   20.0113    4.9521 C   0  0  0  0  0  0  0  0  0  0  0  0
   11.3744   19.0075    4.3327 C   0  0  0  0  0  0  0  0  0  0  0  0
   12.1376   19.2943    3.2412 C   0  0  0  0  0  0  0  0  0  0  0  0
   12.1813   20.5848    2.7718 C   0  0  0  0  0  0  0  0  0  0  0  0
   11.4586   21.5605    3.4070 C   0  0  0  0  0  0  0  0  0  0  0  0
    8.5504   24.4384    5.3956 C   0  0  0  0  0  0  0  0  0  0  0  0
    9.2152   23.3959    4.5465 C   0  0  0  0  0  0  0  0  0  0  0  0
    9.0536   23.5087    3.3260 O   0  0  0  0  0  0  0  0  0  0  0  0
    9.9569   22.3848    5.1371 N   0  0  0  0  0  0  0  0  0  0  0  0
   10.0296   22.3899    6.2162 H   0  0  0  0  0  0  0  0  0  0  0  0
   14.7089   24.5297   -0.8647 O   0  0  0  0  0  0  0  0  0  0  0  0
   15.0420   24.6654   -2.1985 C   0  0  0  0  0  0  0  0  0  0  0  0
   15.0331   23.6053   -3.0949 C   0  0  0  0  0  0  0  0  0  0  0  0
   15.3722   23.7912   -4.4122 C   0  0  0  0  0  0  0  0  0  0  0  0
   15.7361   25.0555   -4.8859 C   0  0  0  0  0  0  0  0  0  0  0  0
   15.7528   26.1129   -4.0257 C   0  0  0  0  0  0  0  0  0  0  0  0
   15.4004   25.8946   -2.6792 C   0  0  0  0  0  0  0  0  0  0  0  0
   16.1219   27.4522   -4.4582 C   0  0  0  0  0  0  0  0  0  0  0  0
   15.4956   28.0518   -5.3794 N   0  0  0  0  0  0  0  0  0  0  0  0
   17.2115   28.1078   -3.8336 N   0  0  0  0  0  0  0  0  0  0  0  0
   14.7027   27.6480   -5.8759 H   0  0  0  0  0  0  0  0  0  0  0  0
   18.0001   28.4274   -4.4193 H   0  0  0  0  0  0  0  0  0  0  0  0
   17.2054   28.2570   -2.8112 H   0  0  0  0  0  0  0  0  0  0  0  0
 17 18  1  0  0  0
 18 19  2  0  0  0
 18 20  1  0  0  0
 20 11  1  0  0  0
 11 12  2  0  0  0
 12 13  1  0  0  0
 13 14  2  0  0  0
 14 15  1  0  0  0
 15 10  1  0  0  0
 10  1  1  0  0  0
  1  2  2  0  0  0
  2  3  1  0  0  0
  3 22  1  0  0  0
 22 23  1  0  0  0
 23 24  2  0  0  0
 24 25  1  0  0  0
 25 26  2  0  0  0
 26 27  1  0  0  0
 27 29  1  0  0  0
 29 30  2  0  0  0
 29 31  1  0  0  0
 27 28  2  0  0  0
  3  4  2  0  0  0
  4  5  1  0  0  0
  4  6  1  0  0  0
  6  7  1  0  0  0
  6  8  2  0  0  0
  8  9  1  0  0  0
 15 16  2  0  0  0
 16 11  1  0  0  0
  8  1  1  0  0  0
 28 23  1  0  0  0
 20 21  1  0  0  0
 30 32  1  0  0  0
 31 33  1  0  0  0
 31 34  1  0  0  0
M  END
> <minimizedAffinity>
-9.11973

> <CNNscore>
0.1896850169

> <CNNaffinity>
6.9781875610

> <CNN_VS>
1.3236576319

> <CNNaffinity_variance>
0.3055970073

$$$$
[H]c1c([H])c(C(N=[N+]=[N-])(C([H])([H])[H])C([H])([H])[H])c(Cl)c([H])c1C(F)(F)F


 17 17  0  0  0  0  0  0  0  0999 V2000
   13.7784   24.8320   -2.4566 C   0  0  0  0  0  0  0  0  0  0  0  0
   13.3643   26.1382   -2.7939 C   0  0  0  0  0  0  0  0  0  0  0  0
   13.8518   26.6007   -3.9837 C   0  0  0  0  0  0  0  0  0  0  0  0
   14.6798   25.9704   -4.8398 C   0  0  0  0  0  0  0  0  0  0  0  0
   15.0924   24.6615   -4.4857 C   0  0  0  0  0  0  0  0  0  0  0  0
   14.6208   24.1176   -3.2840 C   0  0  0  0  0  0  0  0  0  0  0  0
   15.1607   22.4894   -2.8285 Cl  0  0  0  0  0  0  0  0  0  0  0  0
   15.1553   26.5213   -6.1359 C   0  0  0  0  0  0  0  0  0  0  0  0
   15.7891   25.5608   -6.9213 F   0  0  0  0  0  0  0  0  0  0  0  0
   15.9278   27.6216   -5.9650 F   0  0  0  0  0  0  0  0  0  0  0  0
   14.0684   26.9041   -6.9346 F   0  0  0  0  0  0  0  0  0  0  0  0
   12.1953   25.1557   -0.5880 C   0  0  0  0  0  0  0  0  0  0  0  0
   13.2245   24.1741   -1.2418 C   0  0  0  0  0  0  0  0  0  0  0  0
   12.4708   22.9209   -1.5166 C   0  0  0  0  0  0  0  0  0  0  0  0
   14.2515   23.9360   -0.2551 N   0  0  0  0  0  0  0  0  0  0  0  0
   14.4160   22.8231    0.1874 N   0  0  0  0  0  0  0  0  0  0  0  0
   15.0766   22.0580    0.9625 N   0  0  0  0  0  0  0  0  0  0  0  0
 12 13  1  0  0  0
 13 14  1  0  0  0
 13 15  1  0  0  0
 15 16  2  0  0  0
 16 17  2  0  0  0
 13  1  1  0  0  0
  1  2  2  0  0  0
  2  3  1  0  0  0
  3  4  2  0  0  0
  4  8  1  0  0  0
  8  9  1  0  0  0
  8 10  1  0  0  0
  8 11  1  0  0  0
  4  5  1  0  0  0
  5  6  2  0  0  0
  6  7  1  0  0  0
  6  1  1  0  0  0
M  CHG 1  16   1
M  CHG 1  17  -1
M  END
> <minimizedAffinity>
-8.58759

> <CNNscore>
0.7988410592

> <CNNaffinity>
6.4273056984

> <CNN_VS>
5.1343955994

> <CNNaffinity_variance>
0.0415715948

$$$$
[H]c1c([H])c(C(N=[N+]=[N-])(C([H])([H])[H])C([H])([H])[H])c(Cl)c([H])c1C(F)(F)F


 17 17  0  0  0  0  0  0  0  0999 V2000
   14.5789   24.8133   -1.7937 C   0  0  0  0  0  0  0  0  0  0  0  0
   15.8859   24.8881   -2.3202 C   0  0  0  0  0  0  0  0  0  0  0  0
   15.9704   25.4697   -3.5539 C   0  0  0  0  0  0  0  0  0  0  0  0
   14.9659   25.9497   -4.3130 C   0  0  0  0  0  0  0  0  0  0  0  0
   13.6577   25.8627   -3.7744 C   0  0  0  0  0  0  0  0  0  0  0  0
   13.4971   25.2889   -2.5066 C   0  0  0  0  0  0  0  0  0  0  0  0
   11.8554   25.1553   -1.8456 Cl  0  0  0  0  0  0  0  0  0  0  0  0
   15.1279   26.5960   -5.6417 C   0  0  0  0  0  0  0  0  0  0  0  0
   15.9902   27.6896   -5.5993 F   0  0  0  0  0  0  0  0  0  0  0  0
   13.9342   26.9173   -6.1970 F   0  0  0  0  0  0  0  0  0  0  0  0
   15.7743   25.7285   -6.5336 F   0  0  0  0  0  0  0  0  0  0  0  0
   15.7377   24.3870    0.3460 C   0  0  0  0  0  0  0  0  0  0  0  0
   14.3697   24.3048   -0.4105 C   0  0  0  0  0  0  0  0  0  0  0  0
   13.4116   25.1079    0.3964 C   0  0  0  0  0  0  0  0  0  0  0  0
   13.9821   22.9138   -0.4119 N   0  0  0  0  0  0  0  0  0  0  0  0
   14.1435   22.2420    0.5800 N   0  0  0  0  0  0  0  0  0  0  0  0
   14.0108   21.1098    1.1485 N   0  0  0  0  0  0  0  0  0  0  0  0
 12 13  1  0  0  0
 13 14  1  0  0  0
 13 15  1  0  0  0
 15 16  2  0  0  0
 16 17  2  0  0  0
 13  1  1  0  0  0
  1  2  2  0  0  0
  2  3  1  0  0  0
  3  4  2  0  0  0
  4  8  1  0  0  0
  8  9  1  0  0  0
  8 10  1  0  0  0
  8 11  1  0  0  0
  4  5  1  0  0  0
  5  6  2  0  0  0
  6  7  1  0  0  0
  6  1  1  0  0  0
M  CHG 1  16   1
M  CHG 1  17  -1
M  END
> <minimizedAffinity>
-8.34072

> <CNNscore>
0.7943232059

> <CNNaffinity>
6.4613494873

> <CNN_VS>
5.1324000359

> <CNNaffinity_variance>
0.0877337903

$$$$
[H]c1c([H])c(C(N=[N+]=[N-])(C([H])([H])[H])C([H])([H])[H])c(Cl)c([H])c1C(F)(F)F


 17 17  0  0  0  0  0  0  0  0999 V2000
   14.4864   24.7785   -1.8030 C   0  0  0  0  0  0  0  0  0  0  0  0
   15.8114   24.8633   -2.2809 C   0  0  0  0  0  0  0  0  0  0  0  0
   15.9430   25.4948   -3.4856 C   0  0  0  0  0  0  0  0  0  0  0  0
   14.9690   26.0151   -4.2578 C   0  0  0  0  0  0  0  0  0  0  0  0
   13.6423   25.9178   -3.7683 C   0  0  0  0  0  0  0  0  0  0  0  0
   13.4336   25.2932   -2.5320 C   0  0  0  0  0  0  0  0  0  0  0  0
   11.7691   25.1472   -1.9336 Cl  0  0  0  0  0  0  0  0  0  0  0  0
   15.1818   26.7146   -5.5519 C   0  0  0  0  0  0  0  0  0  0  0  0
   15.8516   25.9214   -6.4812 F   0  0  0  0  0  0  0  0  0  0  0  0
   15.7882   27.9149   -5.3845 F   0  0  0  0  0  0  0  0  0  0  0  0
   13.9547   26.9604   -6.1843 F   0  0  0  0  0  0  0  0  0  0  0  0
   15.5915   24.1333    0.3101 C   0  0  0  0  0  0  0  0  0  0  0  0
   14.2257   24.2149   -0.4503 C   0  0  0  0  0  0  0  0  0  0  0  0
   13.3384   25.0540    0.3997 C   0  0  0  0  0  0  0  0  0  0  0  0
   13.7163   22.8661   -0.5291 N   0  0  0  0  0  0  0  0  0  0  0  0
   14.0218   22.1597   -1.4614 N   0  0  0  0  0  0  0  0  0  0  0  0
   13.9320   21.0216   -2.0263 N   0  0  0  0  0  0  0  0  0  0  0  0
 12 13  1  0  0  0
 13 14  1  0  0  0
 13 15  1  0  0  0
 15 16  2  0  0  0
 16 17  2  0  0  0
 13  1  1  0  0  0
  1  2  2  0  0  0
  2  3  1  0  0  0
  3  4  2  0  0  0
  4  8  1  0  0  0
  8  9  1  0  0  0
  8 10  1  0  0  0
  8 11  1  0  0  0
  4  5  1  0  0  0
  5  6  2  0  0  0
  6  7  1  0  0  0
  6  1  1  0  0  0
M  CHG 1  16   1
M  CHG 1  17  -1
M  END
> <minimizedAffinity>
-8.34764

> <CNNscore>
0.7795345783

> <CNNaffinity>
6.2832083702

> <CNN_VS>
4.8979783058

> <CNNaffinity_variance>
0.2153683603

$$$$
[H]c1c([H])c(C(N=[N+]=[N-])(C([H])([H])[H])C([H])([H])[H])c(Cl)c([H])c1C(F)(F)F


 17 17  0  0  0  0  0  0  0  0999 V2000
   13.3437   24.6743   -2.1569 C   0  0  0  0  0  0  0  0  0  0  0  0
   12.9298   25.9655   -2.5476 C   0  0  0  0  0  0  0  0  0  0  0  0
   13.5258   26.4350   -3.6841 C   0  0  0  0  0  0  0  0  0  0  0  0
   14.4568   25.8243   -4.4431 C   0  0  0  0  0  0  0  0  0  0  0  0
   14.8676   24.5303   -4.0357 C   0  0  0  0  0  0  0  0  0  0  0  0
   14.2885   23.9800   -2.8850 C   0  0  0  0  0  0  0  0  0  0  0  0
   14.8244   22.3714   -2.3606 Cl  0  0  0  0  0  0  0  0  0  0  0  0
   15.0495   26.3811   -5.6873 C   0  0  0  0  0  0  0  0  0  0  0  0
   14.0928   26.9579   -6.5200 F   0  0  0  0  0  0  0  0  0  0  0  0
   15.8015   25.4645   -6.3437 F   0  0  0  0  0  0  0  0  0  0  0  0
   15.8903   27.4627   -5.3888 F   0  0  0  0  0  0  0  0  0  0  0  0
   12.0630   25.1204   -0.0920 C   0  0  0  0  0  0  0  0  0  0  0  0
   12.6848   24.0077   -1.0007 C   0  0  0  0  0  0  0  0  0  0  0  0
   11.5565   23.1125   -1.3744 C   0  0  0  0  0  0  0  0  0  0  0  0
   13.6411   23.2962   -0.1856 N   0  0  0  0  0  0  0  0  0  0  0  0
   13.2661   22.4190    0.5568 N   0  0  0  0  0  0  0  0  0  0  0  0
   13.5732   21.5238    1.4094 N   0  0  0  0  0  0  0  0  0  0  0  0
 12 13  1  0  0  0
 13 14  1  0  0  0
 13 15  1  0  0  0
 15 16  2  0  0  0
 16 17  2  0  0  0
 13  1  1  0  0  0
  1  2  2  0  0  0
  2  3  1  0  0  0
  3  4  2  0  0  0
  4  8  1  0  0  0
  8  9  1  0  0  0
  8 10  1  0  0  0
  8 11  1  0  0  0
  4  5  1  0  0  0
  5  6  2  0  0  0
  6  7  1  0  0  0
  6  1  1  0  0  0
M  CHG 1  16   1
M  CHG 1  17  -1
M  END
> <minimizedAffinity>
-8.48056

> <CNNscore>
0.7685137987

> <CNNaffinity>
6.3397502899

> <CNN_VS>
4.8721857071

> <CNNaffinity_variance>
0.0702283159

$$$$
[H]c1c([H])c(C(N=[N+]=[N-])(C([H])([H])[H])C([H])([H])[H])c(Cl)c([H])c1C(F)(F)F


 17 17  0  0  0  0  0  0  0  0999 V2000
   14.2064   23.8883   -2.6483 C   0  0  0  0  0  0  0  0  0  0  0  0
   15.1779   23.4059   -3.5510 C   0  0  0  0  0  0  0  0  0  0  0  0
   15.4762   24.2589   -4.5760 C   0  0  0  0  0  0  0  0  0  0  0  0
   14.9439   25.4714   -4.8250 C   0  0  0  0  0  0  0  0  0  0  0  0
   13.9651   25.9410   -3.9137 C   0  0  0  0  0  0  0  0  0  0  0  0
   13.6183   25.1236   -2.8303 C   0  0  0  0  0  0  0  0  0  0  0  0
   12.3725   25.7008   -1.7058 Cl  0  0  0  0  0  0  0  0  0  0  0  0
   15.3316   26.3644   -5.9482 C   0  0  0  0  0  0  0  0  0  0  0  0
   15.8914   25.6644   -7.0150 F   0  0  0  0  0  0  0  0  0  0  0  0
   16.1314   27.3778   -5.5360 F   0  0  0  0  0  0  0  0  0  0  0  0
   14.1951   26.9485   -6.5255 F   0  0  0  0  0  0  0  0  0  0  0  0
   12.3205   22.9909   -1.3289 C   0  0  0  0  0  0  0  0  0  0  0  0
   13.8788   23.1011   -1.4283 C   0  0  0  0  0  0  0  0  0  0  0  0
   14.3832   21.7014   -1.4516 C   0  0  0  0  0  0  0  0  0  0  0  0
   14.3221   23.7744   -0.2303 N   0  0  0  0  0  0  0  0  0  0  0  0
   15.4840   24.0848   -0.1080 N   0  0  0  0  0  0  0  0  0  0  0  0
   16.3821   24.6403    0.6044 N   0  0  0  0  0  0  0  0  0  0  0  0
 12 13  1  0  0  0
 13 14  1  0  0  0
 13 15  1  0  0  0
 15 16  2  0  0  0
 16 17  2  0  0  0
 13  1  1  0  0  0
  1  2  2  0  0  0
  2  3  1  0  0  0
  3  4  2  0  0  0
  4  8  1  0  0  0
  8  9  1  0  0  0
  8 10  1  0  0  0
  8 11  1  0  0  0
  4  5  1  0  0  0
  5  6  2  0  0  0
  6  7  1  0  0  0
  6  1  1  0  0  0
M  CHG 1  16   1
M  CHG 1  17  -1
M  END
> <minimizedAffinity>
-8.34412

> <CNNscore>
0.7307822704

> <CNNaffinity>
6.4232778549

> <CNN_VS>
4.6940174103

> <CNNaffinity_variance>
0.1066721901

$$$$
[H]c1c([H])c(C(N=[N+]=[N-])(C([H])([H])[H])C([H])([H])[H])c(Cl)c([H])c1C(F)(F)F


 17 17  0  0  0  0  0  0  0  0999 V2000
   13.9971   25.2567   -2.2012 C   0  0  0  0  0  0  0  0  0  0  0  0
   13.2659   25.8334   -3.2614 C   0  0  0  0  0  0  0  0  0  0  0  0
   14.0164   26.5630   -4.1400 C   0  0  0  0  0  0  0  0  0  0  0  0
   15.3416   26.8030   -4.0957 C   0  0  0  0  0  0  0  0  0  0  0  0
   16.0625   26.2225   -3.0223 C   0  0  0  0  0  0  0  0  0  0  0  0
   15.3590   25.4501   -2.0892 C   0  0  0  0  0  0  0  0  0  0  0  0
   16.2584   24.7471   -0.7302 Cl  0  0  0  0  0  0  0  0  0  0  0  0
   16.1053   27.5877   -5.1009 C   0  0  0  0  0  0  0  0  0  0  0  0
   15.6349   28.8932   -5.2254 F   0  0  0  0  0  0  0  0  0  0  0  0
   16.1618   26.9565   -6.2989 F   0  0  0  0  0  0  0  0  0  0  0  0
   17.4277   27.7760   -4.6745 F   0  0  0  0  0  0  0  0  0  0  0  0
   13.4091   24.9848    0.1828 C   0  0  0  0  0  0  0  0  0  0  0  0
   13.3120   24.3465   -1.2432 C   0  0  0  0  0  0  0  0  0  0  0  0
   11.8591   24.1642   -1.5074 C   0  0  0  0  0  0  0  0  0  0  0  0
   13.9730   23.0649   -1.1674 N   0  0  0  0  0  0  0  0  0  0  0  0
   13.5093   22.1120   -1.7491 N   0  0  0  0  0  0  0  0  0  0  0  0
   13.6124   20.8790   -2.0516 N   0  0  0  0  0  0  0  0  0  0  0  0
 12 13  1  0  0  0
 13 14  1  0  0  0
 13 15  1  0  0  0
 15 16  2  0  0  0
 16 17  2  0  0  0
 13  1  1  0  0  0
  1  2  2  0  0  0
  2  3  1  0  0  0
  3  4  2  0  0  0
  4  8  1  0  0  0
  8  9  1  0  0  0
  8 10  1  0  0  0
  8 11  1  0  0  0
  4  5  1  0  0  0
  5  6  2  0  0  0
  6  7  1  0  0  0
  6  1  1  0  0  0
M  CHG 1  16   1
M  CHG 1  17  -1
M  END
> <minimizedAffinity>
-8.01162

> <CNNscore>
0.6876552105

> <CNNaffinity>
6.1584773064

> <CNN_VS>
4.2349090576

> <CNNaffinity_variance>
0.2856344581

$$$$
[H]c1c([H])c(C(N=[N+]=[N-])(C([H])([H])[H])C([H])([H])[H])c(Cl)c([H])c1C(F)(F)F


 17 17  0  0  0  0  0  0  0  0999 V2000
   12.9765   24.2517   -1.7228 C   0  0  0  0  0  0  0  0  0  0  0  0
   12.6115   25.5535   -2.1269 C   0  0  0  0  0  0  0  0  0  0  0  0
   13.3374   26.0496   -3.1730 C   0  0  0  0  0  0  0  0  0  0  0  0
   14.3515   25.4554   -3.8320 C   0  0  0  0  0  0  0  0  0  0  0  0
   14.7114   24.1505   -3.4118 C   0  0  0  0  0  0  0  0  0  0  0  0
   14.0007   23.5732   -2.3517 C   0  0  0  0  0  0  0  0  0  0  0  0
   14.4711   21.9505   -1.8083 Cl  0  0  0  0  0  0  0  0  0  0  0  0
   15.0868   26.0415   -4.9832 C   0  0  0  0  0  0  0  0  0  0  0  0
   15.5571   25.0697   -5.8640 F   0  0  0  0  0  0  0  0  0  0  0  0
   16.0754   26.8762   -4.5800 F   0  0  0  0  0  0  0  0  0  0  0  0
   14.2191   26.7931   -5.7882 F   0  0  0  0  0  0  0  0  0  0  0  0
   11.2650   24.6198    0.0202 C   0  0  0  0  0  0  0  0  0  0  0  0
   12.1857   23.5583   -0.6696 C   0  0  0  0  0  0  0  0  0  0  0  0
   11.2717   22.5046   -1.1874 C   0  0  0  0  0  0  0  0  0  0  0  0
   13.0392   23.0193    0.3630 N   0  0  0  0  0  0  0  0  0  0  0  0
   12.6162   22.1705    1.1126 N   0  0  0  0  0  0  0  0  0  0  0  0
   12.8432   21.3843    2.0888 N   0  0  0  0  0  0  0  0  0  0  0  0
 12 13  1  0  0  0
 13 14  1  0  0  0
 13 15  1  0  0  0
 15 16  2  0  0  0
 16 17  2  0  0  0
 13  1  1  0  0  0
  1  2  2  0  0  0
  2  3  1  0  0  0
  3  4  2  0  0  0
  4  8  1  0  0  0
  8  9  1  0  0  0
  8 10  1  0  0  0
  8 11  1  0  0  0
  4  5  1  0  0  0
  5  6  2  0  0  0
  6  7  1  0  0  0
  6  1  1  0  0  0
M  CHG 1  16   1
M  CHG 1  17  -1
M  END
> <minimizedAffinity>
-8.12344

> <CNNscore>
0.6860160828

> <CNNaffinity>
6.2939105034

> <CNN_VS>
4.3177237511

> <CNNaffinity_variance>
0.1051790491

$$$$
[H]c1c([H])c(C(N=[N+]=[N-])(C([H])([H])[H])C([H])([H])[H])c(Cl)c([H])c1C(F)(F)F


 17 17  0  0  0  0  0  0  0  0999 V2000
   14.2618   23.9594   -2.6288 C   0  0  0  0  0  0  0  0  0  0  0  0
   15.2254   23.4655   -3.5336 C   0  0  0  0  0  0  0  0  0  0  0  0
   15.5013   24.2974   -4.5821 C   0  0  0  0  0  0  0  0  0  0  0  0
   14.9537   25.4987   -4.8514 C   0  0  0  0  0  0  0  0  0  0  0  0
   13.9830   25.9799   -3.9375 C   0  0  0  0  0  0  0  0  0  0  0  0
   13.6592   25.1845   -2.8308 C   0  0  0  0  0  0  0  0  0  0  0  0
   12.4234   25.7758   -1.7025 Cl  0  0  0  0  0  0  0  0  0  0  0  0
   15.3171   26.3691   -6.0002 C   0  0  0  0  0  0  0  0  0  0  0  0
   15.8860   25.6526   -7.0510 F   0  0  0  0  0  0  0  0  0  0  0  0
   16.0977   27.4096   -5.6195 F   0  0  0  0  0  0  0  0  0  0  0  0
   14.1658   26.9139   -6.5864 F   0  0  0  0  0  0  0  0  0  0  0  0
   14.4447   21.7240   -1.5933 C   0  0  0  0  0  0  0  0  0  0  0  0
   13.9588   23.1976   -1.3865 C   0  0  0  0  0  0  0  0  0  0  0  0
   14.6713   23.6931   -0.1778 C   0  0  0  0  0  0  0  0  0  0  0  0
   12.5375   23.1326   -1.1400 N   0  0  0  0  0  0  0  0  0  0  0  0
   11.8755   22.2623   -1.6553 N   0  0  0  0  0  0  0  0  0  0  0  0
   10.7310   21.7227   -1.8023 N   0  0  0  0  0  0  0  0  0  0  0  0
 12 13  1  0  0  0
 13 14  1  0  0  0
 13 15  1  0  0  0
 15 16  2  0  0  0
 16 17  2  0  0  0
 13  1  1  0  0  0
  1  2  2  0  0  0
  2  3  1  0  0  0
  3  4  2  0  0  0
  4  8  1  0  0  0
  8  9  1  0  0  0
  8 10  1  0  0  0
  8 11  1  0  0  0
  4  5  1  0  0  0
  5  6  2  0  0  0
  6  7  1  0  0  0
  6  1  1  0  0  0
M  CHG 1  16   1
M  CHG 1  17  -1
M  END
> <minimizedAffinity>
-8.92364

> <CNNscore>
0.6151626110

> <CNNaffinity>
5.9804487228

> <CNN_VS>
3.6789484024

> <CNNaffinity_variance>
0.1974956095

$$$$
[H]c1c([H])c(C(N=[N+]=[N-])(C([H])([H])[H])C([H])([H])[H])c(Cl)c([H])c1C(F)(F)F


 17 17  0  0  0  0  0  0  0  0999 V2000
   14.4810   24.3104   -1.9117 C   0  0  0  0  0  0  0  0  0  0  0  0
   14.4620   25.7190   -1.9935 C   0  0  0  0  0  0  0  0  0  0  0  0
   14.7464   26.2214   -3.2321 C   0  0  0  0  0  0  0  0  0  0  0  0
   15.0547   25.5376   -4.3515 C   0  0  0  0  0  0  0  0  0  0  0  0
   15.0758   24.1238   -4.2535 C   0  0  0  0  0  0  0  0  0  0  0  0
   14.7813   23.5383   -3.0155 C   0  0  0  0  0  0  0  0  0  0  0  0
   14.8356   21.7690   -2.8875 Cl  0  0  0  0  0  0  0  0  0  0  0  0
   15.3303   26.1456   -5.6796 C   0  0  0  0  0  0  0  0  0  0  0  0
   14.2315   26.8362   -6.1865 F   0  0  0  0  0  0  0  0  0  0  0  0
   15.8046   25.2350   -6.5643 F   0  0  0  0  0  0  0  0  0  0  0  0
   16.3010   27.1511   -5.5669 F   0  0  0  0  0  0  0  0  0  0  0  0
   12.9428   24.4955    0.0125 C   0  0  0  0  0  0  0  0  0  0  0  0
   14.0769   23.6404   -0.6455 C   0  0  0  0  0  0  0  0  0  0  0  0
   13.5027   22.2803   -0.8312 C   0  0  0  0  0  0  0  0  0  0  0  0
   15.1658   23.6004    0.3020 N   0  0  0  0  0  0  0  0  0  0  0  0
   15.4987   22.5474    0.7937 N   0  0  0  0  0  0  0  0  0  0  0  0
   16.2885   21.9246    1.5752 N   0  0  0  0  0  0  0  0  0  0  0  0
 12 13  1  0  0  0
 13 14  1  0  0  0
 13 15  1  0  0  0
 15 16  2  0  0  0
 16 17  2  0  0  0
 13  1  1  0  0  0
  1  2  2  0  0  0
  2  3  1  0  0  0
  3  4  2  0  0  0
  4  8  1  0  0  0
  8  9  1  0  0  0
  8 10  1  0  0  0
  8 11  1  0  0  0
  4  5  1  0  0  0
  5  6  2  0  0  0
  6  7  1  0  0  0
  6  1  1  0  0  0
M  CHG 1  16   1
M  CHG 1  17  -1
M  END
> <minimizedAffinity>
-6.66396

> <CNNscore>
0.5894576311

> <CNNaffinity>
6.3605723381

> <CNN_VS>
3.7492878437

> <CNNaffinity_variance>
0.0804288760

$$$$
[H]c1c([H])c(C([H])([H])OC([H])([H])C2([H])C([H])([H])C([H])([H])N(C([H])([H])C([H])([H])C([H])([H])C([H])([H])C([H])([H])[H])C([H])([H])C2([H])[H])c([H])c([H])c1F


 21 22  0  0  0  0  0  0  0  0999 V2000
   12.6155   26.9707   -4.0271 N   0  0  0  0  0  0  0  0  0  0  0  0
   13.8152   27.0535   -4.7635 C   0  0  0  0  0  0  0  0  0  0  0  0
   14.6834   25.8549   -4.7900 C   0  0  0  0  0  0  0  0  0  0  0  0
   14.9370   25.4410   -3.3454 C   0  0  0  0  0  0  0  0  0  0  0  0
   13.5776   25.0438   -2.8128 C   0  0  0  0  0  0  0  0  0  0  0  0
   12.5372   26.0874   -2.9399 C   0  0  0  0  0  0  0  0  0  0  0  0
   12.1535   28.3065   -3.7507 C   0  0  0  0  0  0  0  0  0  0  0  0
   11.3887   28.9405   -4.8572 C   0  0  0  0  0  0  0  0  0  0  0  0
    9.9772   28.4175   -4.9402 C   0  0  0  0  0  0  0  0  0  0  0  0
    7.7755   28.8114   -5.9445 C   0  0  0  0  0  0  0  0  0  0  0  0
    9.0064   29.4810   -5.3848 C   0  0  0  0  0  0  0  0  0  0  0  0
   15.8415   24.2335   -3.2750 C   0  0  0  0  0  0  0  0  0  0  0  0
   15.1325   23.1409   -2.7723 O   0  0  0  0  0  0  0  0  0  0  0  0
   15.3022   23.0694   -1.3923 C   0  0  0  0  0  0  0  0  0  0  0  0
   14.1444   22.3184   -0.8171 C   0  0  0  0  0  0  0  0  0  0  0  0
   13.7008   21.1401   -1.3899 C   0  0  0  0  0  0  0  0  0  0  0  0
   12.6349   20.4284   -0.8786 C   0  0  0  0  0  0  0  0  0  0  0  0
   11.9651   20.8773    0.2410 C   0  0  0  0  0  0  0  0  0  0  0  0
   10.9077   20.1919    0.7667 F   0  0  0  0  0  0  0  0  0  0  0  0
   12.4025   22.0514    0.8168 C   0  0  0  0  0  0  0  0  0  0  0  0
   13.4774   22.7705    0.3023 C   0  0  0  0  0  0  0  0  0  0  0  0
 10 11  1  0  0  0
 11  9  1  0  0  0
  9  8  1  0  0  0
  8  7  1  0  0  0
  7  1  1  0  0  0
  1  2  1  0  0  0
  2  3  1  0  0  0
  3  4  1  0  0  0
  4 12  1  0  0  0
 12 13  1  0  0  0
 13 14  1  0  0  0
 14 15  1  0  0  0
 15 16  2  0  0  0
 16 17  1  0  0  0
 17 18  2  0  0  0
 18 19  1  0  0  0
 18 20  1  0  0  0
 20 21  2  0  0  0
  4  5  1  0  0  0
  5  6  1  0  0  0
  6  1  1  0  0  0
 21 15  1  0  0  0
M  END
> <minimizedAffinity>
3.82009

> <CNNscore>
0.4616988003

> <CNNaffinity>
5.8699545860

> <CNN_VS>
2.7101509571

> <CNNaffinity_variance>
0.2345882207

$$$$
[H]c1c([H])c(C([H])([H])OC([H])([H])C2([H])C([H])([H])C([H])([H])N(C([H])([H])C([H])([H])C([H])([H])C([H])([H])C([H])([H])[H])C([H])([H])C2([H])[H])c([H])c([H])c1F


 21 22  0  0  0  0  0  0  0  0999 V2000
   13.8336   25.3863   -3.6092 N   0  0  0  0  0  0  0  0  0  0  0  0
   15.0330   24.7016   -3.8933 C   0  0  0  0  0  0  0  0  0  0  0  0
   15.1136   23.2760   -3.5030 C   0  0  0  0  0  0  0  0  0  0  0  0
   14.7493   23.1842   -2.0260 C   0  0  0  0  0  0  0  0  0  0  0  0
   13.3037   23.6254   -1.9564 C   0  0  0  0  0  0  0  0  0  0  0  0
   13.0386   24.9610   -2.5342 C   0  0  0  0  0  0  0  0  0  0  0  0
   14.0950   26.8023   -3.6400 C   0  0  0  0  0  0  0  0  0  0  0  0
   13.3198   27.5547   -4.6618 C   0  0  0  0  0  0  0  0  0  0  0  0
   12.2415   28.4049   -4.0395 C   0  0  0  0  0  0  0  0  0  0  0  0
   11.4985   30.6875   -3.5409 C   0  0  0  0  0  0  0  0  0  0  0  0
   12.7046   29.8191   -3.8016 C   0  0  0  0  0  0  0  0  0  0  0  0
   14.8311   21.7594   -1.5318 C   0  0  0  0  0  0  0  0  0  0  0  0
   13.6413   21.0895   -1.8230 O   0  0  0  0  0  0  0  0  0  0  0  0
   13.3380   20.2066   -0.7900 C   0  0  0  0  0  0  0  0  0  0  0  0
   12.0780   20.6711   -0.1327 C   0  0  0  0  0  0  0  0  0  0  0  0
   10.9752   21.0404   -0.8814 C   0  0  0  0  0  0  0  0  0  0  0  0
    9.8010   21.4724   -0.2993 C   0  0  0  0  0  0  0  0  0  0  0  0
    9.6872   21.5514    1.0735 C   0  0  0  0  0  0  0  0  0  0  0  0
    8.5368   21.9757    1.6744 F   0  0  0  0  0  0  0  0  0  0  0  0
   10.7832   21.1848    1.8256 C   0  0  0  0  0  0  0  0  0  0  0  0
   11.9683   20.7488    1.2400 C   0  0  0  0  0  0  0  0  0  0  0  0
 10 11  1  0  0  0
 11  9  1  0  0  0
  9  8  1  0  0  0
  8  7  1  0  0  0
  7  1  1  0  0  0
  1  2  1  0  0  0
  2  3  1  0  0  0
  3  4  1  0  0  0
  4 12  1  0  0  0
 12 13  1  0  0  0
 13 14  1  0  0  0
 14 15  1  0  0  0
 15 16  2  0  0  0
 16 17  1  0  0  0
 17 18  2  0  0  0
 18 19  1  0  0  0
 18 20  1  0  0  0
 20 21  2  0  0  0
  4  5  1  0  0  0
  5  6  1  0  0  0
  6  1  1  0  0  0
 21 15  1  0  0  0
M  END
> <minimizedAffinity>
0.52700

> <CNNscore>
0.3980557621

> <CNNaffinity>
5.6744523048

> <CNN_VS>
2.2587485313

> <CNNaffinity_variance>
0.3941994309

$$$$
[H]c1c([H])c(C([H])([H])OC([H])([H])C2([H])C([H])([H])C([H])([H])N(C([H])([H])C([H])([H])C([H])([H])C([H])([H])C([H])([H])[H])C([H])([H])C2([H])[H])c([H])c([H])c1F


 21 22  0  0  0  0  0  0  0  0999 V2000
   11.9538   22.0434   -1.4776 N   0  0  0  0  0  0  0  0  0  0  0  0
   11.8622   23.3391   -0.9290 C   0  0  0  0  0  0  0  0  0  0  0  0
   13.1119   24.1255   -0.8244 C   0  0  0  0  0  0  0  0  0  0  0  0
   14.1305   23.2700   -0.0807 C   0  0  0  0  0  0  0  0  0  0  0  0
   14.3772   22.0855   -0.9892 C   0  0  0  0  0  0  0  0  0  0  0  0
   13.1599   21.3352   -1.3675 C   0  0  0  0  0  0  0  0  0  0  0  0
   10.7823   21.2986   -1.0939 C   0  0  0  0  0  0  0  0  0  0  0  0
   11.0370   20.1918   -0.1342 C   0  0  0  0  0  0  0  0  0  0  0  0
   10.8230   20.6227    1.2946 C   0  0  0  0  0  0  0  0  0  0  0  0
   11.9161   19.7510    3.3086 C   0  0  0  0  0  0  0  0  0  0  0  0
   12.1061   20.6133    2.0851 C   0  0  0  0  0  0  0  0  0  0  0  0
   15.4365   24.0077    0.0963 C   0  0  0  0  0  0  0  0  0  0  0  0
   15.4361   25.1634   -0.6870 O   0  0  0  0  0  0  0  0  0  0  0  0
   16.5997   25.2104   -1.4501 C   0  0  0  0  0  0  0  0  0  0  0  0
   16.2503   25.7417   -2.8032 C   0  0  0  0  0  0  0  0  0  0  0  0
   15.4747   25.0068   -3.6816 C   0  0  0  0  0  0  0  0  0  0  0  0
   15.1384   25.4744   -4.9355 C   0  0  0  0  0  0  0  0  0  0  0  0
   15.5729   26.7128   -5.3613 C   0  0  0  0  0  0  0  0  0  0  0  0
   15.2542   27.1985   -6.5970 F   0  0  0  0  0  0  0  0  0  0  0  0
   16.3466   27.4504   -4.4904 C   0  0  0  0  0  0  0  0  0  0  0  0
   16.6867   26.9802   -3.2252 C   0  0  0  0  0  0  0  0  0  0  0  0
 10 11  1  0  0  0
 11  9  1  0  0  0
  9  8  1  0  0  0
  8  7  1  0  0  0
  7  1  1  0  0  0
  1  2  1  0  0  0
  2  3  1  0  0  0
  3  4  1  0  0  0
  4 12  1  0  0  0
 12 13  1  0  0  0
 13 14  1  0  0  0
 14 15  1  0  0  0
 15 16  2  0  0  0
 16 17  1  0  0  0
 17 18  2  0  0  0
 18 19  1  0  0  0
 18 20  1  0  0  0
 20 21  2  0  0  0
  4  5  1  0  0  0
  5  6  1  0  0  0
  6  1  1  0  0  0
 21 15  1  0  0  0
M  END
> <minimizedAffinity>
-7.14890

> <CNNscore>
0.3679126203

> <CNNaffinity>
6.2302007675

> <CNN_VS>
2.2921695709

> <CNNaffinity_variance>
0.2396359891

$$$$
[H]c1c([H])c(C([H])([H])OC([H])([H])C2([H])C([H])([H])C([H])([H])N(C([H])([H])C([H])([H])C([H])([H])C([H])([H])C([H])([H])[H])C([H])([H])C2([H])[H])c([H])c([H])c1F


 21 22  0  0  0  0  0  0  0  0999 V2000
   10.4528   23.6317    0.9483 N   0  0  0  0  0  0  0  0  0  0  0  0
   11.3889   24.6861    0.9311 C   0  0  0  0  0  0  0  0  0  0  0  0
   12.0679   24.9746   -0.3522 C   0  0  0  0  0  0  0  0  0  0  0  0
   12.6796   23.6706   -0.8500 C   0  0  0  0  0  0  0  0  0  0  0  0
   11.4964   22.7668   -1.1195 C   0  0  0  0  0  0  0  0  0  0  0  0
   10.5914   22.5760    0.0348 C   0  0  0  0  0  0  0  0  0  0  0  0
   10.2480   23.2221    2.3138 C   0  0  0  0  0  0  0  0  0  0  0  0
   10.5986   21.8049    2.5961 C   0  0  0  0  0  0  0  0  0  0  0  0
   10.6285   21.5144    4.0751 C   0  0  0  0  0  0  0  0  0  0  0  0
   11.9905   19.6740    3.1981 C   0  0  0  0  0  0  0  0  0  0  0  0
   11.1567   20.1338    4.3686 C   0  0  0  0  0  0  0  0  0  0  0  0
   13.4201   23.8771   -2.1501 C   0  0  0  0  0  0  0  0  0  0  0  0
   14.7690   24.1271   -1.8908 O   0  0  0  0  0  0  0  0  0  0  0  0
   15.5172   23.8891   -3.0406 C   0  0  0  0  0  0  0  0  0  0  0  0
   15.6682   25.1820   -3.7760 C   0  0  0  0  0  0  0  0  0  0  0  0
   16.3298   26.2552   -3.2071 C   0  0  0  0  0  0  0  0  0  0  0  0
   16.4826   27.4587   -3.8647 C   0  0  0  0  0  0  0  0  0  0  0  0
   15.9711   27.6334   -5.1342 C   0  0  0  0  0  0  0  0  0  0  0  0
   16.1086   28.8139   -5.8064 F   0  0  0  0  0  0  0  0  0  0  0  0
   15.3103   26.5673   -5.7069 C   0  0  0  0  0  0  0  0  0  0  0  0
   15.1553   25.3527   -5.0450 C   0  0  0  0  0  0  0  0  0  0  0  0
 10 11  1  0  0  0
 11  9  1  0  0  0
  9  8  1  0  0  0
  8  7  1  0  0  0
  7  1  1  0  0  0
  1  2  1  0  0  0
  2  3  1  0  0  0
  3  4  1  0  0  0
  4 12  1  0  0  0
 12 13  1  0  0  0
 13 14  1  0  0  0
 14 15  1  0  0  0
 15 16  2  0  0  0
 16 17  1  0  0  0
 17 18  2  0  0  0
 18 19  1  0  0  0
 18 20  1  0  0  0
 20 21  2  0  0  0
  4  5  1  0  0  0
  5  6  1  0  0  0
  6  1  1  0  0  0
 21 15  1  0  0  0
M  END
> <minimizedAffinity>
-6.91284

> <CNNscore>
0.3671843708

> <CNNaffinity>
5.7129273415

> <CNN_VS>
2.0976977348

> <CNNaffinity_variance>
0.5329340696

$$$$
[H]c1c([H])c(C([H])([H])OC([H])([H])C2([H])C([H])([H])C([H])([H])N(C([H])([H])C([H])([H])C([H])([H])C([H])([H])C([H])([H])[H])C([H])([H])C2([H])[H])c([H])c([H])c1F


 21 22  0  0  0  0  0  0  0  0999 V2000
   11.9194   21.2211   -1.0002 N   0  0  0  0  0  0  0  0  0  0  0  0
   11.6736   22.5888   -0.7605 C   0  0  0  0  0  0  0  0  0  0  0  0
   12.8221   23.5168   -0.8648 C   0  0  0  0  0  0  0  0  0  0  0  0
   13.9293   22.9779    0.0333 C   0  0  0  0  0  0  0  0  0  0  0  0
   14.3182   21.6530   -0.5853 C   0  0  0  0  0  0  0  0  0  0  0  0
   13.1993   20.7009   -0.7564 C   0  0  0  0  0  0  0  0  0  0  0  0
   10.8407   20.4545   -0.4319 C   0  0  0  0  0  0  0  0  0  0  0  0
    9.5072   21.1080   -0.5077 C   0  0  0  0  0  0  0  0  0  0  0  0
    8.3971   20.1058   -0.6976 C   0  0  0  0  0  0  0  0  0  0  0  0
    6.6388   19.2977   -2.2031 C   0  0  0  0  0  0  0  0  0  0  0  0
    7.9730   19.9996   -2.1398 C   0  0  0  0  0  0  0  0  0  0  0  0
   15.1390   23.8819    0.0095 C   0  0  0  0  0  0  0  0  0  0  0  0
   15.0713   24.7324   -1.0956 O   0  0  0  0  0  0  0  0  0  0  0  0
   16.3566   25.1178   -1.4672 C   0  0  0  0  0  0  0  0  0  0  0  0
   16.2532   25.9745   -2.6881 C   0  0  0  0  0  0  0  0  0  0  0  0
   15.2833   25.7402   -3.6460 C   0  0  0  0  0  0  0  0  0  0  0  0
   15.1668   26.5160   -4.7812 C   0  0  0  0  0  0  0  0  0  0  0  0
   16.0299   27.5697   -5.0014 C   0  0  0  0  0  0  0  0  0  0  0  0
   15.9361   28.3524   -6.1162 F   0  0  0  0  0  0  0  0  0  0  0  0
   16.9992   27.8085   -4.0502 C   0  0  0  0  0  0  0  0  0  0  0  0
   17.1180   27.0270   -2.9046 C   0  0  0  0  0  0  0  0  0  0  0  0
 10 11  1  0  0  0
 11  9  1  0  0  0
  9  8  1  0  0  0
  8  7  1  0  0  0
  7  1  1  0  0  0
  1  2  1  0  0  0
  2  3  1  0  0  0
  3  4  1  0  0  0
  4 12  1  0  0  0
 12 13  1  0  0  0
 13 14  1  0  0  0
 14 15  1  0  0  0
 15 16  2  0  0  0
 16 17  1  0  0  0
 17 18  2  0  0  0
 18 19  1  0  0  0
 18 20  1  0  0  0
 20 21  2  0  0  0
  4  5  1  0  0  0
  5  6  1  0  0  0
  6  1  1  0  0  0
 21 15  1  0  0  0
M  END
> <minimizedAffinity>
-7.03648

> <CNNscore>
0.3631683588

> <CNNaffinity>
5.9495873451

> <CNN_VS>
2.1607019901

> <CNNaffinity_variance>
0.2679310143

$$$$
[H]c1c([H])c(C([H])([H])OC([H])([H])C2([H])C([H])([H])C([H])([H])N(C([H])([H])C([H])([H])C([H])([H])C([H])([H])C([H])([H])[H])C([H])([H])C2([H])[H])c([H])c([H])c1F


 21 22  0  0  0  0  0  0  0  0999 V2000
   13.7990   23.3696   -2.1330 N   0  0  0  0  0  0  0  0  0  0  0  0
   13.5906   21.9963   -1.8897 C   0  0  0  0  0  0  0  0  0  0  0  0
   12.4517   21.6225   -1.0213 C   0  0  0  0  0  0  0  0  0  0  0  0
   12.5877   22.4098    0.2765 C   0  0  0  0  0  0  0  0  0  0  0  0
   12.4314   23.8582   -0.1320 C   0  0  0  0  0  0  0  0  0  0  0  0
   13.3727   24.3076   -1.1807 C   0  0  0  0  0  0  0  0  0  0  0  0
   15.1506   23.5539   -2.5950 C   0  0  0  0  0  0  0  0  0  0  0  0
   15.2669   24.0655   -3.9863 C   0  0  0  0  0  0  0  0  0  0  0  0
   14.4822   25.3368   -4.1880 C   0  0  0  0  0  0  0  0  0  0  0  0
   14.0449   27.6071   -3.3721 C   0  0  0  0  0  0  0  0  0  0  0  0
   15.0522   26.4839   -3.3941 C   0  0  0  0  0  0  0  0  0  0  0  0
   11.4751   22.0695    1.2397 C   0  0  0  0  0  0  0  0  0  0  0  0
   10.5779   23.1362    1.3208 O   0  0  0  0  0  0  0  0  0  0  0  0
    9.7477   22.9646    2.4252 C   0  0  0  0  0  0  0  0  0  0  0  0
    9.1008   24.2771    2.7321 C   0  0  0  0  0  0  0  0  0  0  0  0
    7.7258   24.3910    2.8302 C   0  0  0  0  0  0  0  0  0  0  0  0
    7.1044   25.5904    3.1123 C   0  0  0  0  0  0  0  0  0  0  0  0
    7.8483   26.7356    3.3092 C   0  0  0  0  0  0  0  0  0  0  0  0
    7.2581   27.9345    3.5894 F   0  0  0  0  0  0  0  0  0  0  0  0
    9.2197   26.6288    3.2126 C   0  0  0  0  0  0  0  0  0  0  0  0
    9.8480   25.4198    2.9282 C   0  0  0  0  0  0  0  0  0  0  0  0
 10 11  1  0  0  0
 11  9  1  0  0  0
  9  8  1  0  0  0
  8  7  1  0  0  0
  7  1  1  0  0  0
  1  2  1  0  0  0
  2  3  1  0  0  0
  3  4  1  0  0  0
  4 12  1  0  0  0
 12 13  1  0  0  0
 13 14  1  0  0  0
 14 15  1  0  0  0
 15 16  2  0  0  0
 16 17  1  0  0  0
 17 18  2  0  0  0
 18 19  1  0  0  0
 18 20  1  0  0  0
 20 21  2  0  0  0
  4  5  1  0  0  0
  5  6  1  0  0  0
  6  1  1  0  0  0
 21 15  1  0  0  0
M  END
> <minimizedAffinity>
-3.76732

> <CNNscore>
0.3462999761

> <CNNaffinity>
5.6187109947

> <CNN_VS>
1.9457595348

> <CNNaffinity_variance>
0.3163005710

$$$$
[H]c1c([H])c(C([H])([H])OC([H])([H])C2([H])C([H])([H])C([H])([H])N(C([H])([H])C([H])([H])C([H])([H])C([H])([H])C([H])([H])[H])C([H])([H])C2([H])[H])c([H])c([H])c1F


 21 22  0  0  0  0  0  0  0  0999 V2000
   11.8830   21.9512   -1.5016 N   0  0  0  0  0  0  0  0  0  0  0  0
   11.8514   23.3322   -1.2185 C   0  0  0  0  0  0  0  0  0  0  0  0
   13.1461   24.0480   -1.1684 C   0  0  0  0  0  0  0  0  0  0  0  0
   14.0486   23.2950   -0.1984 C   0  0  0  0  0  0  0  0  0  0  0  0
   14.2661   21.9434   -0.8428 C   0  0  0  0  0  0  0  0  0  0  0  0
   13.0241   21.2075   -1.1651 C   0  0  0  0  0  0  0  0  0  0  0  0
   10.6375   21.3667   -1.0757 C   0  0  0  0  0  0  0  0  0  0  0  0
   10.6882   20.6946    0.2497 C   0  0  0  0  0  0  0  0  0  0  0  0
    9.9571   21.4792    1.3092 C   0  0  0  0  0  0  0  0  0  0  0  0
   10.3023   23.7512    2.1635 C   0  0  0  0  0  0  0  0  0  0  0  0
   10.8875   22.3619    2.1007 C   0  0  0  0  0  0  0  0  0  0  0  0
   15.3911   23.9739   -0.0638 C   0  0  0  0  0  0  0  0  0  0  0  0
   15.3851   25.1768   -0.7725 O   0  0  0  0  0  0  0  0  0  0  0  0
   16.5719   25.3017   -1.4898 C   0  0  0  0  0  0  0  0  0  0  0  0
   16.2366   25.7632   -2.8717 C   0  0  0  0  0  0  0  0  0  0  0  0
   15.5659   24.9396   -3.7577 C   0  0  0  0  0  0  0  0  0  0  0  0
   15.2448   25.3416   -5.0381 C   0  0  0  0  0  0  0  0  0  0  0  0
   15.5887   26.6011   -5.4840 C   0  0  0  0  0  0  0  0  0  0  0  0
   15.2829   27.0233   -6.7460 F   0  0  0  0  0  0  0  0  0  0  0  0
   16.2576   27.4272   -4.6056 C   0  0  0  0  0  0  0  0  0  0  0  0
   16.5822   27.0232   -3.3137 C   0  0  0  0  0  0  0  0  0  0  0  0
 10 11  1  0  0  0
 11  9  1  0  0  0
  9  8  1  0  0  0
  8  7  1  0  0  0
  7  1  1  0  0  0
  1  2  1  0  0  0
  2  3  1  0  0  0
  3  4  1  0  0  0
  4 12  1  0  0  0
 12 13  1  0  0  0
 13 14  1  0  0  0
 14 15  1  0  0  0
 15 16  2  0  0  0
 16 17  1  0  0  0
 17 18  2  0  0  0
 18 19  1  0  0  0
 18 20  1  0  0  0
 20 21  2  0  0  0
  4  5  1  0  0  0
  5  6  1  0  0  0
  6  1  1  0  0  0
 21 15  1  0  0  0
M  END
> <minimizedAffinity>
-6.94958

> <CNNscore>
0.3305317163

> <CNNaffinity>
6.2773361206

> <CNN_VS>
2.0748586655

> <CNNaffinity_variance>
0.1640633047

$$$$
[H]c1c([H])c(C([H])([H])OC([H])([H])C2([H])C([H])([H])C([H])([H])N(C([H])([H])C([H])([H])C([H])([H])C([H])([H])C([H])([H])[H])C([H])([H])C2([H])[H])c([H])c([H])c1F


 21 22  0  0  0  0  0  0  0  0999 V2000
   13.8164   24.4960   -1.9291 N   0  0  0  0  0  0  0  0  0  0  0  0
   12.7689   25.3956   -1.6430 C   0  0  0  0  0  0  0  0  0  0  0  0
   11.7684   24.9793   -0.6346 C   0  0  0  0  0  0  0  0  0  0  0  0
   11.2386   23.6128   -1.0521 C   0  0  0  0  0  0  0  0  0  0  0  0
   12.4341   22.6899   -0.9594 C   0  0  0  0  0  0  0  0  0  0  0  0
   13.6074   23.1203   -1.7506 C   0  0  0  0  0  0  0  0  0  0  0  0
   14.3974   24.8562   -3.1967 C   0  0  0  0  0  0  0  0  0  0  0  0
   14.1966   26.2759   -3.5909 C   0  0  0  0  0  0  0  0  0  0  0  0
   14.1664   26.4474   -5.0884 C   0  0  0  0  0  0  0  0  0  0  0  0
   15.5995   26.2540   -7.0683 C   0  0  0  0  0  0  0  0  0  0  0  0
   15.5304   26.7595   -5.6483 C   0  0  0  0  0  0  0  0  0  0  0  0
   10.1862   23.1183   -0.0882 C   0  0  0  0  0  0  0  0  0  0  0  0
    9.9709   24.0737    0.9069 O   0  0  0  0  0  0  0  0  0  0  0  0
    9.5478   23.4442    2.0744 C   0  0  0  0  0  0  0  0  0  0  0  0
    8.7964   24.4410    2.8971 C   0  0  0  0  0  0  0  0  0  0  0  0
    9.3544   25.6634    3.2252 C   0  0  0  0  0  0  0  0  0  0  0  0
    8.6821   26.6004    3.9829 C   0  0  0  0  0  0  0  0  0  0  0  0
    7.4081   26.3434    4.4462 C   0  0  0  0  0  0  0  0  0  0  0  0
    6.7213   27.2533    5.1977 F   0  0  0  0  0  0  0  0  0  0  0  0
    6.8461   25.1264    4.1227 C   0  0  0  0  0  0  0  0  0  0  0  0
    7.5230   24.1803    3.3585 C   0  0  0  0  0  0  0  0  0  0  0  0
 10 11  1  0  0  0
 11  9  1  0  0  0
  9  8  1  0  0  0
  8  7  1  0  0  0
  7  1  1  0  0  0
  1  2  1  0  0  0
  2  3  1  0  0  0
  3  4  1  0  0  0
  4 12  1  0  0  0
 12 13  1  0  0  0
 13 14  1  0  0  0
 14 15  1  0  0  0
 15 16  2  0  0  0
 16 17  1  0  0  0
 17 18  2  0  0  0
 18 19  1  0  0  0
 18 20  1  0  0  0
 20 21  2  0  0  0
  4  5  1  0  0  0
  5  6  1  0  0  0
  6  1  1  0  0  0
 21 15  1  0  0  0
M  END
> <minimizedAffinity>
-6.66388

> <CNNscore>
0.3151092529

> <CNNaffinity>
5.3921670914

> <CNN_VS>
1.6991217136

> <CNNaffinity_variance>
0.6538454294

$$$$
[H]c1c([H])c(C([H])([H])OC([H])([H])C2([H])C([H])([H])C([H])([H])N(C([H])([H])C([H])([H])C([H])([H])C([H])([H])C([H])([H])[H])C([H])([H])C2([H])[H])c([H])c([H])c1F


 21 22  0  0  0  0  0  0  0  0999 V2000
   13.2962   23.9081   -2.2359 N   0  0  0  0  0  0  0  0  0  0  0  0
   13.6283   22.7777   -1.4613 C   0  0  0  0  0  0  0  0  0  0  0  0
   12.6614   22.3537   -0.4238 C   0  0  0  0  0  0  0  0  0  0  0  0
   12.3649   23.5671    0.4493 C   0  0  0  0  0  0  0  0  0  0  0  0
   11.6835   24.5516   -0.4758 C   0  0  0  0  0  0  0  0  0  0  0  0
   12.4551   24.8901   -1.6915 C   0  0  0  0  0  0  0  0  0  0  0  0
   14.4984   24.4167   -2.8446 C   0  0  0  0  0  0  0  0  0  0  0  0
   14.2964   25.5961   -3.7274 C   0  0  0  0  0  0  0  0  0  0  0  0
   15.0624   25.4719   -5.0199 C   0  0  0  0  0  0  0  0  0  0  0  0
   15.9629   27.7489   -4.8947 C   0  0  0  0  0  0  0  0  0  0  0  0
   15.1656   26.7897   -5.7438 C   0  0  0  0  0  0  0  0  0  0  0  0
   11.4008   23.2182    1.5584 C   0  0  0  0  0  0  0  0  0  0  0  0
   10.2896   24.0615    1.5008 O   0  0  0  0  0  0  0  0  0  0  0  0
    9.2471   23.5108    2.2413 C   0  0  0  0  0  0  0  0  0  0  0  0
    8.5613   24.6168    2.9774 C   0  0  0  0  0  0  0  0  0  0  0  0
    7.2854   24.4538    3.4859 C   0  0  0  0  0  0  0  0  0  0  0  0
    6.6308   25.4585    4.1688 C   0  0  0  0  0  0  0  0  0  0  0  0
    7.2392   26.6804    4.3700 C   0  0  0  0  0  0  0  0  0  0  0  0
    6.6135   27.6909    5.0421 F   0  0  0  0  0  0  0  0  0  0  0  0
    8.5113   26.8494    3.8654 C   0  0  0  0  0  0  0  0  0  0  0  0
    9.1729   25.8369    3.1764 C   0  0  0  0  0  0  0  0  0  0  0  0
 10 11  1  0  0  0
 11  9  1  0  0  0
  9  8  1  0  0  0
  8  7  1  0  0  0
  7  1  1  0  0  0
  1  2  1  0  0  0
  2  3  1  0  0  0
  3  4  1  0  0  0
  4 12  1  0  0  0
 12 13  1  0  0  0
 13 14  1  0  0  0
 14 15  1  0  0  0
 15 16  2  0  0  0
 16 17  1  0  0  0
 17 18  2  0  0  0
 18 19  1  0  0  0
 18 20  1  0  0  0
 20 21  2  0  0  0
  4  5  1  0  0  0
  5  6  1  0  0  0
  6  1  1  0  0  0
 21 15  1  0  0  0
M  END
> <minimizedAffinity>
-6.45919

> <CNNscore>
0.2980718315

> <CNNaffinity>
5.3209218979

> <CNN_VS>
1.5860168934

> <CNNaffinity_variance>
0.4354452491

$$$$
[H]c1c([H])c([H])c([C@@]2([H])C([H])([H])[C@]2([H])N([H])C([H])([H])C2([H])C([H])([H])C([H])([H])N([H])C([H])([H])C2([H])[H])c([H])c1[H]


 19 21  0  0  0  0  0  0  0  0999 V2000
   14.5403   23.6365   -0.7188 N   0  0  0  0  0  0  0  0  0  0  0  0
   14.2577   23.8855    0.2425 H   0  0  0  0  0  0  0  0  0  0  0  0
   15.9769   24.6134   -2.5885 C   0  0  0  0  0  0  0  0  0  0  0  0
   16.4141   25.1627   -1.2271 C   0  0  0  0  0  0  0  0  0  0  0  0
   14.9621   24.7695   -1.5192 C   0  0  0  0  0  0  0  0  0  0  0  0
   15.7002   27.4336   -5.8303 C   0  0  0  0  0  0  0  0  0  0  0  0
   16.3010   27.7634   -4.6338 C   0  0  0  0  0  0  0  0  0  0  0  0
   16.3790   26.8323   -3.5968 C   0  0  0  0  0  0  0  0  0  0  0  0
   15.8679   25.5641   -3.7209 C   0  0  0  0  0  0  0  0  0  0  0  0
   15.2684   25.2412   -4.9204 C   0  0  0  0  0  0  0  0  0  0  0  0
   15.1871   26.1646   -5.9584 C   0  0  0  0  0  0  0  0  0  0  0  0
   13.4968   22.9651   -1.4658 C   0  0  0  0  0  0  0  0  0  0  0  0
   13.5514   21.4696   -1.3593 C   0  0  0  0  0  0  0  0  0  0  0  0
   12.2316   20.9662   -0.8486 C   0  0  0  0  0  0  0  0  0  0  0  0
   11.9215   21.3553    0.5601 C   0  0  0  0  0  0  0  0  0  0  0  0
   13.1087   21.6770    1.3327 N   0  0  0  0  0  0  0  0  0  0  0  0
   14.1127   20.6734    0.9472 C   0  0  0  0  0  0  0  0  0  0  0  0
   14.6785   21.1377   -0.3874 C   0  0  0  0  0  0  0  0  0  0  0  0
   12.8905   21.6310    2.3332 H   0  0  0  0  0  0  0  0  0  0  0  0
  6  7  2  0  0  0
  7  8  1  0  0  0
  8  9  2  0  0  0
  9  3  1  0  0  0
  3  4  1  0  0  0
  4  5  1  0  0  0
  5  1  1  0  0  0
  1 12  1  0  0  0
 12 13  1  0  0  0
 13 14  1  0  0  0
 14 15  1  0  0  0
 15 16  1  0  0  0
 16 17  1  0  0  0
 17 18  1  0  0  0
  9 10  1  0  0  0
 10 11  2  0  0  0
 11  6  1  0  0  0
  5  3  1  0  0  0
 18 13  1  0  0  0
  1  2  1  0  0  0
 16 19  1  0  0  0
M  END
> <minimizedAffinity>
-7.71351

> <CNNscore>
0.5331093073

> <CNNaffinity>
6.1744756699

> <CNN_VS>
3.2916705608

> <CNNaffinity_variance>
0.1357758790

$$$$
[H]c1c([H])c([H])c([C@@]2([H])C([H])([H])[C@]2([H])N([H])C([H])([H])C2([H])C([H])([H])C([H])([H])N([H])C([H])([H])C2([H])[H])c([H])c1[H]


 19 21  0  0  0  0  0  0  0  0999 V2000
   13.7499   23.3834   -1.1672 N   0  0  0  0  0  0  0  0  0  0  0  0
   14.0692   22.4978   -0.7431 H   0  0  0  0  0  0  0  0  0  0  0  0
   14.4311   24.6477   -3.2770 C   0  0  0  0  0  0  0  0  0  0  0  0
   15.0984   23.2696   -3.2331 C   0  0  0  0  0  0  0  0  0  0  0  0
   14.7622   24.0534   -1.9599 C   0  0  0  0  0  0  0  0  0  0  0  0
   16.8786   28.0119   -4.3866 C   0  0  0  0  0  0  0  0  0  0  0  0
   17.1038   27.3057   -3.2239 C   0  0  0  0  0  0  0  0  0  0  0  0
   16.2971   26.2181   -2.8849 C   0  0  0  0  0  0  0  0  0  0  0  0
   15.2579   25.8093   -3.6835 C   0  0  0  0  0  0  0  0  0  0  0  0
   15.0384   26.5203   -4.8449 C   0  0  0  0  0  0  0  0  0  0  0  0
   15.8388   27.6057   -5.1889 C   0  0  0  0  0  0  0  0  0  0  0  0
   13.2789   24.3467   -0.1937 C   0  0  0  0  0  0  0  0  0  0  0  0
   11.8273   24.6931   -0.3476 C   0  0  0  0  0  0  0  0  0  0  0  0
   11.1499   24.5698    0.9874 C   0  0  0  0  0  0  0  0  0  0  0  0
   11.0702   23.1750    1.5169 C   0  0  0  0  0  0  0  0  0  0  0  0
   11.1703   22.1677    0.4752 N   0  0  0  0  0  0  0  0  0  0  0  0
   10.3681   22.6805   -0.6461 C   0  0  0  0  0  0  0  0  0  0  0  0
   11.2428   23.7065   -1.3526 C   0  0  0  0  0  0  0  0  0  0  0  0
   10.8076   21.2750    0.8246 H   0  0  0  0  0  0  0  0  0  0  0  0
  6  7  2  0  0  0
  7  8  1  0  0  0
  8  9  2  0  0  0
  9  3  1  0  0  0
  3  4  1  0  0  0
  4  5  1  0  0  0
  5  1  1  0  0  0
  1 12  1  0  0  0
 12 13  1  0  0  0
 13 14  1  0  0  0
 14 15  1  0  0  0
 15 16  1  0  0  0
 16 17  1  0  0  0
 17 18  1  0  0  0
  9 10  1  0  0  0
 10 11  2  0  0  0
 11  6  1  0  0  0
  5  3  1  0  0  0
 18 13  1  0  0  0
  1  2  1  0  0  0
 16 19  1  0  0  0
M  END
> <minimizedAffinity>
-7.50412

> <CNNscore>
0.4429026842

> <CNNaffinity>
5.8019180298

> <CNN_VS>
2.5696849823

> <CNNaffinity_variance>
0.4082810879

$$$$
[H]c1c([H])c([H])c([C@@]2([H])C([H])([H])[C@]2([H])N([H])C([H])([H])C2([H])C([H])([H])C([H])([H])N([H])C([H])([H])C2([H])[H])c([H])c1[H]


 19 21  0  0  0  0  0  0  0  0999 V2000
   13.8276   23.4027   -0.9751 N   0  0  0  0  0  0  0  0  0  0  0  0
   14.2197   22.6483   -0.3893 H   0  0  0  0  0  0  0  0  0  0  0  0
   14.3866   24.7231   -3.0864 C   0  0  0  0  0  0  0  0  0  0  0  0
   14.9594   23.3048   -3.1678 C   0  0  0  0  0  0  0  0  0  0  0  0
   14.8020   24.0450   -1.8354 C   0  0  0  0  0  0  0  0  0  0  0  0
   16.8401   27.9979   -4.4264 C   0  0  0  0  0  0  0  0  0  0  0  0
   15.7726   27.5421   -5.1705 C   0  0  0  0  0  0  0  0  0  0  0  0
   14.9911   26.4787   -4.7157 C   0  0  0  0  0  0  0  0  0  0  0  0
   15.2476   25.8483   -3.5234 C   0  0  0  0  0  0  0  0  0  0  0  0
   16.3169   26.3094   -2.7843 C   0  0  0  0  0  0  0  0  0  0  0  0
   17.1003   27.3691   -3.2318 C   0  0  0  0  0  0  0  0  0  0  0  0
   13.1951   24.4541   -0.2055 C   0  0  0  0  0  0  0  0  0  0  0  0
   11.7160   24.5570   -0.4344 C   0  0  0  0  0  0  0  0  0  0  0  0
   11.0099   24.4972    0.8900 C   0  0  0  0  0  0  0  0  0  0  0  0
   11.1135   23.1815    1.5902 C   0  0  0  0  0  0  0  0  0  0  0  0
   11.4025   22.0811    0.6871 N   0  0  0  0  0  0  0  0  0  0  0  0
   10.5804   22.3268   -0.5078 C   0  0  0  0  0  0  0  0  0  0  0  0
   11.3237   23.3786   -1.3190 C   0  0  0  0  0  0  0  0  0  0  0  0
   11.1603   21.1934    1.1386 H   0  0  0  0  0  0  0  0  0  0  0  0
  6  7  2  0  0  0
  7  8  1  0  0  0
  8  9  2  0  0  0
  9  3  1  0  0  0
  3  4  1  0  0  0
  4  5  1  0  0  0
  5  1  1  0  0  0
  1 12  1  0  0  0
 12 13  1  0  0  0
 13 14  1  0  0  0
 14 15  1  0  0  0
 15 16  1  0  0  0
 16 17  1  0  0  0
 17 18  1  0  0  0
  9 10  1  0  0  0
 10 11  2  0  0  0
 11  6  1  0  0  0
  5  3  1  0  0  0
 18 13  1  0  0  0
  1  2  1  0  0  0
 16 19  1  0  0  0
M  END
> <minimizedAffinity>
-7.36463

> <CNNscore>
0.4146063924

> <CNNaffinity>
5.7832136154

> <CNN_VS>
2.3977572918

> <CNNaffinity_variance>
0.3799020350

$$$$
[H]c1c([H])c([H])c([C@@]2([H])C([H])([H])[C@]2([H])N([H])C([H])([H])C2([H])C([H])([H])C([H])([H])N([H])C([H])([H])C2([H])[H])c([H])c1[H]


 19 21  0  0  0  0  0  0  0  0999 V2000
   13.9407   23.3301    0.5253 N   0  0  0  0  0  0  0  0  0  0  0  0
   14.5810   23.5628    1.3012 H   0  0  0  0  0  0  0  0  0  0  0  0
   13.5330   23.7807   -1.9534 C   0  0  0  0  0  0  0  0  0  0  0  0
   14.4098   22.5387   -1.7665 C   0  0  0  0  0  0  0  0  0  0  0  0
   14.4384   23.7124   -0.7816 C   0  0  0  0  0  0  0  0  0  0  0  0
   14.7091   26.5493   -5.0342 C   0  0  0  0  0  0  0  0  0  0  0  0
   15.3565   25.3446   -4.8587 C   0  0  0  0  0  0  0  0  0  0  0  0
   14.9574   24.4627   -3.8529 C   0  0  0  0  0  0  0  0  0  0  0  0
   13.9166   24.7523   -3.0056 C   0  0  0  0  0  0  0  0  0  0  0  0
   13.2737   25.9590   -3.1870 C   0  0  0  0  0  0  0  0  0  0  0  0
   13.6664   26.8430   -4.1876 C   0  0  0  0  0  0  0  0  0  0  0  0
   12.6311   23.9327    0.6643 C   0  0  0  0  0  0  0  0  0  0  0  0
   11.6303   23.0417    1.3392 C   0  0  0  0  0  0  0  0  0  0  0  0
   11.3062   21.8914    0.4292 C   0  0  0  0  0  0  0  0  0  0  0  0
   10.5755   22.2722   -0.8171 C   0  0  0  0  0  0  0  0  0  0  0  0
    9.8678   23.5347   -0.6947 N   0  0  0  0  0  0  0  0  0  0  0  0
    9.2717   23.5227    0.6501 C   0  0  0  0  0  0  0  0  0  0  0  0
   10.3941   23.8927    1.6093 C   0  0  0  0  0  0  0  0  0  0  0  0
    9.1529   23.6002   -1.4263 H   0  0  0  0  0  0  0  0  0  0  0  0
  6  7  2  0  0  0
  7  8  1  0  0  0
  8  9  2  0  0  0
  9  3  1  0  0  0
  3  4  1  0  0  0
  4  5  1  0  0  0
  5  1  1  0  0  0
  1 12  1  0  0  0
 12 13  1  0  0  0
 13 14  1  0  0  0
 14 15  1  0  0  0
 15 16  1  0  0  0
 16 17  1  0  0  0
 17 18  1  0  0  0
  9 10  1  0  0  0
 10 11  2  0  0  0
 11  6  1  0  0  0
  5  3  1  0  0  0
 18 13  1  0  0  0
  1  2  1  0  0  0
 16 19  1  0  0  0
M  END
> <minimizedAffinity>
-7.42590

> <CNNscore>
0.3268083036

> <CNNaffinity>
5.7134022713

> <CNN_VS>
1.8671872616

> <CNNaffinity_variance>
0.0933627039

$$$$
[H]c1c([H])c([H])c([C@@]2([H])C([H])([H])[C@]2([H])N([H])C([H])([H])C2([H])C([H])([H])C([H])([H])N([H])C([H])([H])C2([H])[H])c([H])c1[H]


 19 21  0  0  0  0  0  0  0  0999 V2000
   12.7356   22.9175   -0.1183 N   0  0  0  0  0  0  0  0  0  0  0  0
   12.0124   23.2768    0.5251 H   0  0  0  0  0  0  0  0  0  0  0  0
   13.3915   24.9300   -1.5443 C   0  0  0  0  0  0  0  0  0  0  0  0
   11.8684   24.8327   -1.4139 C   0  0  0  0  0  0  0  0  0  0  0  0
   12.7684   23.5925   -1.4010 C   0  0  0  0  0  0  0  0  0  0  0  0
   14.9875   25.8836   -5.4280 C   0  0  0  0  0  0  0  0  0  0  0  0
   14.0323   26.6739   -4.8244 C   0  0  0  0  0  0  0  0  0  0  0  0
   13.5295   26.3448   -3.5645 C   0  0  0  0  0  0  0  0  0  0  0  0
   13.9583   25.2346   -2.8800 C   0  0  0  0  0  0  0  0  0  0  0  0
   14.9137   24.4487   -3.4898 C   0  0  0  0  0  0  0  0  0  0  0  0
   15.4193   24.7708   -4.7458 C   0  0  0  0  0  0  0  0  0  0  0  0
   12.6018   21.5024   -0.3963 C   0  0  0  0  0  0  0  0  0  0  0  0
   11.7037   20.7849    0.5678 C   0  0  0  0  0  0  0  0  0  0  0  0
   10.6977   19.9808   -0.2054 C   0  0  0  0  0  0  0  0  0  0  0  0
    9.7143   20.7960   -0.9803 C   0  0  0  0  0  0  0  0  0  0  0  0
    9.5647   22.1448   -0.4624 N   0  0  0  0  0  0  0  0  0  0  0  0
    9.5612   22.0055    1.0021 C   0  0  0  0  0  0  0  0  0  0  0  0
   11.0192   21.8543    1.4121 C   0  0  0  0  0  0  0  0  0  0  0  0
    8.6886   22.5500   -0.8073 H   0  0  0  0  0  0  0  0  0  0  0  0
  6  7  2  0  0  0
  7  8  1  0  0  0
  8  9  2  0  0  0
  9  3  1  0  0  0
  3  4  1  0  0  0
  4  5  1  0  0  0
  5  1  1  0  0  0
  1 12  1  0  0  0
 12 13  1  0  0  0
 13 14  1  0  0  0
 14 15  1  0  0  0
 15 16  1  0  0  0
 16 17  1  0  0  0
 17 18  1  0  0  0
  9 10  1  0  0  0
 10 11  2  0  0  0
 11  6  1  0  0  0
  5  3  1  0  0  0
 18 13  1  0  0  0
  1  2  1  0  0  0
 16 19  1  0  0  0
M  END
> <minimizedAffinity>
-7.39705

> <CNNscore>
0.3250347078

> <CNNaffinity>
5.6538081169

> <CNN_VS>
1.8376839161

> <CNNaffinity_variance>
0.2630578876

$$$$
[H]c1c([H])c([H])c([C@@]2([H])C([H])([H])[C@]2([H])N([H])C([H])([H])C2([H])C([H])([H])C([H])([H])N([H])C([H])([H])C2([H])[H])c([H])c1[H]


 19 21  0  0  0  0  0  0  0  0999 V2000
   14.4708   24.5047   -0.9362 N   0  0  0  0  0  0  0  0  0  0  0  0
   13.6328   24.7237   -0.3742 H   0  0  0  0  0  0  0  0  0  0  0  0
   14.4842   26.2055   -2.8391 C   0  0  0  0  0  0  0  0  0  0  0  0
   13.0741   25.6481   -2.6216 C   0  0  0  0  0  0  0  0  0  0  0  0
   14.3309   24.8161   -2.3453 C   0  0  0  0  0  0  0  0  0  0  0  0
   15.9214   26.6821   -6.8698 C   0  0  0  0  0  0  0  0  0  0  0  0
   15.9580   27.7188   -5.9614 C   0  0  0  0  0  0  0  0  0  0  0  0
   15.4863   27.5407   -4.6597 C   0  0  0  0  0  0  0  0  0  0  0  0
   14.9722   26.3415   -4.2325 C   0  0  0  0  0  0  0  0  0  0  0  0
   14.9386   25.3091   -5.1464 C   0  0  0  0  0  0  0  0  0  0  0  0
   15.4071   25.4797   -6.4458 C   0  0  0  0  0  0  0  0  0  0  0  0
   14.8664   23.1139   -0.8549 C   0  0  0  0  0  0  0  0  0  0  0  0
   14.1919   22.3631    0.2551 C   0  0  0  0  0  0  0  0  0  0  0  0
   14.1884   20.8979   -0.0758 C   0  0  0  0  0  0  0  0  0  0  0  0
   13.3382   20.5277   -1.2473 C   0  0  0  0  0  0  0  0  0  0  0  0
   12.2971   21.5028   -1.5214 N   0  0  0  0  0  0  0  0  0  0  0  0
   11.7745   21.9008   -0.2051 C   0  0  0  0  0  0  0  0  0  0  0  0
   12.7706   22.9064    0.3547 C   0  0  0  0  0  0  0  0  0  0  0  0
   11.5708   21.0752   -2.1048 H   0  0  0  0  0  0  0  0  0  0  0  0
  6  7  2  0  0  0
  7  8  1  0  0  0
  8  9  2  0  0  0
  9  3  1  0  0  0
  3  4  1  0  0  0
  4  5  1  0  0  0
  5  1  1  0  0  0
  1 12  1  0  0  0
 12 13  1  0  0  0
 13 14  1  0  0  0
 14 15  1  0  0  0
 15 16  1  0  0  0
 16 17  1  0  0  0
 17 18  1  0  0  0
  9 10  1  0  0  0
 10 11  2  0  0  0
 11  6  1  0  0  0
  5  3  1  0  0  0
 18 13  1  0  0  0
  1  2  1  0  0  0
 16 19  1  0  0  0
M  END
> <minimizedAffinity>
-6.83475

> <CNNscore>
0.2891645730

> <CNNaffinity>
5.9238257408

> <CNN_VS>
1.7129604816

> <CNNaffinity_variance>
0.1599542797

$$$$
[H]c1c([H])c([H])c([C@@]2([H])C([H])([H])[C@]2([H])N([H])C([H])([H])C2([H])C([H])([H])C([H])([H])N([H])C([H])([H])C2([H])[H])c([H])c1[H]


 19 21  0  0  0  0  0  0  0  0999 V2000
   13.3616   23.4257    0.8932 N   0  0  0  0  0  0  0  0  0  0  0  0
   13.6961   23.6296    1.8485 H   0  0  0  0  0  0  0  0  0  0  0  0
   14.4954   23.8771   -1.3483 C   0  0  0  0  0  0  0  0  0  0  0  0
   15.3707   24.3676   -0.1908 C   0  0  0  0  0  0  0  0  0  0  0  0
   13.8406   24.3581   -0.1083 C   0  0  0  0  0  0  0  0  0  0  0  0
   14.0071   26.4661   -4.7539 C   0  0  0  0  0  0  0  0  0  0  0  0
   13.1508   26.5212   -3.6747 C   0  0  0  0  0  0  0  0  0  0  0  0
   13.3289   25.6717   -2.5814 C   0  0  0  0  0  0  0  0  0  0  0  0
   14.3509   24.7563   -2.5334 C   0  0  0  0  0  0  0  0  0  0  0  0
   15.2036   24.7067   -3.6163 C   0  0  0  0  0  0  0  0  0  0  0  0
   15.0318   25.5505   -4.7096 C   0  0  0  0  0  0  0  0  0  0  0  0
   11.9175   23.4047    0.7853 C   0  0  0  0  0  0  0  0  0  0  0  0
   11.3487   22.0258    0.6246 C   0  0  0  0  0  0  0  0  0  0  0  0
   10.2769   21.8146    1.6556 C   0  0  0  0  0  0  0  0  0  0  0  0
   10.7706   21.7724    3.0651 C   0  0  0  0  0  0  0  0  0  0  0  0
   12.1773   21.4232    3.1617 N   0  0  0  0  0  0  0  0  0  0  0  0
   12.3857   20.3538    2.1732 C   0  0  0  0  0  0  0  0  0  0  0  0
   12.5014   21.0475    0.8234 C   0  0  0  0  0  0  0  0  0  0  0  0
   12.3881   21.1067    4.1135 H   0  0  0  0  0  0  0  0  0  0  0  0
  6  7  2  0  0  0
  7  8  1  0  0  0
  8  9  2  0  0  0
  9  3  1  0  0  0
  3  4  1  0  0  0
  4  5  1  0  0  0
  5  1  1  0  0  0
  1 12  1  0  0  0
 12 13  1  0  0  0
 13 14  1  0  0  0
 14 15  1  0  0  0
 15 16  1  0  0  0
 16 17  1  0  0  0
 17 18  1  0  0  0
  9 10  1  0  0  0
 10 11  2  0  0  0
 11  6  1  0  0  0
  5  3  1  0  0  0
 18 13  1  0  0  0
  1  2  1  0  0  0
 16 19  1  0  0  0
M  END
> <minimizedAffinity>
-7.47795

> <CNNscore>
0.2773172557

> <CNNaffinity>
5.5609812737

> <CNN_VS>
1.5421561003

> <CNNaffinity_variance>
0.1680856049

$$$$
[H]c1c([H])c([H])c([C@@]2([H])C([H])([H])[C@]2([H])N([H])C([H])([H])C2([H])C([H])([H])C([H])([H])N([H])C([H])([H])C2([H])[H])c([H])c1[H]


 19 21  0  0  0  0  0  0  0  0999 V2000
   13.4261   21.2583    1.4682 N   0  0  0  0  0  0  0  0  0  0  0  0
   13.7570   21.4076    2.4348 H   0  0  0  0  0  0  0  0  0  0  0  0
   13.8838   21.9901   -0.9336 C   0  0  0  0  0  0  0  0  0  0  0  0
   14.6060   20.6758   -0.6216 C   0  0  0  0  0  0  0  0  0  0  0  0
   14.3437   21.7366    0.4527 C   0  0  0  0  0  0  0  0  0  0  0  0
   16.0593   25.0665   -3.0174 C   0  0  0  0  0  0  0  0  0  0  0  0
   15.8630   25.1166   -1.6535 C   0  0  0  0  0  0  0  0  0  0  0  0
   15.1543   24.1074   -0.9994 C   0  0  0  0  0  0  0  0  0  0  0  0
   14.6286   23.0349   -1.6764 C   0  0  0  0  0  0  0  0  0  0  0  0
   14.8288   22.9913   -3.0403 C   0  0  0  0  0  0  0  0  0  0  0  0
   15.5342   23.9940   -3.6989 C   0  0  0  0  0  0  0  0  0  0  0  0
   12.1465   21.8812    1.1993 C   0  0  0  0  0  0  0  0  0  0  0  0
   10.9878   20.9323    1.2882 C   0  0  0  0  0  0  0  0  0  0  0  0
   10.7509   20.3203   -0.0629 C   0  0  0  0  0  0  0  0  0  0  0  0
   10.2730   21.2794   -1.1040 C   0  0  0  0  0  0  0  0  0  0  0  0
    9.6394   22.4581   -0.5392 N   0  0  0  0  0  0  0  0  0  0  0  0
    8.8205   21.9665    0.5796 C   0  0  0  0  0  0  0  0  0  0  0  0
    9.7823   21.7498    1.7393 C   0  0  0  0  0  0  0  0  0  0  0  0
    9.0674   22.9172   -1.2553 H   0  0  0  0  0  0  0  0  0  0  0  0
  6  7  2  0  0  0
  7  8  1  0  0  0
  8  9  2  0  0  0
  9  3  1  0  0  0
  3  4  1  0  0  0
  4  5  1  0  0  0
  5  1  1  0  0  0
  1 12  1  0  0  0
 12 13  1  0  0  0
 13 14  1  0  0  0
 14 15  1  0  0  0
 15 16  1  0  0  0
 16 17  1  0  0  0
 17 18  1  0  0  0
  9 10  1  0  0  0
 10 11  2  0  0  0
 11  6  1  0  0  0
  5  3  1  0  0  0
 18 13  1  0  0  0
  1  2  1  0  0  0
 16 19  1  0  0  0
M  END
> <minimizedAffinity>
-6.53081

> <CNNscore>
0.2723174393

> <CNNaffinity>
5.4463834763

> <CNN_VS>
1.4831452370

> <CNNaffinity_variance>
0.1959490180

$$$$
[H]c1c([H])c([H])c([C@@]2([H])C([H])([H])[C@]2([H])N([H])C([H])([H])C2([H])C([H])([H])C([H])([H])N([H])C([H])([H])C2([H])[H])c([H])c1[H]


 19 21  0  0  0  0  0  0  0  0999 V2000
   14.3057   25.2067   -3.7444 N   0  0  0  0  0  0  0  0  0  0  0  0
   14.5632   26.0922   -3.2800 H   0  0  0  0  0  0  0  0  0  0  0  0
   13.7073   24.0682   -1.5400 C   0  0  0  0  0  0  0  0  0  0  0  0
   15.2170   24.3108   -1.6312 C   0  0  0  0  0  0  0  0  0  0  0  0
   14.3570   24.0496   -2.8723 C   0  0  0  0  0  0  0  0  0  0  0  0
   12.2764   20.2826   -0.0697 C   0  0  0  0  0  0  0  0  0  0  0  0
   11.4188   21.3338   -0.3165 C   0  0  0  0  0  0  0  0  0  0  0  0
   11.9058   22.5520   -0.7931 C   0  0  0  0  0  0  0  0  0  0  0  0
   13.2422   22.7545   -1.0340 C   0  0  0  0  0  0  0  0  0  0  0  0
   14.0941   21.6988   -0.7849 C   0  0  0  0  0  0  0  0  0  0  0  0
   13.6155   20.4815   -0.3096 C   0  0  0  0  0  0  0  0  0  0  0  0
   15.1351   24.9002   -4.8914 C   0  0  0  0  0  0  0  0  0  0  0  0
   15.0970   25.9553   -5.9573 C   0  0  0  0  0  0  0  0  0  0  0  0
   16.4899   26.4669   -6.1903 C   0  0  0  0  0  0  0  0  0  0  0  0
   17.0741   27.2229   -5.0417 C   0  0  0  0  0  0  0  0  0  0  0  0
   16.0645   27.7690   -4.1516 N   0  0  0  0  0  0  0  0  0  0  0  0
   15.0003   28.2790   -5.0299 C   0  0  0  0  0  0  0  0  0  0  0  0
   14.1833   27.0644   -5.4473 C   0  0  0  0  0  0  0  0  0  0  0  0
   16.4761   28.5148   -3.5815 H   0  0  0  0  0  0  0  0  0  0  0  0
  6  7  2  0  0  0
  7  8  1  0  0  0
  8  9  2  0  0  0
  9  3  1  0  0  0
  3  4  1  0  0  0
  4  5  1  0  0  0
  5  1  1  0  0  0
  1 12  1  0  0  0
 12 13  1  0  0  0
 13 14  1  0  0  0
 14 15  1  0  0  0
 15 16  1  0  0  0
 16 17  1  0  0  0
 17 18  1  0  0  0
  9 10  1  0  0  0
 10 11  2  0  0  0
 11  6  1  0  0  0
  5  3  1  0  0  0
 18 13  1  0  0  0
  1  2  1  0  0  0
 16 19  1  0  0  0
M  END
> <minimizedAffinity>
-3.00962

> <CNNscore>
0.2643533945

> <CNNaffinity>
5.6965231895

> <CNN_VS>
1.5058952570

> <CNNaffinity_variance>
0.2040029466

$$$$
[H]OC([H])([H])C(F)(F)C([H])([H])N1[C@]([H])(c2c(F)c([H])nc(OC([H])([H])C([H])([H])N([H])C([H])([H])C([H])([H])C([H])([H])F)c2F)c2c(c3c([H])c([H])c([H])c([H])c3n2[H])C([H])([H])[C@@]1([H])C([H])([H])[H]


 39 42  0  0  0  0  0  0  0  0999 V2000
   11.9871   26.3417   -2.1848 C   0  0  0  0  0  0  0  0  0  0  0  0
   12.3395   24.9028   -2.4506 C   0  0  0  0  0  0  0  0  0  0  0  0
   11.0503   24.1594   -1.9931 C   0  0  0  0  0  0  0  0  0  0  0  0
   11.0357   24.2984   -0.5253 C   0  0  0  0  0  0  0  0  0  0  0  0
   12.2129   24.3795    0.1731 C   0  0  0  0  0  0  0  0  0  0  0  0
   11.8618   24.5012    1.4723 N   0  0  0  0  0  0  0  0  0  0  0  0
   10.5333   24.5007    1.6277 C   0  0  0  0  0  0  0  0  0  0  0  0
    9.6832   24.5956    2.7138 C   0  0  0  0  0  0  0  0  0  0  0  0
    8.3180   24.5627    2.5407 C   0  0  0  0  0  0  0  0  0  0  0  0
    7.7542   24.4329    1.2671 C   0  0  0  0  0  0  0  0  0  0  0  0
    8.6253   24.3408    0.2053 C   0  0  0  0  0  0  0  0  0  0  0  0
    9.9898   24.3723    0.3654 C   0  0  0  0  0  0  0  0  0  0  0  0
   13.5637   24.3328   -0.4584 C   0  0  0  0  0  0  0  0  0  0  0  0
   13.4892   24.3784   -1.8852 N   0  0  0  0  0  0  0  0  0  0  0  0
   12.5318   24.5860    2.2645 H   0  0  0  0  0  0  0  0  0  0  0  0
   14.4478   23.3620    0.1653 C   0  0  0  0  0  0  0  0  0  0  0  0
   15.7671   23.6322    0.4588 C   0  0  0  0  0  0  0  0  0  0  0  0
   16.2541   24.8288    0.1564 F   0  0  0  0  0  0  0  0  0  0  0  0
   16.5991   22.7019    1.0563 C   0  0  0  0  0  0  0  0  0  0  0  0
   16.1099   21.4880    1.3644 N   0  0  0  0  0  0  0  0  0  0  0  0
   14.8368   21.1416    1.1131 C   0  0  0  0  0  0  0  0  0  0  0  0
   14.0181   22.0851    0.5147 C   0  0  0  0  0  0  0  0  0  0  0  0
   12.7378   21.6966    0.2757 F   0  0  0  0  0  0  0  0  0  0  0  0
   14.3930   19.8921    1.4489 O   0  0  0  0  0  0  0  0  0  0  0  0
   13.0802   19.4806    1.6681 C   0  0  0  0  0  0  0  0  0  0  0  0
   12.5560   19.7156    3.0420 C   0  0  0  0  0  0  0  0  0  0  0  0
   12.0279   21.0578    3.2160 N   0  0  0  0  0  0  0  0  0  0  0  0
   12.2983   21.5052    4.0996 H   0  0  0  0  0  0  0  0  0  0  0  0
   10.6246   21.1531    2.9378 C   0  0  0  0  0  0  0  0  0  0  0  0
    9.7705   20.8867    4.1522 C   0  0  0  0  0  0  0  0  0  0  0  0
   10.2054   21.6488    5.3692 C   0  0  0  0  0  0  0  0  0  0  0  0
    9.7656   22.9534    5.3892 F   0  0  0  0  0  0  0  0  0  0  0  0
   14.5835   23.9123   -2.5725 C   0  0  0  0  0  0  0  0  0  0  0  0
   15.4563   24.6404   -3.4768 C   0  0  0  0  0  0  0  0  0  0  0  0
   16.5761   25.2131   -2.8745 F   0  0  0  0  0  0  0  0  0  0  0  0
   16.1474   23.6622   -4.3229 F   0  0  0  0  0  0  0  0  0  0  0  0
   14.9371   25.5905   -4.4892 C   0  0  0  0  0  0  0  0  0  0  0  0
   14.8711   26.9120   -4.2043 O   0  0  0  0  0  0  0  0  0  0  0  0
   15.6871   27.4006   -4.4622 H   0  0  0  0  0  0  0  0  0  0  0  0
  1  2  1  0  0  0
  2  3  1  0  0  0
  3  4  1  0  0  0
  4  5  2  0  0  0
  5  6  1  0  0  0
  6  7  1  0  0  0
  7  8  2  0  0  0
  8  9  1  0  0  0
  9 10  2  0  0  0
 10 11  1  0  0  0
 11 12  2  0  0  0
  5 13  1  0  0  0
 13 16  1  0  0  0
 16 17  2  0  0  0
 17 18  1  0  0  0
 17 19  1  0  0  0
 19 20  2  0  0  0
 20 21  1  0  0  0
 21 24  1  0  0  0
 24 25  1  0  0  0
 25 26  1  0  0  0
 26 27  1  0  0  0
 27 29  1  0  0  0
 29 30  1  0  0  0
 30 31  1  0  0  0
 31 32  1  0  0  0
 21 22  2  0  0  0
 22 23  1  0  0  0
 13 14  1  0  0  0
 14 33  1  0  0  0
 33 34  1  0  0  0
 34 35  1  0  0  0
 34 36  1  0  0  0
 34 37  1  0  0  0
 37 38  1  0  0  0
 14  2  1  0  0  0
 12  4  1  0  0  0
 22 16  1  0  0  0
 12  7  1  0  0  0
  6 15  1  0  0  0
 27 28  1  0  0  0
 38 39  1  0  0  0
M  END
> <minimizedAffinity>
-1.56612

> <CNNscore>
0.5433372855

> <CNNaffinity>
7.9617171288

> <CNN_VS>
4.3258976936

> <CNNaffinity_variance>
0.4872759283

$$$$
[H]OC([H])([H])C(F)(F)C([H])([H])N1[C@]([H])(c2c(F)c([H])nc(OC([H])([H])C([H])([H])N([H])C([H])([H])C([H])([H])C([H])([H])F)c2F)c2c(c3c([H])c([H])c([H])c([H])c3n2[H])C([H])([H])[C@@]1([H])C([H])([H])[H]


 39 42  0  0  0  0  0  0  0  0999 V2000
   17.0261   27.3575   -2.6527 C   0  0  0  0  0  0  0  0  0  0  0  0
   15.6732   26.7967   -2.3058 C   0  0  0  0  0  0  0  0  0  0  0  0
   15.8013   26.5551   -0.7730 C   0  0  0  0  0  0  0  0  0  0  0  0
   16.7415   25.4264   -0.6466 C   0  0  0  0  0  0  0  0  0  0  0  0
   16.8054   24.4670   -1.6241 C   0  0  0  0  0  0  0  0  0  0  0  0
   17.7493   23.5899   -1.2172 N   0  0  0  0  0  0  0  0  0  0  0  0
   18.2799   23.9444   -0.0416 C   0  0  0  0  0  0  0  0  0  0  0  0
   19.2494   23.4098    0.7863 C   0  0  0  0  0  0  0  0  0  0  0  0
   19.5819   24.0307    1.9688 C   0  0  0  0  0  0  0  0  0  0  0  0
   18.9514   25.2149    2.3652 C   0  0  0  0  0  0  0  0  0  0  0  0
   17.9907   25.7233    1.5207 C   0  0  0  0  0  0  0  0  0  0  0  0
   17.6500   25.1125    0.3377 C   0  0  0  0  0  0  0  0  0  0  0  0
   15.9624   24.4714   -2.8550 C   0  0  0  0  0  0  0  0  0  0  0  0
   15.2143   25.6822   -2.9870 N   0  0  0  0  0  0  0  0  0  0  0  0
   18.0381   22.7395   -1.7436 H   0  0  0  0  0  0  0  0  0  0  0  0
   15.2884   23.2040   -3.0850 C   0  0  0  0  0  0  0  0  0  0  0  0
   15.1761   22.6326   -4.3342 C   0  0  0  0  0  0  0  0  0  0  0  0
   15.7024   23.2672   -5.3739 F   0  0  0  0  0  0  0  0  0  0  0  0
   14.5357   21.4237   -4.5415 C   0  0  0  0  0  0  0  0  0  0  0  0
   14.0009   20.7772   -3.4908 N   0  0  0  0  0  0  0  0  0  0  0  0
   14.0648   21.2627   -2.2402 C   0  0  0  0  0  0  0  0  0  0  0  0
   14.7096   22.4740   -2.0510 C   0  0  0  0  0  0  0  0  0  0  0  0
   14.7523   22.9323   -0.7723 F   0  0  0  0  0  0  0  0  0  0  0  0
   13.5033   20.5614   -1.2088 O   0  0  0  0  0  0  0  0  0  0  0  0
   12.6025   21.0220   -0.2512 C   0  0  0  0  0  0  0  0  0  0  0  0
   12.9408   20.6877    1.1600 C   0  0  0  0  0  0  0  0  0  0  0  0
   12.6545   21.7783    2.0761 N   0  0  0  0  0  0  0  0  0  0  0  0
   12.4946   21.4822    3.0460 H   0  0  0  0  0  0  0  0  0  0  0  0
   11.6534   22.6799    1.5856 C   0  0  0  0  0  0  0  0  0  0  0  0
   12.1972   23.6625    0.5787 C   0  0  0  0  0  0  0  0  0  0  0  0
   11.1548   24.5845    0.0181 C   0  0  0  0  0  0  0  0  0  0  0  0
    9.9024   24.3935    0.5572 F   0  0  0  0  0  0  0  0  0  0  0  0
   14.1090   25.6357   -3.8014 C   0  0  0  0  0  0  0  0  0  0  0  0
   12.8737   26.3910   -3.6875 C   0  0  0  0  0  0  0  0  0  0  0  0
   11.7176   25.6145   -3.6165 F   0  0  0  0  0  0  0  0  0  0  0  0
   12.8220   26.9720   -2.3420 F   0  0  0  0  0  0  0  0  0  0  0  0
   12.5859   27.5755   -4.5308 C   0  0  0  0  0  0  0  0  0  0  0  0
   11.3209   28.0478   -4.6233 O   0  0  0  0  0  0  0  0  0  0  0  0
   11.1182   28.7350   -3.9467 H   0  0  0  0  0  0  0  0  0  0  0  0
  1  2  1  0  0  0
  2  3  1  0  0  0
  3  4  1  0  0  0
  4  5  2  0  0  0
  5  6  1  0  0  0
  6  7  1  0  0  0
  7  8  2  0  0  0
  8  9  1  0  0  0
  9 10  2  0  0  0
 10 11  1  0  0  0
 11 12  2  0  0  0
  5 13  1  0  0  0
 13 16  1  0  0  0
 16 17  2  0  0  0
 17 18  1  0  0  0
 17 19  1  0  0  0
 19 20  2  0  0  0
 20 21  1  0  0  0
 21 24  1  0  0  0
 24 25  1  0  0  0
 25 26  1  0  0  0
 26 27  1  0  0  0
 27 29  1  0  0  0
 29 30  1  0  0  0
 30 31  1  0  0  0
 31 32  1  0  0  0
 21 22  2  0  0  0
 22 23  1  0  0  0
 13 14  1  0  0  0
 14 33  1  0  0  0
 33 34  1  0  0  0
 34 35  1  0  0  0
 34 36  1  0  0  0
 34 37  1  0  0  0
 37 38  1  0  0  0
 14  2  1  0  0  0
 12  4  1  0  0  0
 22 16  1  0  0  0
 12  7  1  0  0  0
  6 15  1  0  0  0
 27 28  1  0  0  0
 38 39  1  0  0  0
M  END
> <minimizedAffinity>
15.64224

> <CNNscore>
0.4732734859

> <CNNaffinity>
7.9807252884

> <CNN_VS>
3.7770657539

> <CNNaffinity_variance>
1.0606985092

$$$$
[H]OC([H])([H])C(F)(F)C([H])([H])N1[C@]([H])(c2c(F)c([H])nc(OC([H])([H])C([H])([H])N([H])C([H])([H])C([H])([H])C([H])([H])F)c2F)c2c(c3c([H])c([H])c([H])c([H])c3n2[H])C([H])([H])[C@@]1([H])C([H])([H])[H]


 39 42  0  0  0  0  0  0  0  0999 V2000
   16.4798   24.6937   -2.8756 C   0  0  0  0  0  0  0  0  0  0  0  0
   15.2761   25.3023   -2.2077 C   0  0  0  0  0  0  0  0  0  0  0  0
   15.8661   25.7946   -0.8536 C   0  0  0  0  0  0  0  0  0  0  0  0
   16.1563   24.5619   -0.0985 C   0  0  0  0  0  0  0  0  0  0  0  0
   15.3912   23.4397   -0.2864 C   0  0  0  0  0  0  0  0  0  0  0  0
   15.9080   22.5005    0.5362 N   0  0  0  0  0  0  0  0  0  0  0  0
   16.9519   22.9697    1.2284 C   0  0  0  0  0  0  0  0  0  0  0  0
   17.8086   22.4362    2.1733 C   0  0  0  0  0  0  0  0  0  0  0  0
   18.8175   23.1996    2.7155 C   0  0  0  0  0  0  0  0  0  0  0  0
   19.0042   24.5307    2.3280 C   0  0  0  0  0  0  0  0  0  0  0  0
   18.1363   25.0340    1.3857 C   0  0  0  0  0  0  0  0  0  0  0  0
   17.1252   24.2819    0.8373 C   0  0  0  0  0  0  0  0  0  0  0  0
   14.2383   23.3634   -1.2302 C   0  0  0  0  0  0  0  0  0  0  0  0
   14.1371   24.5319   -2.0471 N   0  0  0  0  0  0  0  0  0  0  0  0
   15.5483   21.5281    0.6297 H   0  0  0  0  0  0  0  0  0  0  0  0
   13.0333   22.8358   -0.6114 C   0  0  0  0  0  0  0  0  0  0  0  0
   12.3790   21.7176   -1.0817 C   0  0  0  0  0  0  0  0  0  0  0  0
   12.8670   21.0962   -2.1478 F   0  0  0  0  0  0  0  0  0  0  0  0
   11.2346   21.2215   -0.4828 C   0  0  0  0  0  0  0  0  0  0  0  0
   10.7366   21.8481    0.5976 N   0  0  0  0  0  0  0  0  0  0  0  0
   11.3108   22.9435    1.1211 C   0  0  0  0  0  0  0  0  0  0  0  0
   12.4558   23.4263    0.5088 C   0  0  0  0  0  0  0  0  0  0  0  0
   13.0064   24.5364    1.0670 F   0  0  0  0  0  0  0  0  0  0  0  0
   10.7607   23.5396    2.2224 O   0  0  0  0  0  0  0  0  0  0  0  0
    9.4110   23.6604    2.5455 C   0  0  0  0  0  0  0  0  0  0  0  0
    9.0562   23.3239    3.9521 C   0  0  0  0  0  0  0  0  0  0  0  0
    7.6379   23.0594    4.1222 N   0  0  0  0  0  0  0  0  0  0  0  0
    7.3328   22.1496    3.7575 H   0  0  0  0  0  0  0  0  0  0  0  0
    6.8057   24.1481    3.6999 C   0  0  0  0  0  0  0  0  0  0  0  0
    6.1895   24.8934    4.8574 C   0  0  0  0  0  0  0  0  0  0  0  0
    6.2400   26.3851    4.7043 C   0  0  0  0  0  0  0  0  0  0  0  0
    7.1577   26.8128    3.7713 F   0  0  0  0  0  0  0  0  0  0  0  0
   12.9131   24.7762   -2.6208 C   0  0  0  0  0  0  0  0  0  0  0  0
   12.3746   26.0408   -3.0903 C   0  0  0  0  0  0  0  0  0  0  0  0
   10.9906   26.0604   -3.2599 F   0  0  0  0  0  0  0  0  0  0  0  0
   12.4674   27.0072   -1.9912 F   0  0  0  0  0  0  0  0  0  0  0  0
   12.9894   26.8017   -4.2040 C   0  0  0  0  0  0  0  0  0  0  0  0
   12.4687   27.9945   -4.5756 O   0  0  0  0  0  0  0  0  0  0  0  0
   12.8775   28.7554   -4.1010 H   0  0  0  0  0  0  0  0  0  0  0  0
  1  2  1  0  0  0
  2  3  1  0  0  0
  3  4  1  0  0  0
  4  5  2  0  0  0
  5  6  1  0  0  0
  6  7  1  0  0  0
  7  8  2  0  0  0
  8  9  1  0  0  0
  9 10  2  0  0  0
 10 11  1  0  0  0
 11 12  2  0  0  0
  5 13  1  0  0  0
 13 16  1  0  0  0
 16 17  2  0  0  0
 17 18  1  0  0  0
 17 19  1  0  0  0
 19 20  2  0  0  0
 20 21  1  0  0  0
 21 24  1  0  0  0
 24 25  1  0  0  0
 25 26  1  0  0  0
 26 27  1  0  0  0
 27 29  1  0  0  0
 29 30  1  0  0  0
 30 31  1  0  0  0
 31 32  1  0  0  0
 21 22  2  0  0  0
 22 23  1  0  0  0
 13 14  1  0  0  0
 14 33  1  0  0  0
 33 34  1  0  0  0
 34 35  1  0  0  0
 34 36  1  0  0  0
 34 37  1  0  0  0
 37 38  1  0  0  0
 14  2  1  0  0  0
 12  4  1  0  0  0
 22 16  1  0  0  0
 12  7  1  0  0  0
  6 15  1  0  0  0
 27 28  1  0  0  0
 38 39  1  0  0  0
M  END
> <minimizedAffinity>
9.30448

> <CNNscore>
0.4648384452

> <CNNaffinity>
7.9036955833

> <CNN_VS>
3.6739416122

> <CNNaffinity_variance>
0.9631099701

$$$$
[H]OC([H])([H])C(F)(F)C([H])([H])N1[C@]([H])(c2c(F)c([H])nc(OC([H])([H])C([H])([H])N([H])C([H])([H])C([H])([H])C([H])([H])F)c2F)c2c(c3c([H])c([H])c([H])c([H])c3n2[H])C([H])([H])[C@@]1([H])C([H])([H])[H]


 39 42  0  0  0  0  0  0  0  0999 V2000
   11.9390   26.3364   -2.3915 C   0  0  0  0  0  0  0  0  0  0  0  0
   12.4057   24.9203   -2.5975 C   0  0  0  0  0  0  0  0  0  0  0  0
   11.1881   24.0960   -2.0856 C   0  0  0  0  0  0  0  0  0  0  0  0
   11.1806   24.3016   -0.6256 C   0  0  0  0  0  0  0  0  0  0  0  0
   12.3557   24.5112    0.0491 C   0  0  0  0  0  0  0  0  0  0  0  0
   12.0121   24.6642    1.3469 N   0  0  0  0  0  0  0  0  0  0  0  0
   10.6902   24.5622    1.5239 C   0  0  0  0  0  0  0  0  0  0  0  0
    9.8489   24.6376    2.6184 C   0  0  0  0  0  0  0  0  0  0  0  0
    8.4891   24.4850    2.4693 C   0  0  0  0  0  0  0  0  0  0  0  0
    7.9219   24.2503    1.2123 C   0  0  0  0  0  0  0  0  0  0  0  0
    8.7842   24.1805    0.1417 C   0  0  0  0  0  0  0  0  0  0  0  0
   10.1434   24.3310    0.2779 C   0  0  0  0  0  0  0  0  0  0  0  0
   13.6977   24.5459   -0.6018 C   0  0  0  0  0  0  0  0  0  0  0  0
   13.6018   24.5188   -2.0277 N   0  0  0  0  0  0  0  0  0  0  0  0
   12.6828   24.8404    2.1234 H   0  0  0  0  0  0  0  0  0  0  0  0
   14.6667   23.6809    0.0509 C   0  0  0  0  0  0  0  0  0  0  0  0
   15.9049   24.1231    0.4644 C   0  0  0  0  0  0  0  0  0  0  0  0
   16.2297   25.3926    0.2555 F   0  0  0  0  0  0  0  0  0  0  0  0
   16.8185   23.2921    1.0883 C   0  0  0  0  0  0  0  0  0  0  0  0
   16.4937   22.0049    1.3020 N   0  0  0  0  0  0  0  0  0  0  0  0
   15.3093   21.4918    0.9310 C   0  0  0  0  0  0  0  0  0  0  0  0
   14.4068   22.3380    0.3079 C   0  0  0  0  0  0  0  0  0  0  0  0
   13.2206   21.7815   -0.0533 F   0  0  0  0  0  0  0  0  0  0  0  0
   15.0324   20.1746    1.1745 O   0  0  0  0  0  0  0  0  0  0  0  0
   13.7831   19.5749    1.3169 C   0  0  0  0  0  0  0  0  0  0  0  0
   12.8304   20.2845    2.2149 C   0  0  0  0  0  0  0  0  0  0  0  0
   11.4498   19.8962    1.9828 N   0  0  0  0  0  0  0  0  0  0  0  0
   11.3367   18.9467    1.6094 H   0  0  0  0  0  0  0  0  0  0  0  0
   10.6993   20.8826    1.2619 C   0  0  0  0  0  0  0  0  0  0  0  0
   10.4870   20.5109   -0.1845 C   0  0  0  0  0  0  0  0  0  0  0  0
    9.0409   20.4335   -0.5770 C   0  0  0  0  0  0  0  0  0  0  0  0
    8.8387   20.4311   -1.9389 F   0  0  0  0  0  0  0  0  0  0  0  0
   14.7221   24.1124   -2.7110 C   0  0  0  0  0  0  0  0  0  0  0  0
   15.5885   24.9004   -3.5699 C   0  0  0  0  0  0  0  0  0  0  0  0
   16.6759   24.2060   -4.0994 F   0  0  0  0  0  0  0  0  0  0  0  0
   14.8705   25.1573   -4.8225 F   0  0  0  0  0  0  0  0  0  0  0  0
   16.0417   26.2639   -3.2055 C   0  0  0  0  0  0  0  0  0  0  0  0
   17.1875   26.4302   -2.5045 O   0  0  0  0  0  0  0  0  0  0  0  0
   17.9773   26.5436   -3.0830 H   0  0  0  0  0  0  0  0  0  0  0  0
  1  2  1  0  0  0
  2  3  1  0  0  0
  3  4  1  0  0  0
  4  5  2  0  0  0
  5  6  1  0  0  0
  6  7  1  0  0  0
  7  8  2  0  0  0
  8  9  1  0  0  0
  9 10  2  0  0  0
 10 11  1  0  0  0
 11 12  2  0  0  0
  5 13  1  0  0  0
 13 16  1  0  0  0
 16 17  2  0  0  0
 17 18  1  0  0  0
 17 19  1  0  0  0
 19 20  2  0  0  0
 20 21  1  0  0  0
 21 24  1  0  0  0
 24 25  1  0  0  0
 25 26  1  0  0  0
 26 27  1  0  0  0
 27 29  1  0  0  0
 29 30  1  0  0  0
 30 31  1  0  0  0
 31 32  1  0  0  0
 21 22  2  0  0  0
 22 23  1  0  0  0
 13 14  1  0  0  0
 14 33  1  0  0  0
 33 34  1  0  0  0
 34 35  1  0  0  0
 34 36  1  0  0  0
 34 37  1  0  0  0
 37 38  1  0  0  0
 14  2  1  0  0  0
 12  4  1  0  0  0
 22 16  1  0  0  0
 12  7  1  0  0  0
  6 15  1  0  0  0
 27 28  1  0  0  0
 38 39  1  0  0  0
M  END
> <minimizedAffinity>
-2.31258

> <CNNscore>
0.4607497752

> <CNNaffinity>
7.9020919800

> <CNN_VS>
3.6408870220

> <CNNaffinity_variance>
0.4376513362

$$$$
[H]OC([H])([H])C(F)(F)C([H])([H])N1[C@]([H])(c2c(F)c([H])nc(OC([H])([H])C([H])([H])N([H])C([H])([H])C([H])([H])C([H])([H])F)c2F)c2c(c3c([H])c([H])c([H])c([H])c3n2[H])C([H])([H])[C@@]1([H])C([H])([H])[H]


 39 42  0  0  0  0  0  0  0  0999 V2000
   10.3514   24.1152   -1.9592 C   0  0  0  0  0  0  0  0  0  0  0  0
   11.1650   24.4481   -0.7375 C   0  0  0  0  0  0  0  0  0  0  0  0
   12.0295   25.6437   -1.2349 C   0  0  0  0  0  0  0  0  0  0  0  0
   12.9796   25.0491   -2.1929 C   0  0  0  0  0  0  0  0  0  0  0  0
   13.4054   23.7557   -2.0319 C   0  0  0  0  0  0  0  0  0  0  0  0
   14.2518   23.5170   -3.0578 N   0  0  0  0  0  0  0  0  0  0  0  0
   14.3807   24.5859   -3.8515 C   0  0  0  0  0  0  0  0  0  0  0  0
   15.1006   24.8613   -4.9992 C   0  0  0  0  0  0  0  0  0  0  0  0
   15.0184   26.0976   -5.5988 C   0  0  0  0  0  0  0  0  0  0  0  0
   14.2081   27.1061   -5.0667 C   0  0  0  0  0  0  0  0  0  0  0  0
   13.5034   26.8027   -3.9239 C   0  0  0  0  0  0  0  0  0  0  0  0
   13.5773   25.5723   -3.3161 C   0  0  0  0  0  0  0  0  0  0  0  0
   12.9694   22.8656   -0.9169 C   0  0  0  0  0  0  0  0  0  0  0  0
   11.9205   23.4519   -0.1429 N   0  0  0  0  0  0  0  0  0  0  0  0
   14.7487   22.6172   -3.2224 H   0  0  0  0  0  0  0  0  0  0  0  0
   14.0827   22.2376   -0.2244 C   0  0  0  0  0  0  0  0  0  0  0  0
   14.2374   20.8705   -0.1428 C   0  0  0  0  0  0  0  0  0  0  0  0
   13.3297   20.0919   -0.7177 F   0  0  0  0  0  0  0  0  0  0  0  0
   15.3032   20.2831    0.5157 C   0  0  0  0  0  0  0  0  0  0  0  0
   16.2253   21.0682    1.0998 N   0  0  0  0  0  0  0  0  0  0  0  0
   16.1513   22.4088    1.0684 C   0  0  0  0  0  0  0  0  0  0  0  0
   15.0778   22.9799    0.4049 C   0  0  0  0  0  0  0  0  0  0  0  0
   15.0376   24.3383    0.3961 F   0  0  0  0  0  0  0  0  0  0  0  0
   17.1188   23.1580    1.6796 O   0  0  0  0  0  0  0  0  0  0  0  0
   17.8450   24.2193    1.1441 C   0  0  0  0  0  0  0  0  0  0  0  0
   17.8371   24.3161   -0.3419 C   0  0  0  0  0  0  0  0  0  0  0  0
   16.9545   25.3624   -0.8285 N   0  0  0  0  0  0  0  0  0  0  0  0
   15.9641   25.2176   -0.6000 H   0  0  0  0  0  0  0  0  0  0  0  0
   17.1765   25.6934   -2.2058 C   0  0  0  0  0  0  0  0  0  0  0  0
   16.8552   27.1336   -2.5180 C   0  0  0  0  0  0  0  0  0  0  0  0
   17.7695   27.7434   -3.5395 C   0  0  0  0  0  0  0  0  0  0  0  0
   17.1054   28.3379   -4.5889 F   0  0  0  0  0  0  0  0  0  0  0  0
   11.7419   22.9555    1.1255 C   0  0  0  0  0  0  0  0  0  0  0  0
   10.9711   21.7958    1.5386 C   0  0  0  0  0  0  0  0  0  0  0  0
    9.6625   22.0733    1.9327 F   0  0  0  0  0  0  0  0  0  0  0  0
   10.6688   21.0045    0.3416 F   0  0  0  0  0  0  0  0  0  0  0  0
   11.5190   20.7596    2.4459 C   0  0  0  0  0  0  0  0  0  0  0  0
   12.3933   21.1073    3.4188 O   0  0  0  0  0  0  0  0  0  0  0  0
   11.9502   21.3279    4.2709 H   0  0  0  0  0  0  0  0  0  0  0  0
  1  2  1  0  0  0
  2  3  1  0  0  0
  3  4  1  0  0  0
  4  5  2  0  0  0
  5  6  1  0  0  0
  6  7  1  0  0  0
  7  8  2  0  0  0
  8  9  1  0  0  0
  9 10  2  0  0  0
 10 11  1  0  0  0
 11 12  2  0  0  0
  5 13  1  0  0  0
 13 16  1  0  0  0
 16 17  2  0  0  0
 17 18  1  0  0  0
 17 19  1  0  0  0
 19 20  2  0  0  0
 20 21  1  0  0  0
 21 24  1  0  0  0
 24 25  1  0  0  0
 25 26  1  0  0  0
 26 27  1  0  0  0
 27 29  1  0  0  0
 29 30  1  0  0  0
 30 31  1  0  0  0
 31 32  1  0  0  0
 21 22  2  0  0  0
 22 23  1  0  0  0
 13 14  1  0  0  0
 14 33  1  0  0  0
 33 34  1  0  0  0
 34 35  1  0  0  0
 34 36  1  0  0  0
 34 37  1  0  0  0
 37 38  1  0  0  0
 14  2  1  0  0  0
 12  4  1  0  0  0
 22 16  1  0  0  0
 12  7  1  0  0  0
  6 15  1  0  0  0
 27 28  1  0  0  0
 38 39  1  0  0  0
M  END
> <minimizedAffinity>
-5.02436

> <CNNscore>
0.4486438632

> <CNNaffinity>
8.5876684189

> <CNN_VS>
3.8528046608

> <CNNaffinity_variance>
0.5576449633

$$$$
[H]OC([H])([H])C(F)(F)C([H])([H])N1[C@]([H])(c2c(F)c([H])nc(OC([H])([H])C([H])([H])N([H])C([H])([H])C([H])([H])C([H])([H])F)c2F)c2c(c3c([H])c([H])c([H])c([H])c3n2[H])C([H])([H])[C@@]1([H])C([H])([H])[H]


 39 42  0  0  0  0  0  0  0  0999 V2000
   16.3979   24.0530   -3.4888 C   0  0  0  0  0  0  0  0  0  0  0  0
   15.3922   25.0371   -2.9544 C   0  0  0  0  0  0  0  0  0  0  0  0
   16.0619   25.5031   -1.6283 C   0  0  0  0  0  0  0  0  0  0  0  0
   15.9836   24.3329   -0.7349 C   0  0  0  0  0  0  0  0  0  0  0  0
   14.9440   23.4458   -0.8470 C   0  0  0  0  0  0  0  0  0  0  0  0
   15.1625   22.5025    0.0955 N   0  0  0  0  0  0  0  0  0  0  0  0
   16.2782   22.7478    0.7914 C   0  0  0  0  0  0  0  0  0  0  0  0
   16.9320   22.1143    1.8319 C   0  0  0  0  0  0  0  0  0  0  0  0
   18.0985   22.6330    2.3463 C   0  0  0  0  0  0  0  0  0  0  0  0
   18.6535   23.8104    1.8337 C   0  0  0  0  0  0  0  0  0  0  0  0
   17.9806   24.4184    0.7983 C   0  0  0  0  0  0  0  0  0  0  0  0
   16.8152   23.9103    0.2764 C   0  0  0  0  0  0  0  0  0  0  0  0
   13.8377   23.5767   -1.8393 C   0  0  0  0  0  0  0  0  0  0  0  0
   14.0817   24.6274   -2.7772 N   0  0  0  0  0  0  0  0  0  0  0  0
   14.5470   21.6811    0.2695 H   0  0  0  0  0  0  0  0  0  0  0  0
   12.5195   23.4696   -1.2360 C   0  0  0  0  0  0  0  0  0  0  0  0
   11.6002   22.5141   -1.6122 C   0  0  0  0  0  0  0  0  0  0  0  0
   11.9297   21.6559   -2.5691 F   0  0  0  0  0  0  0  0  0  0  0  0
   10.3493   22.4185   -1.0286 C   0  0  0  0  0  0  0  0  0  0  0  0
   10.0111   23.2861   -0.0586 N   0  0  0  0  0  0  0  0  0  0  0  0
   10.8459   24.2477    0.3682 C   0  0  0  0  0  0  0  0  0  0  0  0
   12.0940   24.3288   -0.2271 C   0  0  0  0  0  0  0  0  0  0  0  0
   12.9092   25.3151    0.2311 F   0  0  0  0  0  0  0  0  0  0  0  0
   10.4487   25.1026    1.3593 O   0  0  0  0  0  0  0  0  0  0  0  0
    9.2319   25.1203    2.0374 C   0  0  0  0  0  0  0  0  0  0  0  0
    9.3096   25.4648    3.4841 C   0  0  0  0  0  0  0  0  0  0  0  0
    8.0238   25.3615    4.1523 N   0  0  0  0  0  0  0  0  0  0  0  0
    7.6294   24.4137    4.1620 H   0  0  0  0  0  0  0  0  0  0  0  0
    7.0866   26.3618    3.7317 C   0  0  0  0  0  0  0  0  0  0  0  0
    7.7294   27.7095    3.5184 C   0  0  0  0  0  0  0  0  0  0  0  0
    6.7512   28.7903    3.1631 C   0  0  0  0  0  0  0  0  0  0  0  0
    6.9447   29.3175    1.9061 F   0  0  0  0  0  0  0  0  0  0  0  0
   12.9863   25.1265   -3.4392 C   0  0  0  0  0  0  0  0  0  0  0  0
   12.7176   26.4997   -3.8285 C   0  0  0  0  0  0  0  0  0  0  0  0
   11.3741   26.8700   -3.7778 F   0  0  0  0  0  0  0  0  0  0  0  0
   13.2197   27.3770   -2.7661 F   0  0  0  0  0  0  0  0  0  0  0  0
   13.3240   27.1176   -5.0317 C   0  0  0  0  0  0  0  0  0  0  0  0
   14.4068   26.5483   -5.6107 O   0  0  0  0  0  0  0  0  0  0  0  0
   14.1687   25.9005   -6.3142 H   0  0  0  0  0  0  0  0  0  0  0  0
  1  2  1  0  0  0
  2  3  1  0  0  0
  3  4  1  0  0  0
  4  5  2  0  0  0
  5  6  1  0  0  0
  6  7  1  0  0  0
  7  8  2  0  0  0
  8  9  1  0  0  0
  9 10  2  0  0  0
 10 11  1  0  0  0
 11 12  2  0  0  0
  5 13  1  0  0  0
 13 16  1  0  0  0
 16 17  2  0  0  0
 17 18  1  0  0  0
 17 19  1  0  0  0
 19 20  2  0  0  0
 20 21  1  0  0  0
 21 24  1  0  0  0
 24 25  1  0  0  0
 25 26  1  0  0  0
 26 27  1  0  0  0
 27 29  1  0  0  0
 29 30  1  0  0  0
 30 31  1  0  0  0
 31 32  1  0  0  0
 21 22  2  0  0  0
 22 23  1  0  0  0
 13 14  1  0  0  0
 14 33  1  0  0  0
 33 34  1  0  0  0
 34 35  1  0  0  0
 34 36  1  0  0  0
 34 37  1  0  0  0
 37 38  1  0  0  0
 14  2  1  0  0  0
 12  4  1  0  0  0
 22 16  1  0  0  0
 12  7  1  0  0  0
  6 15  1  0  0  0
 27 28  1  0  0  0
 38 39  1  0  0  0
M  END
> <minimizedAffinity>
4.23113

> <CNNscore>
0.4060917497

> <CNNaffinity>
7.8339548111

> <CNN_VS>
3.1813044548

> <CNNaffinity_variance>
0.9563042521

$$$$
[H]OC([H])([H])C(F)(F)C([H])([H])N1[C@]([H])(c2c(F)c([H])nc(OC([H])([H])C([H])([H])N([H])C([H])([H])C([H])([H])C([H])([H])F)c2F)c2c(c3c([H])c([H])c([H])c([H])c3n2[H])C([H])([H])[C@@]1([H])C([H])([H])[H]


 39 42  0  0  0  0  0  0  0  0999 V2000
   15.7625   24.4300   -3.3868 C   0  0  0  0  0  0  0  0  0  0  0  0
   14.9221   25.4503   -2.6669 C   0  0  0  0  0  0  0  0  0  0  0  0
   15.7205   25.6604   -1.3468 C   0  0  0  0  0  0  0  0  0  0  0  0
   15.5456   24.4035   -0.5963 C   0  0  0  0  0  0  0  0  0  0  0  0
   14.3972   23.6678   -0.7379 C   0  0  0  0  0  0  0  0  0  0  0  0
   14.5478   22.5928    0.0667 N   0  0  0  0  0  0  0  0  0  0  0  0
   15.7236   22.6129    0.7040 C   0  0  0  0  0  0  0  0  0  0  0  0
   16.3503   21.7787    1.6111 C   0  0  0  0  0  0  0  0  0  0  0  0
   17.6008   22.0852    2.0977 C   0  0  0  0  0  0  0  0  0  0  0  0
   18.2705   23.2440    1.6906 C   0  0  0  0  0  0  0  0  0  0  0  0
   17.6219   24.0548    0.7869 C   0  0  0  0  0  0  0  0  0  0  0  0
   16.3734   23.7595    0.2940 C   0  0  0  0  0  0  0  0  0  0  0  0
   13.2614   24.0548   -1.6244 C   0  0  0  0  0  0  0  0  0  0  0  0
   13.5826   25.1801   -2.4453 N   0  0  0  0  0  0  0  0  0  0  0  0
   13.8441   21.8349    0.1855 H   0  0  0  0  0  0  0  0  0  0  0  0
   11.9770   24.0289   -0.9441 C   0  0  0  0  0  0  0  0  0  0  0  0
   10.9014   23.3002   -1.4042 C   0  0  0  0  0  0  0  0  0  0  0  0
   11.0415   22.5936   -2.5185 F   0  0  0  0  0  0  0  0  0  0  0  0
    9.6841   23.2796   -0.7467 C   0  0  0  0  0  0  0  0  0  0  0  0
    9.5377   23.9942    0.3828 N   0  0  0  0  0  0  0  0  0  0  0  0
   10.5336   24.7317    0.9005 C   0  0  0  0  0  0  0  0  0  0  0  0
   11.7452   24.7408    0.2292 C   0  0  0  0  0  0  0  0  0  0  0  0
   12.7273   25.4994    0.7835 F   0  0  0  0  0  0  0  0  0  0  0  0
   10.3281   25.4386    2.0533 O   0  0  0  0  0  0  0  0  0  0  0  0
    9.1797   25.4762    2.8409 C   0  0  0  0  0  0  0  0  0  0  0  0
    9.2747   24.7665    4.1466 C   0  0  0  0  0  0  0  0  0  0  0  0
    8.7486   23.4136    4.0863 N   0  0  0  0  0  0  0  0  0  0  0  0
    7.8942   23.2694    4.6368 H   0  0  0  0  0  0  0  0  0  0  0  0
    9.7462   22.4090    4.3131 C   0  0  0  0  0  0  0  0  0  0  0  0
    9.2081   21.2103    5.0539 C   0  0  0  0  0  0  0  0  0  0  0  0
    7.9054   20.7041    4.5080 C   0  0  0  0  0  0  0  0  0  0  0  0
    6.8572   20.8119    5.3942 F   0  0  0  0  0  0  0  0  0  0  0  0
   12.5232   25.8861   -2.9615 C   0  0  0  0  0  0  0  0  0  0  0  0
   12.5461   26.9511   -3.9488 C   0  0  0  0  0  0  0  0  0  0  0  0
   11.2914   27.3472   -4.4112 F   0  0  0  0  0  0  0  0  0  0  0  0
   12.9219   28.1928   -3.2652 F   0  0  0  0  0  0  0  0  0  0  0  0
   13.4845   26.9510   -5.0961 C   0  0  0  0  0  0  0  0  0  0  0  0
   14.6556   27.6242   -5.0111 O   0  0  0  0  0  0  0  0  0  0  0  0
   15.3937   27.0672   -4.6703 H   0  0  0  0  0  0  0  0  0  0  0  0
  1  2  1  0  0  0
  2  3  1  0  0  0
  3  4  1  0  0  0
  4  5  2  0  0  0
  5  6  1  0  0  0
  6  7  1  0  0  0
  7  8  2  0  0  0
  8  9  1  0  0  0
  9 10  2  0  0  0
 10 11  1  0  0  0
 11 12  2  0  0  0
  5 13  1  0  0  0
 13 16  1  0  0  0
 16 17  2  0  0  0
 17 18  1  0  0  0
 17 19  1  0  0  0
 19 20  2  0  0  0
 20 21  1  0  0  0
 21 24  1  0  0  0
 24 25  1  0  0  0
 25 26  1  0  0  0
 26 27  1  0  0  0
 27 29  1  0  0  0
 29 30  1  0  0  0
 30 31  1  0  0  0
 31 32  1  0  0  0
 21 22  2  0  0  0
 22 23  1  0  0  0
 13 14  1  0  0  0
 14 33  1  0  0  0
 33 34  1  0  0  0
 34 35  1  0  0  0
 34 36  1  0  0  0
 34 37  1  0  0  0
 37 38  1  0  0  0
 14  2  1  0  0  0
 12  4  1  0  0  0
 22 16  1  0  0  0
 12  7  1  0  0  0
  6 15  1  0  0  0
 27 28  1  0  0  0
 38 39  1  0  0  0
M  END
> <minimizedAffinity>
1.82715

> <CNNscore>
0.3989724219

> <CNNaffinity>
7.7589216232

> <CNN_VS>
3.0955958366

> <CNNaffinity_variance>
0.5297454000

$$$$
[H]OC([H])([H])C(F)(F)C([H])([H])N1[C@]([H])(c2c(F)c([H])nc(OC([H])([H])C([H])([H])N([H])C([H])([H])C([H])([H])C([H])([H])F)c2F)c2c(c3c([H])c([H])c([H])c([H])c3n2[H])C([H])([H])[C@@]1([H])C([H])([H])[H]


 39 42  0  0  0  0  0  0  0  0999 V2000
   11.1508   20.2464   -2.4646 C   0  0  0  0  0  0  0  0  0  0  0  0
   12.3605   20.5060   -1.6075 C   0  0  0  0  0  0  0  0  0  0  0  0
   11.7568   20.4832   -0.1725 C   0  0  0  0  0  0  0  0  0  0  0  0
   10.9412   21.7085   -0.0871 C   0  0  0  0  0  0  0  0  0  0  0  0
   11.2970   22.8267   -0.7966 C   0  0  0  0  0  0  0  0  0  0  0  0
   10.3609   23.7577   -0.5090 N   0  0  0  0  0  0  0  0  0  0  0  0
    9.4400   23.2875    0.3395 C   0  0  0  0  0  0  0  0  0  0  0  0
    8.3077   23.8143    0.9325 C   0  0  0  0  0  0  0  0  0  0  0  0
    7.5447   23.0520    1.7877 C   0  0  0  0  0  0  0  0  0  0  0  0
    7.8914   21.7287    2.0802 C   0  0  0  0  0  0  0  0  0  0  0  0
    9.0234   21.2318    1.4751 C   0  0  0  0  0  0  0  0  0  0  0  0
    9.7932   21.9829    0.6197 C   0  0  0  0  0  0  0  0  0  0  0  0
   12.4949   22.9079   -1.6821 C   0  0  0  0  0  0  0  0  0  0  0  0
   13.1240   21.6353   -1.8493 N   0  0  0  0  0  0  0  0  0  0  0  0
   10.3458   24.7251   -0.8932 H   0  0  0  0  0  0  0  0  0  0  0  0
   13.3259   24.0683   -1.4066 C   0  0  0  0  0  0  0  0  0  0  0  0
   13.0577   24.9550   -0.3860 C   0  0  0  0  0  0  0  0  0  0  0  0
   11.9930   24.7436    0.3772 F   0  0  0  0  0  0  0  0  0  0  0  0
   13.8577   26.0546   -0.1299 C   0  0  0  0  0  0  0  0  0  0  0  0
   14.9375   26.2726   -0.9008 N   0  0  0  0  0  0  0  0  0  0  0  0
   15.2716   25.4592   -1.9159 C   0  0  0  0  0  0  0  0  0  0  0  0
   14.4597   24.3633   -2.1580 C   0  0  0  0  0  0  0  0  0  0  0  0
   14.8300   23.5652   -3.1938 F   0  0  0  0  0  0  0  0  0  0  0  0
   16.3823   25.7297   -2.6670 O   0  0  0  0  0  0  0  0  0  0  0  0
   17.3442   26.7135   -2.4487 C   0  0  0  0  0  0  0  0  0  0  0  0
   16.9164   28.1068   -2.7538 C   0  0  0  0  0  0  0  0  0  0  0  0
   18.0407   29.0034   -2.9604 N   0  0  0  0  0  0  0  0  0  0  0  0
   17.8672   29.9711   -2.6646 H   0  0  0  0  0  0  0  0  0  0  0  0
   18.6083   28.9044   -4.2734 C   0  0  0  0  0  0  0  0  0  0  0  0
   17.7529   28.0982   -5.2186 C   0  0  0  0  0  0  0  0  0  0  0  0
   16.2805   28.3103   -5.0230 C   0  0  0  0  0  0  0  0  0  0  0  0
   15.7422   29.2537   -5.8691 F   0  0  0  0  0  0  0  0  0  0  0  0
   14.4354   21.6474   -2.2583 C   0  0  0  0  0  0  0  0  0  0  0  0
   14.9666   21.4017   -3.5875 C   0  0  0  0  0  0  0  0  0  0  0  0
   15.8738   22.3587   -4.0411 F   0  0  0  0  0  0  0  0  0  0  0  0
   15.8852   20.2617   -3.5032 F   0  0  0  0  0  0  0  0  0  0  0  0
   14.1056   21.0023   -4.7261 C   0  0  0  0  0  0  0  0  0  0  0  0
   13.1871   20.0210   -4.5668 O   0  0  0  0  0  0  0  0  0  0  0  0
   12.3065   20.3627   -4.2857 H   0  0  0  0  0  0  0  0  0  0  0  0
  1  2  1  0  0  0
  2  3  1  0  0  0
  3  4  1  0  0  0
  4  5  2  0  0  0
  5  6  1  0  0  0
  6  7  1  0  0  0
  7  8  2  0  0  0
  8  9  1  0  0  0
  9 10  2  0  0  0
 10 11  1  0  0  0
 11 12  2  0  0  0
  5 13  1  0  0  0
 13 16  1  0  0  0
 16 17  2  0  0  0
 17 18  1  0  0  0
 17 19  1  0  0  0
 19 20  2  0  0  0
 20 21  1  0  0  0
 21 24  1  0  0  0
 24 25  1  0  0  0
 25 26  1  0  0  0
 26 27  1  0  0  0
 27 29  1  0  0  0
 29 30  1  0  0  0
 30 31  1  0  0  0
 31 32  1  0  0  0
 21 22  2  0  0  0
 22 23  1  0  0  0
 13 14  1  0  0  0
 14 33  1  0  0  0
 33 34  1  0  0  0
 34 35  1  0  0  0
 34 36  1  0  0  0
 34 37  1  0  0  0
 37 38  1  0  0  0
 14  2  1  0  0  0
 12  4  1  0  0  0
 22 16  1  0  0  0
 12  7  1  0  0  0
  6 15  1  0  0  0
 27 28  1  0  0  0
 38 39  1  0  0  0
M  END
> <minimizedAffinity>
9.24673

> <CNNscore>
0.3834850788

> <CNNaffinity>
7.6209955215

> <CNN_VS>
2.9225380421

> <CNNaffinity_variance>
1.6703952551

$$$$
[H]OC([H])([H])C(F)(F)C([H])([H])N1[C@]([H])(c2c(F)c([H])nc(OC([H])([H])C([H])([H])N([H])C([H])([H])C([H])([H])C([H])([H])F)c2F)c2c(c3c([H])c([H])c([H])c([H])c3n2[H])C([H])([H])[C@@]1([H])C([H])([H])[H]


 39 42  0  0  0  0  0  0  0  0999 V2000
   10.8631   25.3289   -2.5219 C   0  0  0  0  0  0  0  0  0  0  0  0
   11.7096   25.6146   -1.3107 C   0  0  0  0  0  0  0  0  0  0  0  0
   12.9129   26.3874   -1.9262 C   0  0  0  0  0  0  0  0  0  0  0  0
   13.6561   25.3749   -2.6983 C   0  0  0  0  0  0  0  0  0  0  0  0
   13.6577   24.0636   -2.2973 C   0  0  0  0  0  0  0  0  0  0  0  0
   14.4139   23.4036   -3.2019 N   0  0  0  0  0  0  0  0  0  0  0  0
   14.8860   24.2255   -4.1457 C   0  0  0  0  0  0  0  0  0  0  0  0
   15.6836   24.0635   -5.2632 C   0  0  0  0  0  0  0  0  0  0  0  0
   16.0018   25.1401   -6.0596 C   0  0  0  0  0  0  0  0  0  0  0  0
   15.5297   26.4230   -5.7627 C   0  0  0  0  0  0  0  0  0  0  0  0
   14.7380   26.5533   -4.6443 C   0  0  0  0  0  0  0  0  0  0  0  0
   14.4136   25.4861   -3.8414 C   0  0  0  0  0  0  0  0  0  0  0  0
   12.9411   23.5585   -1.0903 C   0  0  0  0  0  0  0  0  0  0  0  0
   12.1058   24.5603   -0.5055 N   0  0  0  0  0  0  0  0  0  0  0  0
   14.6126   22.3819   -3.1795 H   0  0  0  0  0  0  0  0  0  0  0  0
   13.7888   22.7595   -0.2207 C   0  0  0  0  0  0  0  0  0  0  0  0
   15.0975   23.0902    0.0577 C   0  0  0  0  0  0  0  0  0  0  0  0
   15.6088   24.1833   -0.4940 F   0  0  0  0  0  0  0  0  0  0  0  0
   15.8947   22.3245    0.8901 C   0  0  0  0  0  0  0  0  0  0  0  0
   15.3807   21.2160    1.4512 N   0  0  0  0  0  0  0  0  0  0  0  0
   14.1157   20.8209    1.2336 C   0  0  0  0  0  0  0  0  0  0  0  0
   13.3320   21.5993    0.3977 C   0  0  0  0  0  0  0  0  0  0  0  0
   12.0588   21.1662    0.2016 F   0  0  0  0  0  0  0  0  0  0  0  0
   13.6456   19.6843    1.8318 O   0  0  0  0  0  0  0  0  0  0  0  0
   12.3851   19.4661    2.3834 C   0  0  0  0  0  0  0  0  0  0  0  0
   11.9764   20.4250    3.4469 C   0  0  0  0  0  0  0  0  0  0  0  0
   10.6967   20.0842    4.0442 N   0  0  0  0  0  0  0  0  0  0  0  0
    9.8875   20.2710    3.4406 H   0  0  0  0  0  0  0  0  0  0  0  0
   10.5412   20.5933    5.3755 C   0  0  0  0  0  0  0  0  0  0  0  0
    9.7994   21.9061    5.4143 C   0  0  0  0  0  0  0  0  0  0  0  0
    8.5920   21.9384    4.5243 C   0  0  0  0  0  0  0  0  0  0  0  0
    8.2923   23.1946    4.0470 F   0  0  0  0  0  0  0  0  0  0  0  0
   11.7516   24.3743    0.8087 C   0  0  0  0  0  0  0  0  0  0  0  0
   10.5050   23.8521    1.3403 C   0  0  0  0  0  0  0  0  0  0  0  0
   10.6523   22.8841    2.3333 F   0  0  0  0  0  0  0  0  0  0  0  0
    9.8874   24.9017    2.1572 F   0  0  0  0  0  0  0  0  0  0  0  0
    9.3742   23.4540    0.4686 C   0  0  0  0  0  0  0  0  0  0  0  0
    8.8901   22.1913    0.5244 O   0  0  0  0  0  0  0  0  0  0  0  0
    8.1570   22.0906    1.1752 H   0  0  0  0  0  0  0  0  0  0  0  0
  1  2  1  0  0  0
  2  3  1  0  0  0
  3  4  1  0  0  0
  4  5  2  0  0  0
  5  6  1  0  0  0
  6  7  1  0  0  0
  7  8  2  0  0  0
  8  9  1  0  0  0
  9 10  2  0  0  0
 10 11  1  0  0  0
 11 12  2  0  0  0
  5 13  1  0  0  0
 13 16  1  0  0  0
 16 17  2  0  0  0
 17 18  1  0  0  0
 17 19  1  0  0  0
 19 20  2  0  0  0
 20 21  1  0  0  0
 21 24  1  0  0  0
 24 25  1  0  0  0
 25 26  1  0  0  0
 26 27  1  0  0  0
 27 29  1  0  0  0
 29 30  1  0  0  0
 30 31  1  0  0  0
 31 32  1  0  0  0
 21 22  2  0  0  0
 22 23  1  0  0  0
 13 14  1  0  0  0
 14 33  1  0  0  0
 33 34  1  0  0  0
 34 35  1  0  0  0
 34 36  1  0  0  0
 34 37  1  0  0  0
 37 38  1  0  0  0
 14  2  1  0  0  0
 12  4  1  0  0  0
 22 16  1  0  0  0
 12  7  1  0  0  0
  6 15  1  0  0  0
 27 28  1  0  0  0
 38 39  1  0  0  0
M  END
> <minimizedAffinity>
-2.99193

> <CNNscore>
0.3598187566

> <CNNaffinity>
7.6143698692

> <CNN_VS>
2.7397930622

> <CNNaffinity_variance>
0.2144967765

$$$$
[H]c1c([H])c(C([H])(C(=O)N([H])C([H])([H])c2c([H])c([H])c(C(F)(F)F)c([H])c2C2([H])C([H])([H])C([H])([H])C([H])([H])C([H])([H])C2([H])[H])C([H])([H])[H])c([H])c(F)c1N([H])S(=O)(=O)C([H])([H])[H]


 36 38  0  0  0  0  0  0  0  0999 V2000
   13.8350   24.6110    0.5877 C   0  0  0  0  0  0  0  0  0  0  0  0
   13.7194   24.3180    1.6360 O   0  0  0  0  0  0  0  0  0  0  0  0
   14.4689   24.5013   -0.6558 N   0  0  0  0  0  0  0  0  0  0  0  0
   15.2570   23.4513   -0.1604 H   0  0  0  0  0  0  0  0  0  0  0  0
   11.6953   24.6722   -0.2968 C   0  0  0  0  0  0  0  0  0  0  0  0
   12.7961   25.7352   -0.0707 C   0  0  0  0  0  0  0  0  0  0  0  0
   13.3104   26.1741   -1.3182 C   0  0  0  0  0  0  0  0  0  0  0  0
   14.6068   26.3891   -1.5604 C   0  0  0  0  0  0  0  0  0  0  0  0
   15.1161   26.6742   -2.7540 C   0  0  0  0  0  0  0  0  0  0  0  0
   14.2039   26.7921   -3.8807 C   0  0  0  0  0  0  0  0  0  0  0  0
   12.9331   26.5982   -3.6382 C   0  0  0  0  0  0  0  0  0  0  0  0
   12.0483   26.8342   -4.7008 F   0  0  0  0  0  0  0  0  0  0  0  0
   12.3744   26.2745   -2.4201 C   0  0  0  0  0  0  0  0  0  0  0  0
   14.9561   26.8194   -5.0709 N   0  0  0  0  0  0  0  0  0  0  0  0
   14.5603   26.0143   -5.7711 H   0  0  0  0  0  0  0  0  0  0  0  0
   16.1427   27.7786   -5.6898 S   0  0  0  0  0  0  0  0  0  0  0  0
   17.6249   27.6975   -4.6795 C   0  0  0  0  0  0  0  0  0  0  0  0
   15.6589   29.1436   -5.9830 O   0  0  0  0  0  0  0  0  0  0  0  0
   16.5861   27.1189   -7.0367 O   0  0  0  0  0  0  0  0  0  0  0  0
   15.0398   24.3981   -1.7630 C   0  0  0  0  0  0  0  0  0  0  0  0
   15.2516   23.2392   -2.6677 C   0  0  0  0  0  0  0  0  0  0  0  0
   15.8583   23.2147   -3.8963 C   0  0  0  0  0  0  0  0  0  0  0  0
   15.5765   22.1907   -4.8545 C   0  0  0  0  0  0  0  0  0  0  0  0
   14.7039   21.2687   -4.4984 C   0  0  0  0  0  0  0  0  0  0  0  0
   14.0655   21.2754   -3.2654 C   0  0  0  0  0  0  0  0  0  0  0  0
   14.3204   22.2100   -2.3730 C   0  0  0  0  0  0  0  0  0  0  0  0
   13.9160   22.2766   -0.9304 C   0  0  0  0  0  0  0  0  0  0  0  0
   14.6694   21.1876   -0.1352 C   0  0  0  0  0  0  0  0  0  0  0  0
   14.3552   19.7987   -0.4549 C   0  0  0  0  0  0  0  0  0  0  0  0
   12.8723   19.5277   -0.3670 C   0  0  0  0  0  0  0  0  0  0  0  0
   12.1143   20.7670    0.0366 C   0  0  0  0  0  0  0  0  0  0  0  0
   12.4369   22.0005   -0.7412 C   0  0  0  0  0  0  0  0  0  0  0  0
   14.0889   20.3293   -5.5625 C   0  0  0  0  0  0  0  0  0  0  0  0
   13.5385   20.8843   -6.5849 F   0  0  0  0  0  0  0  0  0  0  0  0
   13.2828   19.4483   -4.8767 F   0  0  0  0  0  0  0  0  0  0  0  0
   15.1851   19.5165   -5.9893 F   0  0  0  0  0  0  0  0  0  0  0  0
  5  6  1  0  0  0
  6  1  1  0  0  0
  1  2  2  0  0  0
  1  3  1  0  0  0
  3 20  1  0  0  0
 20 21  1  0  0  0
 21 22  2  0  0  0
 22 23  1  0  0  0
 23 24  2  0  0  0
 24 33  1  0  0  0
 33 34  1  0  0  0
 33 35  1  0  0  0
 33 36  1  0  0  0
 24 25  1  0  0  0
 25 26  2  0  0  0
 26 27  1  0  0  0
 27 28  1  0  0  0
 28 29  1  0  0  0
 29 30  1  0  0  0
 30 31  1  0  0  0
 31 32  1  0  0  0
  6  7  1  0  0  0
  7  8  2  0  0  0
  8  9  1  0  0  0
  9 10  2  0  0  0
 10 14  1  0  0  0
 14 16  1  0  0  0
 16 17  1  0  0  0
 16 18  2  0  0  0
 16 19  2  0  0  0
 10 11  1  0  0  0
 11 12  1  0  0  0
 11 13  2  0  0  0
 26 21  1  0  0  0
 32 27  1  0  0  0
 13  7  1  0  0  0
  3  4  1  0  0  0
 14 15  1  0  0  0
M  END
> <minimizedAffinity>
7.28544

> <CNNscore>
0.6908710599

> <CNNaffinity>
7.9744324684

> <CNN_VS>
5.5093045235

> <CNNaffinity_variance>
1.0121876001

$$$$
[H]c1c([H])c(C([H])(C(=O)N([H])C([H])([H])c2c([H])c([H])c(C(F)(F)F)c([H])c2C2([H])C([H])([H])C([H])([H])C([H])([H])C([H])([H])C2([H])[H])C([H])([H])[H])c([H])c(F)c1N([H])S(=O)(=O)C([H])([H])[H]


 36 38  0  0  0  0  0  0  0  0999 V2000
   13.6227   23.8765    0.5793 C   0  0  0  0  0  0  0  0  0  0  0  0
   14.6430   24.2461    0.7228 O   0  0  0  0  0  0  0  0  0  0  0  0
   12.3084   23.6930    1.0256 N   0  0  0  0  0  0  0  0  0  0  0  0
   12.6008   24.4270    2.1853 H   0  0  0  0  0  0  0  0  0  0  0  0
   14.3785   22.1475   -0.7637 C   0  0  0  0  0  0  0  0  0  0  0  0
   13.2062   23.1520   -0.8624 C   0  0  0  0  0  0  0  0  0  0  0  0
   13.4350   24.0618   -1.9269 C   0  0  0  0  0  0  0  0  0  0  0  0
   12.7843   25.2192   -2.0764 C   0  0  0  0  0  0  0  0  0  0  0  0
   13.0756   26.1380   -2.9908 C   0  0  0  0  0  0  0  0  0  0  0  0
   14.1600   25.8636   -3.9205 C   0  0  0  0  0  0  0  0  0  0  0  0
   14.7846   24.7224   -3.7834 C   0  0  0  0  0  0  0  0  0  0  0  0
   15.7446   24.4115   -4.7578 F   0  0  0  0  0  0  0  0  0  0  0  0
   14.5271   23.7599   -2.8306 C   0  0  0  0  0  0  0  0  0  0  0  0
   14.4797   27.0514   -4.6061 N   0  0  0  0  0  0  0  0  0  0  0  0
   13.5338   27.6741   -4.7177 H   0  0  0  0  0  0  0  0  0  0  0  0
   15.8632   27.7566   -5.1537 S   0  0  0  0  0  0  0  0  0  0  0  0
   17.2048   27.5320   -3.9815 C   0  0  0  0  0  0  0  0  0  0  0  0
   15.6420   29.1502   -5.5922 O   0  0  0  0  0  0  0  0  0  0  0  0
   16.3229   26.9225   -6.3942 O   0  0  0  0  0  0  0  0  0  0  0  0
   11.1369   23.5326    1.4309 C   0  0  0  0  0  0  0  0  0  0  0  0
   10.1333   22.4680    1.1739 C   0  0  0  0  0  0  0  0  0  0  0  0
    9.4419   22.2071    0.0197 C   0  0  0  0  0  0  0  0  0  0  0  0
    8.1946   21.5072    0.0317 C   0  0  0  0  0  0  0  0  0  0  0  0
    7.7408   21.1232    1.2086 C   0  0  0  0  0  0  0  0  0  0  0  0
    8.4141   21.3843    2.3945 C   0  0  0  0  0  0  0  0  0  0  0  0
    9.5657   22.0234    2.3959 C   0  0  0  0  0  0  0  0  0  0  0  0
   10.5433   22.2098    3.5178 C   0  0  0  0  0  0  0  0  0  0  0  0
   11.7079   21.2081    3.3558 C   0  0  0  0  0  0  0  0  0  0  0  0
   11.3854   19.7913    3.4920 C   0  0  0  0  0  0  0  0  0  0  0  0
   10.6729   19.5037    4.7920 C   0  0  0  0  0  0  0  0  0  0  0  0
   10.4935   20.7606    5.6053 C   0  0  0  0  0  0  0  0  0  0  0  0
    9.9179   21.9262    4.8699 C   0  0  0  0  0  0  0  0  0  0  0  0
    6.2707   20.6672    1.3630 C   0  0  0  0  0  0  0  0  0  0  0  0
    6.0518   19.3993    1.3965 F   0  0  0  0  0  0  0  0  0  0  0  0
    5.5534   21.3547    0.4096 F   0  0  0  0  0  0  0  0  0  0  0  0
    5.8462   21.2603    2.5929 F   0  0  0  0  0  0  0  0  0  0  0  0
  5  6  1  0  0  0
  6  1  1  0  0  0
  1  2  2  0  0  0
  1  3  1  0  0  0
  3 20  1  0  0  0
 20 21  1  0  0  0
 21 22  2  0  0  0
 22 23  1  0  0  0
 23 24  2  0  0  0
 24 33  1  0  0  0
 33 34  1  0  0  0
 33 35  1  0  0  0
 33 36  1  0  0  0
 24 25  1  0  0  0
 25 26  2  0  0  0
 26 27  1  0  0  0
 27 28  1  0  0  0
 28 29  1  0  0  0
 29 30  1  0  0  0
 30 31  1  0  0  0
 31 32  1  0  0  0
  6  7  1  0  0  0
  7  8  2  0  0  0
  8  9  1  0  0  0
  9 10  2  0  0  0
 10 14  1  0  0  0
 14 16  1  0  0  0
 16 17  1  0  0  0
 16 18  2  0  0  0
 16 19  2  0  0  0
 10 11  1  0  0  0
 11 12  1  0  0  0
 11 13  2  0  0  0
 26 21  1  0  0  0
 32 27  1  0  0  0
 13  7  1  0  0  0
  3  4  1  0  0  0
 14 15  1  0  0  0
M  END
> <minimizedAffinity>
-8.64786

> <CNNscore>
0.6427885294

> <CNNaffinity>
7.6466856003

> <CNN_VS>
4.9152016640

> <CNNaffinity_variance>
0.1357626170

$$$$
[H]c1c([H])c(C([H])(C(=O)N([H])C([H])([H])c2c([H])c([H])c(C(F)(F)F)c([H])c2C2([H])C([H])([H])C([H])([H])C([H])([H])C([H])([H])C2([H])[H])C([H])([H])[H])c([H])c(F)c1N([H])S(=O)(=O)C([H])([H])[H]


 36 38  0  0  0  0  0  0  0  0999 V2000
   14.0256   24.4823    0.3890 C   0  0  0  0  0  0  0  0  0  0  0  0
   13.7825   24.3042    1.4414 O   0  0  0  0  0  0  0  0  0  0  0  0
   14.6075   24.0864   -0.8214 N   0  0  0  0  0  0  0  0  0  0  0  0
   14.9404   22.8466   -0.2547 H   0  0  0  0  0  0  0  0  0  0  0  0
   12.0482   25.3294   -0.4693 C   0  0  0  0  0  0  0  0  0  0  0  0
   13.4912   25.8748   -0.3538 C   0  0  0  0  0  0  0  0  0  0  0  0
   14.0774   25.9729   -1.6422 C   0  0  0  0  0  0  0  0  0  0  0  0
   13.3988   25.8448   -2.7860 C   0  0  0  0  0  0  0  0  0  0  0  0
   13.9061   26.0611   -3.9948 C   0  0  0  0  0  0  0  0  0  0  0  0
   15.3076   26.4367   -4.0954 C   0  0  0  0  0  0  0  0  0  0  0  0
   15.9748   26.5449   -2.9754 C   0  0  0  0  0  0  0  0  0  0  0  0
   17.3522   26.7859   -3.0863 F   0  0  0  0  0  0  0  0  0  0  0  0
   15.4741   26.3549   -1.7050 C   0  0  0  0  0  0  0  0  0  0  0  0
   15.5640   26.8810   -5.4069 N   0  0  0  0  0  0  0  0  0  0  0  0
   15.9754   27.9409   -5.3591 H   0  0  0  0  0  0  0  0  0  0  0  0
   15.5118   26.2061   -6.9079 S   0  0  0  0  0  0  0  0  0  0  0  0
   13.9228   26.5030   -7.6895 C   0  0  0  0  0  0  0  0  0  0  0  0
   15.9515   24.7955   -6.8996 O   0  0  0  0  0  0  0  0  0  0  0  0
   16.5092   27.0223   -7.7939 O   0  0  0  0  0  0  0  0  0  0  0  0
   15.1295   23.7264   -1.8985 C   0  0  0  0  0  0  0  0  0  0  0  0
   15.0389   22.4623   -2.6732 C   0  0  0  0  0  0  0  0  0  0  0  0
   15.6888   22.1217   -3.8307 C   0  0  0  0  0  0  0  0  0  0  0  0
   15.1732   21.1251   -4.7178 C   0  0  0  0  0  0  0  0  0  0  0  0
   14.0408   20.5476   -4.3679 C   0  0  0  0  0  0  0  0  0  0  0  0
   13.3551   20.8812   -3.2076 C   0  0  0  0  0  0  0  0  0  0  0  0
   13.8222   21.7936   -2.3804 C   0  0  0  0  0  0  0  0  0  0  0  0
   13.3634   22.1386   -0.9949 C   0  0  0  0  0  0  0  0  0  0  0  0
   13.6276   20.9427   -0.0538 C   0  0  0  0  0  0  0  0  0  0  0  0
   12.8706   19.7211   -0.3081 C   0  0  0  0  0  0  0  0  0  0  0  0
   11.3845   19.9851   -0.3548 C   0  0  0  0  0  0  0  0  0  0  0  0
   11.0818   21.4429   -0.1170 C   0  0  0  0  0  0  0  0  0  0  0  0
   11.8717   22.4067   -0.9403 C   0  0  0  0  0  0  0  0  0  0  0  0
   13.2411   19.7175   -5.3997 C   0  0  0  0  0  0  0  0  0  0  0  0
   12.0189   20.0632   -5.6075 F   0  0  0  0  0  0  0  0  0  0  0  0
   13.4193   18.3974   -5.0511 F   0  0  0  0  0  0  0  0  0  0  0  0
   13.9895   19.8474   -6.6111 F   0  0  0  0  0  0  0  0  0  0  0  0
  5  6  1  0  0  0
  6  1  1  0  0  0
  1  2  2  0  0  0
  1  3  1  0  0  0
  3 20  1  0  0  0
 20 21  1  0  0  0
 21 22  2  0  0  0
 22 23  1  0  0  0
 23 24  2  0  0  0
 24 33  1  0  0  0
 33 34  1  0  0  0
 33 35  1  0  0  0
 33 36  1  0  0  0
 24 25  1  0  0  0
 25 26  2  0  0  0
 26 27  1  0  0  0
 27 28  1  0  0  0
 28 29  1  0  0  0
 29 30  1  0  0  0
 30 31  1  0  0  0
 31 32  1  0  0  0
  6  7  1  0  0  0
  7  8  2  0  0  0
  8  9  1  0  0  0
  9 10  2  0  0  0
 10 14  1  0  0  0
 14 16  1  0  0  0
 16 17  1  0  0  0
 16 18  2  0  0  0
 16 19  2  0  0  0
 10 11  1  0  0  0
 11 12  1  0  0  0
 11 13  2  0  0  0
 26 21  1  0  0  0
 32 27  1  0  0  0
 13  7  1  0  0  0
  3  4  1  0  0  0
 14 15  1  0  0  0
M  END
> <minimizedAffinity>
10.46289

> <CNNscore>
0.6338506341

> <CNNaffinity>
7.7811861038

> <CNN_VS>
4.9321098328

> <CNNaffinity_variance>
0.9076308012

$$$$
[H]c1c([H])c(C([H])(C(=O)N([H])C([H])([H])c2c([H])c([H])c(C(F)(F)F)c([H])c2C2([H])C([H])([H])C([H])([H])C([H])([H])C([H])([H])C2([H])[H])C([H])([H])[H])c([H])c(F)c1N([H])S(=O)(=O)C([H])([H])[H]


 36 38  0  0  0  0  0  0  0  0999 V2000
   13.8619   22.8942    0.4356 C   0  0  0  0  0  0  0  0  0  0  0  0
   14.9264   23.0095    0.6636 O   0  0  0  0  0  0  0  0  0  0  0  0
   12.5117   22.9892    0.7934 N   0  0  0  0  0  0  0  0  0  0  0  0
   12.8783   23.5604    2.0216 H   0  0  0  0  0  0  0  0  0  0  0  0
   14.1699   21.0474   -0.9277 C   0  0  0  0  0  0  0  0  0  0  0  0
   13.3970   22.3788   -1.0792 C   0  0  0  0  0  0  0  0  0  0  0  0
   14.0190   23.1918   -2.0618 C   0  0  0  0  0  0  0  0  0  0  0  0
   14.9446   22.7540   -2.9203 C   0  0  0  0  0  0  0  0  0  0  0  0
   15.4404   23.4664   -3.9262 C   0  0  0  0  0  0  0  0  0  0  0  0
   14.9716   24.8325   -4.0984 C   0  0  0  0  0  0  0  0  0  0  0  0
   14.0781   25.2650   -3.2464 C   0  0  0  0  0  0  0  0  0  0  0  0
   13.7228   26.6186   -3.3426 F   0  0  0  0  0  0  0  0  0  0  0  0
   13.5227   24.5454   -2.2098 C   0  0  0  0  0  0  0  0  0  0  0  0
   15.4005   25.3032   -5.3544 N   0  0  0  0  0  0  0  0  0  0  0  0
   15.8339   24.4306   -5.9424 H   0  0  0  0  0  0  0  0  0  0  0  0
   15.3168   26.7341   -6.1646 S   0  0  0  0  0  0  0  0  0  0  0  0
   16.2053   28.0224   -5.2843 C   0  0  0  0  0  0  0  0  0  0  0  0
   13.9312   27.0778   -6.5459 O   0  0  0  0  0  0  0  0  0  0  0  0
   16.1511   26.5493   -7.4745 O   0  0  0  0  0  0  0  0  0  0  0  0
   11.3083   23.0765    1.1200 C   0  0  0  0  0  0  0  0  0  0  0  0
   10.1637   22.1441    0.9554 C   0  0  0  0  0  0  0  0  0  0  0  0
   10.0751   21.0333    0.1577 C   0  0  0  0  0  0  0  0  0  0  0  0
    8.8139   20.5205   -0.2809 C   0  0  0  0  0  0  0  0  0  0  0  0
    7.7380   21.1682    0.1205 C   0  0  0  0  0  0  0  0  0  0  0  0
    7.7986   22.3026    0.9188 C   0  0  0  0  0  0  0  0  0  0  0  0
    8.9536   22.7814    1.3330 C   0  0  0  0  0  0  0  0  0  0  0  0
    9.2257   23.8407    2.3592 C   0  0  0  0  0  0  0  0  0  0  0  0
    9.3419   23.1868    3.7537 C   0  0  0  0  0  0  0  0  0  0  0  0
    8.1368   22.5678    4.2965 C   0  0  0  0  0  0  0  0  0  0  0  0
    6.9714   23.5282    4.3045 C   0  0  0  0  0  0  0  0  0  0  0  0
    7.3704   24.8746    3.7554 C   0  0  0  0  0  0  0  0  0  0  0  0
    8.0956   24.8479    2.4500 C   0  0  0  0  0  0  0  0  0  0  0  0
    6.3733   20.9027   -0.5581 C   0  0  0  0  0  0  0  0  0  0  0  0
    5.5912   21.9128   -0.7142 F   0  0  0  0  0  0  0  0  0  0  0  0
    5.8152   19.8342    0.1075 F   0  0  0  0  0  0  0  0  0  0  0  0
    6.7160   20.3588   -1.8353 F   0  0  0  0  0  0  0  0  0  0  0  0
  5  6  1  0  0  0
  6  1  1  0  0  0
  1  2  2  0  0  0
  1  3  1  0  0  0
  3 20  1  0  0  0
 20 21  1  0  0  0
 21 22  2  0  0  0
 22 23  1  0  0  0
 23 24  2  0  0  0
 24 33  1  0  0  0
 33 34  1  0  0  0
 33 35  1  0  0  0
 33 36  1  0  0  0
 24 25  1  0  0  0
 25 26  2  0  0  0
 26 27  1  0  0  0
 27 28  1  0  0  0
 28 29  1  0  0  0
 29 30  1  0  0  0
 30 31  1  0  0  0
 31 32  1  0  0  0
  6  7  1  0  0  0
  7  8  2  0  0  0
  8  9  1  0  0  0
  9 10  2  0  0  0
 10 14  1  0  0  0
 14 16  1  0  0  0
 16 17  1  0  0  0
 16 18  2  0  0  0
 16 19  2  0  0  0
 10 11  1  0  0  0
 11 12  1  0  0  0
 11 13  2  0  0  0
 26 21  1  0  0  0
 32 27  1  0  0  0
 13  7  1  0  0  0
  3  4  1  0  0  0
 14 15  1  0  0  0
M  END
> <minimizedAffinity>
-9.37413

> <CNNscore>
0.5644431710

> <CNNaffinity>
7.6985597610

> <CNN_VS>
4.3453993797

> <CNNaffinity_variance>
0.2531254888

$$$$
[H]c1c([H])c(C([H])(C(=O)N([H])C([H])([H])c2c([H])c([H])c(C(F)(F)F)c([H])c2C2([H])C([H])([H])C([H])([H])C([H])([H])C([H])([H])C2([H])[H])C([H])([H])[H])c([H])c(F)c1N([H])S(=O)(=O)C([H])([H])[H]


 36 38  0  0  0  0  0  0  0  0999 V2000
   18.3461   27.4094   -2.9946 C   0  0  0  0  0  0  0  0  0  0  0  0
   19.4129   27.5190   -2.7748 O   0  0  0  0  0  0  0  0  0  0  0  0
   17.1680   26.6533   -3.0178 N   0  0  0  0  0  0  0  0  0  0  0  0
   17.8366   25.5939   -2.3857 H   0  0  0  0  0  0  0  0  0  0  0  0
   16.7760   28.9325   -2.2336 C   0  0  0  0  0  0  0  0  0  0  0  0
   17.4912   28.7111   -3.5873 C   0  0  0  0  0  0  0  0  0  0  0  0
   16.5616   28.2576   -4.5587 C   0  0  0  0  0  0  0  0  0  0  0  0
   16.8728   28.0060   -5.8336 C   0  0  0  0  0  0  0  0  0  0  0  0
   16.0473   27.4602   -6.7201 C   0  0  0  0  0  0  0  0  0  0  0  0
   14.6956   27.1354   -6.2923 C   0  0  0  0  0  0  0  0  0  0  0  0
   14.3876   27.3984   -5.0484 C   0  0  0  0  0  0  0  0  0  0  0  0
   13.0497   27.1977   -4.6773 F   0  0  0  0  0  0  0  0  0  0  0  0
   15.2259   27.9379   -4.0961 C   0  0  0  0  0  0  0  0  0  0  0  0
   14.0906   26.3303   -7.2766 N   0  0  0  0  0  0  0  0  0  0  0  0
   13.0871   26.7882   -7.5563 H   0  0  0  0  0  0  0  0  0  0  0  0
   14.5359   25.0072   -8.1498 S   0  0  0  0  0  0  0  0  0  0  0  0
   16.0750   25.3051   -9.0253 C   0  0  0  0  0  0  0  0  0  0  0  0
   13.4304   24.4931   -8.9845 O   0  0  0  0  0  0  0  0  0  0  0  0
   14.9179   23.9014   -7.1119 O   0  0  0  0  0  0  0  0  0  0  0  0
   16.1201   25.9721   -3.0357 C   0  0  0  0  0  0  0  0  0  0  0  0
   15.8782   24.5162   -2.8672 C   0  0  0  0  0  0  0  0  0  0  0  0
   15.7167   23.5598   -3.8353 C   0  0  0  0  0  0  0  0  0  0  0  0
   15.0244   22.3354   -3.5754 C   0  0  0  0  0  0  0  0  0  0  0  0
   14.5486   22.1698   -2.3570 C   0  0  0  0  0  0  0  0  0  0  0  0
   14.6871   23.1265   -1.3604 C   0  0  0  0  0  0  0  0  0  0  0  0
   15.3267   24.2556   -1.5861 C   0  0  0  0  0  0  0  0  0  0  0  0
   15.7713   25.3031   -0.6093 C   0  0  0  0  0  0  0  0  0  0  0  0
   17.2857   25.1503   -0.3465 C   0  0  0  0  0  0  0  0  0  0  0  0
   17.7204   23.9307    0.3269 C   0  0  0  0  0  0  0  0  0  0  0  0
   16.9769   23.7136    1.6231 C   0  0  0  0  0  0  0  0  0  0  0  0
   15.9884   24.8234    1.8773 C   0  0  0  0  0  0  0  0  0  0  0  0
   15.0851   25.1547    0.7350 C   0  0  0  0  0  0  0  0  0  0  0  0
   13.5145   21.0550   -2.0720 C   0  0  0  0  0  0  0  0  0  0  0  0
   12.3169   21.4278   -1.7838 F   0  0  0  0  0  0  0  0  0  0  0  0
   14.0989   20.2164   -1.1492 F   0  0  0  0  0  0  0  0  0  0  0  0
   13.4995   20.2750   -3.2703 F   0  0  0  0  0  0  0  0  0  0  0  0
  5  6  1  0  0  0
  6  1  1  0  0  0
  1  2  2  0  0  0
  1  3  1  0  0  0
  3 20  1  0  0  0
 20 21  1  0  0  0
 21 22  2  0  0  0
 22 23  1  0  0  0
 23 24  2  0  0  0
 24 33  1  0  0  0
 33 34  1  0  0  0
 33 35  1  0  0  0
 33 36  1  0  0  0
 24 25  1  0  0  0
 25 26  2  0  0  0
 26 27  1  0  0  0
 27 28  1  0  0  0
 28 29  1  0  0  0
 29 30  1  0  0  0
 30 31  1  0  0  0
 31 32  1  0  0  0
  6  7  1  0  0  0
  7  8  2  0  0  0
  8  9  1  0  0  0
  9 10  2  0  0  0
 10 14  1  0  0  0
 14 16  1  0  0  0
 16 17  1  0  0  0
 16 18  2  0  0  0
 16 19  2  0  0  0
 10 11  1  0  0  0
 11 12  1  0  0  0
 11 13  2  0  0  0
 26 21  1  0  0  0
 32 27  1  0  0  0
 13  7  1  0  0  0
  3  4  1  0  0  0
 14 15  1  0  0  0
M  END
> <minimizedAffinity>
14.99551

> <CNNscore>
0.5350239873

> <CNNaffinity>
7.3272018433

> <CNN_VS>
3.9202287197

> <CNNaffinity_variance>
1.0530120134

$$$$
[H]c1c([H])c(C([H])(C(=O)N([H])C([H])([H])c2c([H])c([H])c(C(F)(F)F)c([H])c2C2([H])C([H])([H])C([H])([H])C([H])([H])C([H])([H])C2([H])[H])C([H])([H])[H])c([H])c(F)c1N([H])S(=O)(=O)C([H])([H])[H]


 36 38  0  0  0  0  0  0  0  0999 V2000
   13.5312   23.0827    0.5426 C   0  0  0  0  0  0  0  0  0  0  0  0
   14.5404   23.4792    0.6923 O   0  0  0  0  0  0  0  0  0  0  0  0
   12.2634   22.7361    1.0251 N   0  0  0  0  0  0  0  0  0  0  0  0
   12.6044   23.2482    2.2862 H   0  0  0  0  0  0  0  0  0  0  0  0
   14.0964   21.4932   -1.0444 C   0  0  0  0  0  0  0  0  0  0  0  0
   13.0455   22.6268   -0.9848 C   0  0  0  0  0  0  0  0  0  0  0  0
   13.3826   23.6499   -1.9082 C   0  0  0  0  0  0  0  0  0  0  0  0
   12.7434   24.8200   -1.9966 C   0  0  0  0  0  0  0  0  0  0  0  0
   13.1262   25.8349   -2.7638 C   0  0  0  0  0  0  0  0  0  0  0  0
   14.3080   25.6621   -3.5940 C   0  0  0  0  0  0  0  0  0  0  0  0
   14.9225   24.5097   -3.5189 C   0  0  0  0  0  0  0  0  0  0  0  0
   15.9858   24.3063   -4.4110 F   0  0  0  0  0  0  0  0  0  0  0  0
   14.5694   23.4469   -2.7149 C   0  0  0  0  0  0  0  0  0  0  0  0
   14.6919   26.9182   -4.1018 N   0  0  0  0  0  0  0  0  0  0  0  0
   14.0204   27.7164   -3.6468 H   0  0  0  0  0  0  0  0  0  0  0  0
   15.9034   27.4753   -5.0677 S   0  0  0  0  0  0  0  0  0  0  0  0
   15.8305   26.7130   -6.6918 C   0  0  0  0  0  0  0  0  0  0  0  0
   17.2213   27.4074   -4.4030 O   0  0  0  0  0  0  0  0  0  0  0  0
   15.5810   28.9778   -5.3583 O   0  0  0  0  0  0  0  0  0  0  0  0
   11.1337   22.4289    1.4630 C   0  0  0  0  0  0  0  0  0  0  0  0
   10.1000   21.4831    0.9697 C   0  0  0  0  0  0  0  0  0  0  0  0
   10.1572   20.6438   -0.1122 C   0  0  0  0  0  0  0  0  0  0  0  0
    8.9734   20.1661   -0.7574 C   0  0  0  0  0  0  0  0  0  0  0  0
    7.8217   20.5717   -0.2602 C   0  0  0  0  0  0  0  0  0  0  0  0
    7.7341   21.4308    0.8271 C   0  0  0  0  0  0  0  0  0  0  0  0
    8.8168   21.8734    1.4326 C   0  0  0  0  0  0  0  0  0  0  0  0
    8.9392   22.6147    2.7306 C   0  0  0  0  0  0  0  0  0  0  0  0
    8.8969   21.6091    3.9022 C   0  0  0  0  0  0  0  0  0  0  0  0
    7.6472   20.8832    4.1059 C   0  0  0  0  0  0  0  0  0  0  0  0
    6.4703   21.8215    4.2267 C   0  0  0  0  0  0  0  0  0  0  0  0
    6.9058   23.2604    4.1122 C   0  0  0  0  0  0  0  0  0  0  0  0
    7.7861   23.5755    2.9475 C   0  0  0  0  0  0  0  0  0  0  0  0
    6.5177   20.3893   -1.0723 C   0  0  0  0  0  0  0  0  0  0  0  0
    5.6884   21.3734   -1.0763 F   0  0  0  0  0  0  0  0  0  0  0  0
    5.9846   19.1830   -0.6763 F   0  0  0  0  0  0  0  0  0  0  0  0
    6.9670   20.1345   -2.4057 F   0  0  0  0  0  0  0  0  0  0  0  0
  5  6  1  0  0  0
  6  1  1  0  0  0
  1  2  2  0  0  0
  1  3  1  0  0  0
  3 20  1  0  0  0
 20 21  1  0  0  0
 21 22  2  0  0  0
 22 23  1  0  0  0
 23 24  2  0  0  0
 24 33  1  0  0  0
 33 34  1  0  0  0
 33 35  1  0  0  0
 33 36  1  0  0  0
 24 25  1  0  0  0
 25 26  2  0  0  0
 26 27  1  0  0  0
 27 28  1  0  0  0
 28 29  1  0  0  0
 29 30  1  0  0  0
 30 31  1  0  0  0
 31 32  1  0  0  0
  6  7  1  0  0  0
  7  8  2  0  0  0
  8  9  1  0  0  0
  9 10  2  0  0  0
 10 14  1  0  0  0
 14 16  1  0  0  0
 16 17  1  0  0  0
 16 18  2  0  0  0
 16 19  2  0  0  0
 10 11  1  0  0  0
 11 12  1  0  0  0
 11 13  2  0  0  0
 26 21  1  0  0  0
 32 27  1  0  0  0
 13  7  1  0  0  0
  3  4  1  0  0  0
 14 15  1  0  0  0
M  END
> <minimizedAffinity>
-9.07010

> <CNNscore>
0.5305565596

> <CNNaffinity>
7.5955924988

> <CNN_VS>
4.0298914909

> <CNNaffinity_variance>
0.1990780830

$$$$
[H]c1c([H])c(C([H])(C(=O)N([H])C([H])([H])c2c([H])c([H])c(C(F)(F)F)c([H])c2C2([H])C([H])([H])C([H])([H])C([H])([H])C([H])([H])C2([H])[H])C([H])([H])[H])c([H])c(F)c1N([H])S(=O)(=O)C([H])([H])[H]


 36 38  0  0  0  0  0  0  0  0999 V2000
   16.6641   23.3101   -4.3016 C   0  0  0  0  0  0  0  0  0  0  0  0
   17.6749   23.1697   -4.6977 O   0  0  0  0  0  0  0  0  0  0  0  0
   15.7429   23.9947   -3.4998 N   0  0  0  0  0  0  0  0  0  0  0  0
   16.7329   24.9306   -3.1634 H   0  0  0  0  0  0  0  0  0  0  0  0
   14.5481   23.5185   -5.2201 C   0  0  0  0  0  0  0  0  0  0  0  0
   15.4327   22.3142   -4.8200 C   0  0  0  0  0  0  0  0  0  0  0  0
   14.8679   21.6474   -3.7022 C   0  0  0  0  0  0  0  0  0  0  0  0
   14.9019   22.1189   -2.4525 C   0  0  0  0  0  0  0  0  0  0  0  0
   14.2683   21.5724   -1.4204 C   0  0  0  0  0  0  0  0  0  0  0  0
   13.5028   20.3568   -1.6484 C   0  0  0  0  0  0  0  0  0  0  0  0
   13.4848   19.8872   -2.8692 C   0  0  0  0  0  0  0  0  0  0  0  0
   12.8488   18.6511   -3.0567 F   0  0  0  0  0  0  0  0  0  0  0  0
   14.1069   20.4426   -3.9670 C   0  0  0  0  0  0  0  0  0  0  0  0
   12.7029   20.1068   -0.5167 N   0  0  0  0  0  0  0  0  0  0  0  0
   13.3778   19.7983    0.3461 H   0  0  0  0  0  0  0  0  0  0  0  0
   11.1055   20.2621   -0.1488 S   0  0  0  0  0  0  0  0  0  0  0  0
   10.8882   21.1067    1.4207 C   0  0  0  0  0  0  0  0  0  0  0  0
   10.3778   18.9825   -0.2770 O   0  0  0  0  0  0  0  0  0  0  0  0
   10.5091   21.2682   -1.1870 O   0  0  0  0  0  0  0  0  0  0  0  0
   14.9263   24.6108   -2.7815 C   0  0  0  0  0  0  0  0  0  0  0  0
   15.1108   25.6250   -1.7121 C   0  0  0  0  0  0  0  0  0  0  0  0
   15.9765   26.6870   -1.6827 C   0  0  0  0  0  0  0  0  0  0  0  0
   16.4025   27.2767   -0.4511 C   0  0  0  0  0  0  0  0  0  0  0  0
   15.9209   26.7494    0.6572 C   0  0  0  0  0  0  0  0  0  0  0  0
   15.0521   25.6663    0.6576 C   0  0  0  0  0  0  0  0  0  0  0  0
   14.6488   25.1180   -0.4700 C   0  0  0  0  0  0  0  0  0  0  0  0
   13.5653   24.1059   -0.6959 C   0  0  0  0  0  0  0  0  0  0  0  0
   12.3377   24.8000   -1.3259 C   0  0  0  0  0  0  0  0  0  0  0  0
   11.6406   25.7845   -0.5045 C   0  0  0  0  0  0  0  0  0  0  0  0
   11.2423   25.2121    0.8349 C   0  0  0  0  0  0  0  0  0  0  0  0
   11.6663   23.7706    0.9598 C   0  0  0  0  0  0  0  0  0  0  0  0
   13.0880   23.4847    0.6026 C   0  0  0  0  0  0  0  0  0  0  0  0
   16.5661   27.0870    2.0221 C   0  0  0  0  0  0  0  0  0  0  0  0
   17.1551   28.2267    2.1249 F   0  0  0  0  0  0  0  0  0  0  0  0
   17.3420   26.0005    2.3590 F   0  0  0  0  0  0  0  0  0  0  0  0
   15.4798   27.0225    2.9497 F   0  0  0  0  0  0  0  0  0  0  0  0
  5  6  1  0  0  0
  6  1  1  0  0  0
  1  2  2  0  0  0
  1  3  1  0  0  0
  3 20  1  0  0  0
 20 21  1  0  0  0
 21 22  2  0  0  0
 22 23  1  0  0  0
 23 24  2  0  0  0
 24 33  1  0  0  0
 33 34  1  0  0  0
 33 35  1  0  0  0
 33 36  1  0  0  0
 24 25  1  0  0  0
 25 26  2  0  0  0
 26 27  1  0  0  0
 27 28  1  0  0  0
 28 29  1  0  0  0
 29 30  1  0  0  0
 30 31  1  0  0  0
 31 32  1  0  0  0
  6  7  1  0  0  0
  7  8  2  0  0  0
  8  9  1  0  0  0
  9 10  2  0  0  0
 10 14  1  0  0  0
 14 16  1  0  0  0
 16 17  1  0  0  0
 16 18  2  0  0  0
 16 19  2  0  0  0
 10 11  1  0  0  0
 11 12  1  0  0  0
 11 13  2  0  0  0
 26 21  1  0  0  0
 32 27  1  0  0  0
 13  7  1  0  0  0
  3  4  1  0  0  0
 14 15  1  0  0  0
M  END
> <minimizedAffinity>
26.66751

> <CNNscore>
0.5171515942

> <CNNaffinity>
7.4929871559

> <CNN_VS>
3.8750102520

> <CNNaffinity_variance>
2.2458374500

$$$$
[H]c1c([H])c(C([H])(C(=O)N([H])C([H])([H])c2c([H])c([H])c(C(F)(F)F)c([H])c2C2([H])C([H])([H])C([H])([H])C([H])([H])C([H])([H])C2([H])[H])C([H])([H])[H])c([H])c(F)c1N([H])S(=O)(=O)C([H])([H])[H]


 36 38  0  0  0  0  0  0  0  0999 V2000
   12.2988   29.5817   -2.6066 C   0  0  0  0  0  0  0  0  0  0  0  0
   12.1380   30.0757   -1.6430 O   0  0  0  0  0  0  0  0  0  0  0  0
   12.6422   28.4590   -3.3693 N   0  0  0  0  0  0  0  0  0  0  0  0
   12.7490   27.6961   -2.1965 H   0  0  0  0  0  0  0  0  0  0  0  0
   11.8396   31.7564   -3.2580 C   0  0  0  0  0  0  0  0  0  0  0  0
   12.0118   30.4200   -4.0178 C   0  0  0  0  0  0  0  0  0  0  0  0
   10.7682   30.0078   -4.5626 C   0  0  0  0  0  0  0  0  0  0  0  0
   10.6391   29.0903   -5.5254 C   0  0  0  0  0  0  0  0  0  0  0  0
    9.4803   28.6016   -5.9540 C   0  0  0  0  0  0  0  0  0  0  0  0
    8.2556   29.1153   -5.3608 C   0  0  0  0  0  0  0  0  0  0  0  0
    8.3835   30.0260   -4.4305 C   0  0  0  0  0  0  0  0  0  0  0  0
    7.1987   30.6043   -3.9514 F   0  0  0  0  0  0  0  0  0  0  0  0
    9.5685   30.5348   -3.9433 C   0  0  0  0  0  0  0  0  0  0  0  0
    7.1843   28.2862   -5.7453 N   0  0  0  0  0  0  0  0  0  0  0  0
    7.5786   27.2306   -5.9040 H   0  0  0  0  0  0  0  0  0  0  0  0
    5.5548   28.4663   -5.8988 S   0  0  0  0  0  0  0  0  0  0  0  0
    4.8738   29.3599   -4.4981 C   0  0  0  0  0  0  0  0  0  0  0  0
    4.8808   27.1899   -6.2146 O   0  0  0  0  0  0  0  0  0  0  0  0
    5.3298   29.4458   -7.0971 O   0  0  0  0  0  0  0  0  0  0  0  0
   12.9502   27.4527   -4.0437 C   0  0  0  0  0  0  0  0  0  0  0  0
   13.9684   26.3912   -3.8368 C   0  0  0  0  0  0  0  0  0  0  0  0
   15.0934   26.1315   -4.5752 C   0  0  0  0  0  0  0  0  0  0  0  0
   15.7058   24.8389   -4.5842 C   0  0  0  0  0  0  0  0  0  0  0  0
   15.1358   23.9070   -3.8459 C   0  0  0  0  0  0  0  0  0  0  0  0
   13.9894   24.1388   -3.0975 C   0  0  0  0  0  0  0  0  0  0  0  0
   13.4193   25.3259   -3.0773 C   0  0  0  0  0  0  0  0  0  0  0  0
   12.3288   25.8370   -2.1835 C   0  0  0  0  0  0  0  0  0  0  0  0
   12.8888   26.0484   -0.7596 C   0  0  0  0  0  0  0  0  0  0  0  0
   13.3166   24.8569   -0.0335 C   0  0  0  0  0  0  0  0  0  0  0  0
   12.2247   23.8154    0.0222 C   0  0  0  0  0  0  0  0  0  0  0  0
   10.9798   24.2920   -0.6824 C   0  0  0  0  0  0  0  0  0  0  0  0
   11.1886   24.8456   -2.0538 C   0  0  0  0  0  0  0  0  0  0  0  0
   15.5127   22.4199   -4.0449 C   0  0  0  0  0  0  0  0  0  0  0  0
   14.7822   21.7344   -4.8529 F   0  0  0  0  0  0  0  0  0  0  0  0
   15.6414   21.8844   -2.7829 F   0  0  0  0  0  0  0  0  0  0  0  0
   16.8573   22.4601   -4.5298 F   0  0  0  0  0  0  0  0  0  0  0  0
  5  6  1  0  0  0
  6  1  1  0  0  0
  1  2  2  0  0  0
  1  3  1  0  0  0
  3 20  1  0  0  0
 20 21  1  0  0  0
 21 22  2  0  0  0
 22 23  1  0  0  0
 23 24  2  0  0  0
 24 33  1  0  0  0
 33 34  1  0  0  0
 33 35  1  0  0  0
 33 36  1  0  0  0
 24 25  1  0  0  0
 25 26  2  0  0  0
 26 27  1  0  0  0
 27 28  1  0  0  0
 28 29  1  0  0  0
 29 30  1  0  0  0
 30 31  1  0  0  0
 31 32  1  0  0  0
  6  7  1  0  0  0
  7  8  2  0  0  0
  8  9  1  0  0  0
  9 10  2  0  0  0
 10 14  1  0  0  0
 14 16  1  0  0  0
 16 17  1  0  0  0
 16 18  2  0  0  0
 16 19  2  0  0  0
 10 11  1  0  0  0
 11 12  1  0  0  0
 11 13  2  0  0  0
 26 21  1  0  0  0
 32 27  1  0  0  0
 13  7  1  0  0  0
  3  4  1  0  0  0
 14 15  1  0  0  0
M  END
> <minimizedAffinity>
27.72771

> <CNNscore>
0.4947301745

> <CNNaffinity>
6.8099617958

> <CNN_VS>
3.3690936565

> <CNNaffinity_variance>
1.0389221907

$$$$
[H]c1c([H])c(C([H])(C(=O)N([H])C([H])([H])c2c([H])c([H])c(C(F)(F)F)c([H])c2C2([H])C([H])([H])C([H])([H])C([H])([H])C([H])([H])C2([H])[H])C([H])([H])[H])c([H])c(F)c1N([H])S(=O)(=O)C([H])([H])[H]


 36 38  0  0  0  0  0  0  0  0999 V2000
   13.9941   22.3340    0.4923 C   0  0  0  0  0  0  0  0  0  0  0  0
   15.0825   22.4473    0.5200 O   0  0  0  0  0  0  0  0  0  0  0  0
   12.7530   22.2315    1.1320 N   0  0  0  0  0  0  0  0  0  0  0  0
   13.3757   22.4420    2.3718 H   0  0  0  0  0  0  0  0  0  0  0  0
   13.6159   20.7738   -1.1772 C   0  0  0  0  0  0  0  0  0  0  0  0
   13.2133   22.2540   -0.9777 C   0  0  0  0  0  0  0  0  0  0  0  0
   13.8948   23.0728   -1.9150 C   0  0  0  0  0  0  0  0  0  0  0  0
   14.8360   22.6287   -2.7530 C   0  0  0  0  0  0  0  0  0  0  0  0
   15.3891   23.3516   -3.7208 C   0  0  0  0  0  0  0  0  0  0  0  0
   14.9696   24.7362   -3.8706 C   0  0  0  0  0  0  0  0  0  0  0  0
   14.0604   25.1741   -3.0382 C   0  0  0  0  0  0  0  0  0  0  0  0
   13.7512   26.5405   -3.1086 F   0  0  0  0  0  0  0  0  0  0  0  0
   13.4465   24.4452   -2.0420 C   0  0  0  0  0  0  0  0  0  0  0  0
   15.4571   25.2266   -5.0974 N   0  0  0  0  0  0  0  0  0  0  0  0
   16.0400   24.3979   -5.6157 H   0  0  0  0  0  0  0  0  0  0  0  0
   15.2867   26.6203   -5.9574 S   0  0  0  0  0  0  0  0  0  0  0  0
   16.1940   27.9644   -5.1865 C   0  0  0  0  0  0  0  0  0  0  0  0
   13.8719   26.9154   -6.2647 O   0  0  0  0  0  0  0  0  0  0  0  0
   16.0434   26.4007   -7.3084 O   0  0  0  0  0  0  0  0  0  0  0  0
   11.6485   22.1405    1.7102 C   0  0  0  0  0  0  0  0  0  0  0  0
   10.6000   23.1477    2.0146 C   0  0  0  0  0  0  0  0  0  0  0  0
   10.4720   24.4215    1.5255 C   0  0  0  0  0  0  0  0  0  0  0  0
    9.7439   25.4293    2.2327 C   0  0  0  0  0  0  0  0  0  0  0  0
    9.1995   25.0736    3.3796 C   0  0  0  0  0  0  0  0  0  0  0  0
    9.3230   23.7941    3.9045 C   0  0  0  0  0  0  0  0  0  0  0  0
    9.9867   22.8563    3.2604 C   0  0  0  0  0  0  0  0  0  0  0  0
   10.0525   21.3838    3.5370 C   0  0  0  0  0  0  0  0  0  0  0  0
    8.7485   20.7118    3.0533 C   0  0  0  0  0  0  0  0  0  0  0  0
    7.5187   21.0772    3.7490 C   0  0  0  0  0  0  0  0  0  0  0  0
    7.6428   20.8819    5.2412 C   0  0  0  0  0  0  0  0  0  0  0  0
    9.0053   20.3526    5.6107 C   0  0  0  0  0  0  0  0  0  0  0  0
   10.1633   21.0882    5.0203 C   0  0  0  0  0  0  0  0  0  0  0  0
    8.6889   26.1518    4.3644 C   0  0  0  0  0  0  0  0  0  0  0  0
    8.9789   25.9925    5.6082 F   0  0  0  0  0  0  0  0  0  0  0  0
    7.3475   26.3111    4.0974 F   0  0  0  0  0  0  0  0  0  0  0  0
    9.2714   27.3675    3.8874 F   0  0  0  0  0  0  0  0  0  0  0  0
  5  6  1  0  0  0
  6  1  1  0  0  0
  1  2  2  0  0  0
  1  3  1  0  0  0
  3 20  1  0  0  0
 20 21  1  0  0  0
 21 22  2  0  0  0
 22 23  1  0  0  0
 23 24  2  0  0  0
 24 33  1  0  0  0
 33 34  1  0  0  0
 33 35  1  0  0  0
 33 36  1  0  0  0
 24 25  1  0  0  0
 25 26  2  0  0  0
 26 27  1  0  0  0
 27 28  1  0  0  0
 28 29  1  0  0  0
 29 30  1  0  0  0
 30 31  1  0  0  0
 31 32  1  0  0  0
  6  7  1  0  0  0
  7  8  2  0  0  0
  8  9  1  0  0  0
  9 10  2  0  0  0
 10 14  1  0  0  0
 14 16  1  0  0  0
 16 17  1  0  0  0
 16 18  2  0  0  0
 16 19  2  0  0  0
 10 11  1  0  0  0
 11 12  1  0  0  0
 11 13  2  0  0  0
 26 21  1  0  0  0
 32 27  1  0  0  0
 13  7  1  0  0  0
  3  4  1  0  0  0
 14 15  1  0  0  0
M  END
> <minimizedAffinity>
-8.92629

> <CNNscore>
0.4893137813

> <CNNaffinity>
7.3623847961

> <CNN_VS>
3.6025164127

> <CNNaffinity_variance>
0.0816912428

$$$$
[H]OC(=O)C([H])([H])N(C([H])([H])c1c([H])c([H])c([H])c(OC([H])([H])C([H])([H])c2nc(-c3c([H])c([H])c([H])c([H])c3[H])oc2C([H])([H])[H])c1[H])C([H])([H])c1c([H])c([H])c2c([H])c([H])c([H])c([H])c2c1[H]


 39 43  0  0  0  0  0  0  0  0999 V2000
   10.3829   23.2178    1.4378 C   0  0  0  0  0  0  0  0  0  0  0  0
   10.7270   24.5398    1.4624 C   0  0  0  0  0  0  0  0  0  0  0  0
   11.6581   25.0188    0.5718 C   0  0  0  0  0  0  0  0  0  0  0  0
   12.2738   24.2186   -0.3638 C   0  0  0  0  0  0  0  0  0  0  0  0
   11.9498   22.8830   -0.4156 C   0  0  0  0  0  0  0  0  0  0  0  0
   11.0211   22.4171    0.4772 C   0  0  0  0  0  0  0  0  0  0  0  0
    9.4772   22.6628    2.2803 O   0  0  0  0  0  0  0  0  0  0  0  0
    9.5420   22.1468    3.5388 C   0  0  0  0  0  0  0  0  0  0  0  0
    9.2932   23.0612    4.6922 C   0  0  0  0  0  0  0  0  0  0  0  0
    6.2866   22.2429    5.0658 C   0  0  0  0  0  0  0  0  0  0  0  0
    6.7523   23.5692    4.6221 C   0  0  0  0  0  0  0  0  0  0  0  0
    6.0111   24.6100    4.3151 O   0  0  0  0  0  0  0  0  0  0  0  0
    6.7695   25.6180    3.9632 C   0  0  0  0  0  0  0  0  0  0  0  0
    8.0431   25.1928    4.0529 N   0  0  0  0  0  0  0  0  0  0  0  0
    8.0849   23.9227    4.4593 C   0  0  0  0  0  0  0  0  0  0  0  0
    6.3397   26.9477    3.5524 C   0  0  0  0  0  0  0  0  0  0  0  0
    7.2370   27.8409    3.0051 C   0  0  0  0  0  0  0  0  0  0  0  0
    6.8508   29.1177    2.6063 C   0  0  0  0  0  0  0  0  0  0  0  0
    5.5410   29.5114    2.7573 C   0  0  0  0  0  0  0  0  0  0  0  0
    4.6340   28.6451    3.2964 C   0  0  0  0  0  0  0  0  0  0  0  0
    5.0365   27.3661    3.6921 C   0  0  0  0  0  0  0  0  0  0  0  0
   12.6056   22.0223   -1.4066 C   0  0  0  0  0  0  0  0  0  0  0  0
   14.0275   21.9779   -1.3592 N   0  0  0  0  0  0  0  0  0  0  0  0
   14.5241   20.8799   -0.6097 C   0  0  0  0  0  0  0  0  0  0  0  0
   14.8070   21.1491    0.8063 C   0  0  0  0  0  0  0  0  0  0  0  0
   15.7964   21.7450    1.2647 O   0  0  0  0  0  0  0  0  0  0  0  0
   13.8716   20.6914    1.7549 O   0  0  0  0  0  0  0  0  0  0  0  0
   14.1136   19.9155    2.3548 H   0  0  0  0  0  0  0  0  0  0  0  0
   14.6546   22.2133   -2.6255 C   0  0  0  0  0  0  0  0  0  0  0  0
   15.1611   23.5643   -2.8472 C   0  0  0  0  0  0  0  0  0  0  0  0
   15.7969   24.3500   -1.9138 C   0  0  0  0  0  0  0  0  0  0  0  0
   16.2368   25.6280   -2.2229 C   0  0  0  0  0  0  0  0  0  0  0  0
   16.0613   26.1748   -3.4748 C   0  0  0  0  0  0  0  0  0  0  0  0
   16.5116   27.4496   -3.7457 C   0  0  0  0  0  0  0  0  0  0  0  0
   16.3391   28.0064   -4.9971 C   0  0  0  0  0  0  0  0  0  0  0  0
   15.7053   27.2450   -5.9546 C   0  0  0  0  0  0  0  0  0  0  0  0
   15.2505   25.9544   -5.6781 C   0  0  0  0  0  0  0  0  0  0  0  0
   15.4252   25.4000   -4.4235 C   0  0  0  0  0  0  0  0  0  0  0  0
   14.9892   24.1287   -4.1109 C   0  0  0  0  0  0  0  0  0  0  0  0
 10 11  1  0  0  0
 11 12  1  0  0  0
 12 13  1  0  0  0
 13 16  1  0  0  0
 16 17  2  0  0  0
 17 18  1  0  0  0
 18 19  2  0  0  0
 19 20  1  0  0  0
 20 21  2  0  0  0
 13 14  2  0  0  0
 14 15  1  0  0  0
 15  9  1  0  0  0
  9  8  1  0  0  0
  8  7  1  0  0  0
  7  1  1  0  0  0
  1  2  2  0  0  0
  2  3  1  0  0  0
  3  4  2  0  0  0
  4  5  1  0  0  0
  5 22  1  0  0  0
 22 23  1  0  0  0
 23 24  1  0  0  0
 24 25  1  0  0  0
 25 26  2  0  0  0
 25 27  1  0  0  0
 23 29  1  0  0  0
 29 30  1  0  0  0
 30 31  2  0  0  0
 31 32  1  0  0  0
 32 33  2  0  0  0
 33 34  1  0  0  0
 34 35  2  0  0  0
 35 36  1  0  0  0
 36 37  2  0  0  0
 37 38  1  0  0  0
 38 39  2  0  0  0
  5  6  2  0  0  0
 15 11  2  0  0  0
  6  1  1  0  0  0
 21 16  1  0  0  0
 39 30  1  0  0  0
 38 33  1  0  0  0
 27 28  1  0  0  0
M  END
> <minimizedAffinity>
-10.64319

> <CNNscore>
0.3150201440

> <CNNaffinity>
7.0075979233

> <CNN_VS>
2.2075345516

> <CNNaffinity_variance>
0.1430044472

$$$$
[H]OC(=O)C([H])([H])N(C([H])([H])c1c([H])c([H])c([H])c(OC([H])([H])C([H])([H])c2nc(-c3c([H])c([H])c([H])c([H])c3[H])oc2C([H])([H])[H])c1[H])C([H])([H])c1c([H])c([H])c2c([H])c([H])c([H])c([H])c2c1[H]


 39 43  0  0  0  0  0  0  0  0999 V2000
   11.5070   21.3506    2.1934 C   0  0  0  0  0  0  0  0  0  0  0  0
   12.0518   20.1208    2.4330 C   0  0  0  0  0  0  0  0  0  0  0  0
   11.8488   19.5098    3.6474 C   0  0  0  0  0  0  0  0  0  0  0  0
   11.1085   20.0849    4.6555 C   0  0  0  0  0  0  0  0  0  0  0  0
   10.5458   21.3223    4.4468 C   0  0  0  0  0  0  0  0  0  0  0  0
   10.7554   21.9215    3.2328 C   0  0  0  0  0  0  0  0  0  0  0  0
   11.6594   22.0240    1.0265 O   0  0  0  0  0  0  0  0  0  0  0  0
   12.1158   23.2642    0.6980 C   0  0  0  0  0  0  0  0  0  0  0  0
   13.5913   23.4829    0.6406 C   0  0  0  0  0  0  0  0  0  0  0  0
   14.0334   21.2758   -1.5463 C   0  0  0  0  0  0  0  0  0  0  0  0
   14.2595   22.7190   -1.7446 C   0  0  0  0  0  0  0  0  0  0  0  0
   14.6731   23.3154   -2.8401 O   0  0  0  0  0  0  0  0  0  0  0  0
   14.7582   24.6079   -2.6474 C   0  0  0  0  0  0  0  0  0  0  0  0
   14.3817   24.8343   -1.3754 N   0  0  0  0  0  0  0  0  0  0  0  0
   14.0614   23.6887   -0.7711 C   0  0  0  0  0  0  0  0  0  0  0  0
   15.1756   25.6203   -3.6078 C   0  0  0  0  0  0  0  0  0  0  0  0
   16.1844   26.5095   -3.3013 C   0  0  0  0  0  0  0  0  0  0  0  0
   16.5999   27.4868   -4.2017 C   0  0  0  0  0  0  0  0  0  0  0  0
   15.9952   27.5785   -5.4343 C   0  0  0  0  0  0  0  0  0  0  0  0
   14.9943   26.7096   -5.7611 C   0  0  0  0  0  0  0  0  0  0  0  0
   14.5879   25.7334   -4.8466 C   0  0  0  0  0  0  0  0  0  0  0  0
    9.7597   21.9443    5.5181 C   0  0  0  0  0  0  0  0  0  0  0  0
    8.5615   22.6012    5.1197 N   0  0  0  0  0  0  0  0  0  0  0  0
    7.4717   21.7095    4.9428 C   0  0  0  0  0  0  0  0  0  0  0  0
    7.0291   21.5092    3.5566 C   0  0  0  0  0  0  0  0  0  0  0  0
    6.9830   20.4306    2.9413 O   0  0  0  0  0  0  0  0  0  0  0  0
    6.6111   22.6455    2.8366 O   0  0  0  0  0  0  0  0  0  0  0  0
    7.1910   22.9991    2.0889 H   0  0  0  0  0  0  0  0  0  0  0  0
    8.2855   23.7967    5.8593 C   0  0  0  0  0  0  0  0  0  0  0  0
    8.0130   24.9913    5.0658 C   0  0  0  0  0  0  0  0  0  0  0  0
    8.9396   25.7086    4.3449 C   0  0  0  0  0  0  0  0  0  0  0  0
    8.5797   26.8379    3.6256 C   0  0  0  0  0  0  0  0  0  0  0  0
    7.2819   27.2981    3.5951 C   0  0  0  0  0  0  0  0  0  0  0  0
    6.9611   28.4255    2.8690 C   0  0  0  0  0  0  0  0  0  0  0  0
    5.6633   28.8948    2.8336 C   0  0  0  0  0  0  0  0  0  0  0  0
    4.7113   28.1987    3.5459 C   0  0  0  0  0  0  0  0  0  0  0  0
    5.0384   27.0573    4.2801 C   0  0  0  0  0  0  0  0  0  0  0  0
    6.3394   26.5900    4.3130 C   0  0  0  0  0  0  0  0  0  0  0  0
    6.7025   25.4668    5.0273 C   0  0  0  0  0  0  0  0  0  0  0  0
 10 11  1  0  0  0
 11 12  1  0  0  0
 12 13  1  0  0  0
 13 16  1  0  0  0
 16 17  2  0  0  0
 17 18  1  0  0  0
 18 19  2  0  0  0
 19 20  1  0  0  0
 20 21  2  0  0  0
 13 14  2  0  0  0
 14 15  1  0  0  0
 15  9  1  0  0  0
  9  8  1  0  0  0
  8  7  1  0  0  0
  7  1  1  0  0  0
  1  2  2  0  0  0
  2  3  1  0  0  0
  3  4  2  0  0  0
  4  5  1  0  0  0
  5 22  1  0  0  0
 22 23  1  0  0  0
 23 24  1  0  0  0
 24 25  1  0  0  0
 25 26  2  0  0  0
 25 27  1  0  0  0
 23 29  1  0  0  0
 29 30  1  0  0  0
 30 31  2  0  0  0
 31 32  1  0  0  0
 32 33  2  0  0  0
 33 34  1  0  0  0
 34 35  2  0  0  0
 35 36  1  0  0  0
 36 37  2  0  0  0
 37 38  1  0  0  0
 38 39  2  0  0  0
  5  6  2  0  0  0
 15 11  2  0  0  0
  6  1  1  0  0  0
 21 16  1  0  0  0
 39 30  1  0  0  0
 38 33  1  0  0  0
 27 28  1  0  0  0
M  END
> <minimizedAffinity>
-9.96649

> <CNNscore>
0.2705685794

> <CNNaffinity>
6.3566241264

> <CNN_VS>
1.7199027538

> <CNNaffinity_variance>
0.5228551626

$$$$
[H]OC(=O)C([H])([H])N(C([H])([H])c1c([H])c([H])c([H])c(OC([H])([H])C([H])([H])c2nc(-c3c([H])c([H])c([H])c([H])c3[H])oc2C([H])([H])[H])c1[H])C([H])([H])c1c([H])c([H])c2c([H])c([H])c([H])c([H])c2c1[H]


 39 43  0  0  0  0  0  0  0  0999 V2000
   10.7369   20.5209    3.7146 C   0  0  0  0  0  0  0  0  0  0  0  0
   10.6704   19.4468    4.5564 C   0  0  0  0  0  0  0  0  0  0  0  0
   10.1503   19.6013    5.8194 C   0  0  0  0  0  0  0  0  0  0  0  0
    9.6825   20.8077    6.2893 C   0  0  0  0  0  0  0  0  0  0  0  0
    9.7346   21.9089    5.4671 C   0  0  0  0  0  0  0  0  0  0  0  0
   10.2553   21.7427    4.2110 C   0  0  0  0  0  0  0  0  0  0  0  0
   11.2362   20.4573    2.4557 O   0  0  0  0  0  0  0  0  0  0  0  0
   11.7829   21.3679    1.6035 C   0  0  0  0  0  0  0  0  0  0  0  0
   11.8761   21.0153    0.1559 C   0  0  0  0  0  0  0  0  0  0  0  0
   15.0025   20.8716    0.3872 C   0  0  0  0  0  0  0  0  0  0  0  0
   14.2608   21.8228   -0.4603 C   0  0  0  0  0  0  0  0  0  0  0  0
   14.7651   22.7491   -1.2443 O   0  0  0  0  0  0  0  0  0  0  0  0
   13.8045   23.4059   -1.8451 C   0  0  0  0  0  0  0  0  0  0  0  0
   12.6457   22.8693   -1.4206 N   0  0  0  0  0  0  0  0  0  0  0  0
   12.8771   21.8795   -0.5564 C   0  0  0  0  0  0  0  0  0  0  0  0
   13.9412   24.5046   -2.7914 C   0  0  0  0  0  0  0  0  0  0  0  0
   14.9240   24.4837   -3.7589 C   0  0  0  0  0  0  0  0  0  0  0  0
   15.0757   25.5224   -4.6735 C   0  0  0  0  0  0  0  0  0  0  0  0
   14.2284   26.6053   -4.6210 C   0  0  0  0  0  0  0  0  0  0  0  0
   13.2476   26.6491   -3.6724 C   0  0  0  0  0  0  0  0  0  0  0  0
   13.1073   25.5985   -2.7608 C   0  0  0  0  0  0  0  0  0  0  0  0
    9.2427   23.1994    5.9624 C   0  0  0  0  0  0  0  0  0  0  0  0
    8.4712   23.9717    5.0489 N   0  0  0  0  0  0  0  0  0  0  0  0
    7.2056   23.3955    4.7655 C   0  0  0  0  0  0  0  0  0  0  0  0
    6.9966   22.9649    3.3768 C   0  0  0  0  0  0  0  0  0  0  0  0
    6.2401   22.0596    2.9868 O   0  0  0  0  0  0  0  0  0  0  0  0
    7.7202   23.6363    2.3717 O   0  0  0  0  0  0  0  0  0  0  0  0
    8.4713   23.1557    1.8971 H   0  0  0  0  0  0  0  0  0  0  0  0
    8.4764   25.3759    5.3324 C   0  0  0  0  0  0  0  0  0  0  0  0
    7.3271   26.1314    4.8435 C   0  0  0  0  0  0  0  0  0  0  0  0
    6.0709   26.1409    5.4046 C   0  0  0  0  0  0  0  0  0  0  0  0
    5.0403   26.8905    4.8584 C   0  0  0  0  0  0  0  0  0  0  0  0
    5.2197   27.6614    3.7312 C   0  0  0  0  0  0  0  0  0  0  0  0
    4.1710   28.3935    3.2159 C   0  0  0  0  0  0  0  0  0  0  0  0
    4.3410   29.1680    2.0859 C   0  0  0  0  0  0  0  0  0  0  0  0
    5.5878   29.1797    1.4996 C   0  0  0  0  0  0  0  0  0  0  0  0
    6.6480   28.4379    2.0232 C   0  0  0  0  0  0  0  0  0  0  0  0
    6.4740   27.6634    3.1555 C   0  0  0  0  0  0  0  0  0  0  0  0
    7.4965   26.9157    3.7028 C   0  0  0  0  0  0  0  0  0  0  0  0
 10 11  1  0  0  0
 11 12  1  0  0  0
 12 13  1  0  0  0
 13 16  1  0  0  0
 16 17  2  0  0  0
 17 18  1  0  0  0
 18 19  2  0  0  0
 19 20  1  0  0  0
 20 21  2  0  0  0
 13 14  2  0  0  0
 14 15  1  0  0  0
 15  9  1  0  0  0
  9  8  1  0  0  0
  8  7  1  0  0  0
  7  1  1  0  0  0
  1  2  2  0  0  0
  2  3  1  0  0  0
  3  4  2  0  0  0
  4  5  1  0  0  0
  5 22  1  0  0  0
 22 23  1  0  0  0
 23 24  1  0  0  0
 24 25  1  0  0  0
 25 26  2  0  0  0
 25 27  1  0  0  0
 23 29  1  0  0  0
 29 30  1  0  0  0
 30 31  2  0  0  0
 31 32  1  0  0  0
 32 33  2  0  0  0
 33 34  1  0  0  0
 34 35  2  0  0  0
 35 36  1  0  0  0
 36 37  2  0  0  0
 37 38  1  0  0  0
 38 39  2  0  0  0
  5  6  2  0  0  0
 15 11  2  0  0  0
  6  1  1  0  0  0
 21 16  1  0  0  0
 39 30  1  0  0  0
 38 33  1  0  0  0
 27 28  1  0  0  0
M  END
> <minimizedAffinity>
-9.72887

> <CNNscore>
0.2529094815

> <CNNaffinity>
6.3122243881

> <CNN_VS>
1.5964213610

> <CNNaffinity_variance>
0.3428341448

$$$$
[H]OC(=O)C([H])([H])N(C([H])([H])c1c([H])c([H])c([H])c(OC([H])([H])C([H])([H])c2nc(-c3c([H])c([H])c([H])c([H])c3[H])oc2C([H])([H])[H])c1[H])C([H])([H])c1c([H])c([H])c2c([H])c([H])c([H])c([H])c2c1[H]


 39 43  0  0  0  0  0  0  0  0999 V2000
    9.8697   23.9972    1.5433 C   0  0  0  0  0  0  0  0  0  0  0  0
    9.0223   23.5608    0.5645 C   0  0  0  0  0  0  0  0  0  0  0  0
    9.4982   23.3576   -0.7089 C   0  0  0  0  0  0  0  0  0  0  0  0
   10.8125   23.5750   -1.0558 C   0  0  0  0  0  0  0  0  0  0  0  0
   11.6920   24.0143   -0.0941 C   0  0  0  0  0  0  0  0  0  0  0  0
   11.2060   24.2135    1.1711 C   0  0  0  0  0  0  0  0  0  0  0  0
    9.4835   24.2251    2.8228 O   0  0  0  0  0  0  0  0  0  0  0  0
    9.1752   25.3425    3.5375 C   0  0  0  0  0  0  0  0  0  0  0  0
    7.8839   25.3700    4.2858 C   0  0  0  0  0  0  0  0  0  0  0  0
    5.8149   26.9058    6.0772 C   0  0  0  0  0  0  0  0  0  0  0  0
    6.1276   27.2362    4.6749 C   0  0  0  0  0  0  0  0  0  0  0  0
    5.6098   28.2037    3.9520 O   0  0  0  0  0  0  0  0  0  0  0  0
    6.1266   28.1961    2.7487 C   0  0  0  0  0  0  0  0  0  0  0  0
    7.0079   27.1796    2.7134 N   0  0  0  0  0  0  0  0  0  0  0  0
    7.0446   26.5510    3.8896 C   0  0  0  0  0  0  0  0  0  0  0  0
    5.8221   29.1014    1.6490 C   0  0  0  0  0  0  0  0  0  0  0  0
    5.2120   30.3158    1.8840 C   0  0  0  0  0  0  0  0  0  0  0  0
    4.9094   31.1974    0.8497 C   0  0  0  0  0  0  0  0  0  0  0  0
    5.2224   30.8593   -0.4468 C   0  0  0  0  0  0  0  0  0  0  0  0
    5.8268   29.6627   -0.7049 C   0  0  0  0  0  0  0  0  0  0  0  0
    6.1246   28.7878    0.3440 C   0  0  0  0  0  0  0  0  0  0  0  0
   13.0934   24.2532   -0.4571 C   0  0  0  0  0  0  0  0  0  0  0  0
   13.9101   23.0974   -0.6094 N   0  0  0  0  0  0  0  0  0  0  0  0
   13.2983   21.9161   -0.1152 C   0  0  0  0  0  0  0  0  0  0  0  0
   14.1980   20.9567    0.5388 C   0  0  0  0  0  0  0  0  0  0  0  0
   15.1213   20.3213    0.0024 O   0  0  0  0  0  0  0  0  0  0  0  0
   14.0082   20.7207    1.9146 O   0  0  0  0  0  0  0  0  0  0  0  0
   13.6306   19.8342    2.2176 H   0  0  0  0  0  0  0  0  0  0  0  0
   14.5318   22.9957   -1.8961 C   0  0  0  0  0  0  0  0  0  0  0  0
   15.1284   24.2219   -2.4169 C   0  0  0  0  0  0  0  0  0  0  0  0
   16.0379   25.0180   -1.7599 C   0  0  0  0  0  0  0  0  0  0  0  0
   16.5426   26.1712   -2.3410 C   0  0  0  0  0  0  0  0  0  0  0  0
   16.1618   26.5778   -3.6007 C   0  0  0  0  0  0  0  0  0  0  0  0
   16.6845   27.7311   -4.1464 C   0  0  0  0  0  0  0  0  0  0  0  0
   16.3078   28.1470   -5.4077 C   0  0  0  0  0  0  0  0  0  0  0  0
   15.3976   27.3715   -6.0921 C   0  0  0  0  0  0  0  0  0  0  0  0
   14.8699   26.2041   -5.5377 C   0  0  0  0  0  0  0  0  0  0  0  0
   15.2499   25.7904   -4.2741 C   0  0  0  0  0  0  0  0  0  0  0  0
   14.7505   24.6437   -3.6914 C   0  0  0  0  0  0  0  0  0  0  0  0
 10 11  1  0  0  0
 11 12  1  0  0  0
 12 13  1  0  0  0
 13 16  1  0  0  0
 16 17  2  0  0  0
 17 18  1  0  0  0
 18 19  2  0  0  0
 19 20  1  0  0  0
 20 21  2  0  0  0
 13 14  2  0  0  0
 14 15  1  0  0  0
 15  9  1  0  0  0
  9  8  1  0  0  0
  8  7  1  0  0  0
  7  1  1  0  0  0
  1  2  2  0  0  0
  2  3  1  0  0  0
  3  4  2  0  0  0
  4  5  1  0  0  0
  5 22  1  0  0  0
 22 23  1  0  0  0
 23 24  1  0  0  0
 24 25  1  0  0  0
 25 26  2  0  0  0
 25 27  1  0  0  0
 23 29  1  0  0  0
 29 30  1  0  0  0
 30 31  2  0  0  0
 31 32  1  0  0  0
 32 33  2  0  0  0
 33 34  1  0  0  0
 34 35  2  0  0  0
 35 36  1  0  0  0
 36 37  2  0  0  0
 37 38  1  0  0  0
 38 39  2  0  0  0
  5  6  2  0  0  0
 15 11  2  0  0  0
  6  1  1  0  0  0
 21 16  1  0  0  0
 39 30  1  0  0  0
 38 33  1  0  0  0
 27 28  1  0  0  0
M  END
> <minimizedAffinity>
-9.80687

> <CNNscore>
0.2417378426

> <CNNaffinity>
6.6117086411

> <CNN_VS>
1.5983002186

> <CNNaffinity_variance>
0.2626857460

$$$$
[H]OC(=O)C([H])([H])N(C([H])([H])c1c([H])c([H])c([H])c(OC([H])([H])C([H])([H])c2nc(-c3c([H])c([H])c([H])c([H])c3[H])oc2C([H])([H])[H])c1[H])C([H])([H])c1c([H])c([H])c2c([H])c([H])c([H])c([H])c2c1[H]


 39 43  0  0  0  0  0  0  0  0999 V2000
   11.9651   20.3701    2.9496 C   0  0  0  0  0  0  0  0  0  0  0  0
   11.9401   19.1222    3.5052 C   0  0  0  0  0  0  0  0  0  0  0  0
   11.1948   18.8945    4.6375 C   0  0  0  0  0  0  0  0  0  0  0  0
   10.4561   19.8797    5.2530 C   0  0  0  0  0  0  0  0  0  0  0  0
   10.4593   21.1471    4.7191 C   0  0  0  0  0  0  0  0  0  0  0  0
   11.2060   21.3619    3.5909 C   0  0  0  0  0  0  0  0  0  0  0  0
   12.6742   20.6816    1.8368 O   0  0  0  0  0  0  0  0  0  0  0  0
   13.0771   21.8489    1.2628 C   0  0  0  0  0  0  0  0  0  0  0  0
   14.4893   21.9549    0.7909 C   0  0  0  0  0  0  0  0  0  0  0  0
   13.6042   20.5986   -1.8972 C   0  0  0  0  0  0  0  0  0  0  0  0
   14.1755   21.9527   -1.7821 C   0  0  0  0  0  0  0  0  0  0  0  0
   14.4064   22.8032   -2.7569 O   0  0  0  0  0  0  0  0  0  0  0  0
   14.9196   23.9098   -2.2802 C   0  0  0  0  0  0  0  0  0  0  0  0
   15.0154   23.7482   -0.9476 N   0  0  0  0  0  0  0  0  0  0  0  0
   14.5646   22.5450   -0.5884 C   0  0  0  0  0  0  0  0  0  0  0  0
   15.3155   25.0955   -3.0276 C   0  0  0  0  0  0  0  0  0  0  0  0
   14.6184   25.4855   -4.1520 C   0  0  0  0  0  0  0  0  0  0  0  0
   14.9783   26.6138   -4.8841 C   0  0  0  0  0  0  0  0  0  0  0  0
   16.0573   27.3688   -4.4852 C   0  0  0  0  0  0  0  0  0  0  0  0
   16.7632   27.0032   -3.3754 C   0  0  0  0  0  0  0  0  0  0  0  0
   16.3898   25.8677   -2.6503 C   0  0  0  0  0  0  0  0  0  0  0  0
    9.6786   22.2039    5.3722 C   0  0  0  0  0  0  0  0  0  0  0  0
    8.4287   22.5256    4.7719 N   0  0  0  0  0  0  0  0  0  0  0  0
    7.3223   22.2742    5.6244 C   0  0  0  0  0  0  0  0  0  0  0  0
    6.0366   22.0464    4.9516 C   0  0  0  0  0  0  0  0  0  0  0  0
    5.8684   21.5899    3.8082 O   0  0  0  0  0  0  0  0  0  0  0  0
    4.8644   22.3738    5.6609 O   0  0  0  0  0  0  0  0  0  0  0  0
    4.3203   23.1756    5.3754 H   0  0  0  0  0  0  0  0  0  0  0  0
    8.4245   23.7834    4.0863 C   0  0  0  0  0  0  0  0  0  0  0  0
    8.8782   23.7572    2.6991 C   0  0  0  0  0  0  0  0  0  0  0  0
    8.2787   23.0718    1.6678 C   0  0  0  0  0  0  0  0  0  0  0  0
    8.7933   23.1062    0.3808 C   0  0  0  0  0  0  0  0  0  0  0  0
    9.9260   23.8252    0.0691 C   0  0  0  0  0  0  0  0  0  0  0  0
   10.4092   23.8356   -1.2222 C   0  0  0  0  0  0  0  0  0  0  0  0
   11.5444   24.5523   -1.5437 C   0  0  0  0  0  0  0  0  0  0  0  0
   12.1688   25.2496   -0.5327 C   0  0  0  0  0  0  0  0  0  0  0  0
   11.6776   25.2378    0.7740 C   0  0  0  0  0  0  0  0  0  0  0  0
   10.5401   24.5189    1.0922 C   0  0  0  0  0  0  0  0  0  0  0  0
   10.0241   24.4815    2.3714 C   0  0  0  0  0  0  0  0  0  0  0  0
 10 11  1  0  0  0
 11 12  1  0  0  0
 12 13  1  0  0  0
 13 16  1  0  0  0
 16 17  2  0  0  0
 17 18  1  0  0  0
 18 19  2  0  0  0
 19 20  1  0  0  0
 20 21  2  0  0  0
 13 14  2  0  0  0
 14 15  1  0  0  0
 15  9  1  0  0  0
  9  8  1  0  0  0
  8  7  1  0  0  0
  7  1  1  0  0  0
  1  2  2  0  0  0
  2  3  1  0  0  0
  3  4  2  0  0  0
  4  5  1  0  0  0
  5 22  1  0  0  0
 22 23  1  0  0  0
 23 24  1  0  0  0
 24 25  1  0  0  0
 25 26  2  0  0  0
 25 27  1  0  0  0
 23 29  1  0  0  0
 29 30  1  0  0  0
 30 31  2  0  0  0
 31 32  1  0  0  0
 32 33  2  0  0  0
 33 34  1  0  0  0
 34 35  2  0  0  0
 35 36  1  0  0  0
 36 37  2  0  0  0
 37 38  1  0  0  0
 38 39  2  0  0  0
  5  6  2  0  0  0
 15 11  2  0  0  0
  6  1  1  0  0  0
 21 16  1  0  0  0
 39 30  1  0  0  0
 38 33  1  0  0  0
 27 28  1  0  0  0
M  END
> <minimizedAffinity>
-9.13011

> <CNNscore>
0.2198881358

> <CNNaffinity>
6.8999609947

> <CNN_VS>
1.5172195435

> <CNNaffinity_variance>
0.3685464263

$$$$
[H]OC(=O)C([H])([H])N(C([H])([H])c1c([H])c([H])c([H])c(OC([H])([H])C([H])([H])c2nc(-c3c([H])c([H])c([H])c([H])c3[H])oc2C([H])([H])[H])c1[H])C([H])([H])c1c([H])c([H])c2c([H])c([H])c([H])c([H])c2c1[H]


 39 43  0  0  0  0  0  0  0  0999 V2000
   11.9994   21.3556   -0.0420 C   0  0  0  0  0  0  0  0  0  0  0  0
   11.0415   21.1050   -0.9834 C   0  0  0  0  0  0  0  0  0  0  0  0
    9.7225   21.0150   -0.6071 C   0  0  0  0  0  0  0  0  0  0  0  0
    9.3082   21.1684    0.6966 C   0  0  0  0  0  0  0  0  0  0  0  0
   10.2471   21.4220    1.6690 C   0  0  0  0  0  0  0  0  0  0  0  0
   11.5583   21.5091    1.2820 C   0  0  0  0  0  0  0  0  0  0  0  0
   13.3212   21.4577   -0.3257 O   0  0  0  0  0  0  0  0  0  0  0  0
   14.3447   22.2055    0.1720 C   0  0  0  0  0  0  0  0  0  0  0  0
   14.1710   23.6865    0.2402 C   0  0  0  0  0  0  0  0  0  0  0  0
   17.2036   24.4444    0.5176 C   0  0  0  0  0  0  0  0  0  0  0  0
   16.3670   24.7260   -0.6631 C   0  0  0  0  0  0  0  0  0  0  0  0
   16.7350   25.3255   -1.7730 O   0  0  0  0  0  0  0  0  0  0  0  0
   15.7249   25.4007   -2.6033 C   0  0  0  0  0  0  0  0  0  0  0  0
   14.6761   24.8232   -1.9887 N   0  0  0  0  0  0  0  0  0  0  0  0
   15.0256   24.3871   -0.7772 C   0  0  0  0  0  0  0  0  0  0  0  0
   15.7164   25.9890   -3.9356 C   0  0  0  0  0  0  0  0  0  0  0  0
   15.3241   25.2483   -5.0309 C   0  0  0  0  0  0  0  0  0  0  0  0
   15.3090   25.7876   -6.3145 C   0  0  0  0  0  0  0  0  0  0  0  0
   15.6940   27.0943   -6.5087 C   0  0  0  0  0  0  0  0  0  0  0  0
   16.0864   27.8480   -5.4402 C   0  0  0  0  0  0  0  0  0  0  0  0
   16.0963   27.2927   -4.1572 C   0  0  0  0  0  0  0  0  0  0  0  0
    9.8142   21.5817    3.0618 C   0  0  0  0  0  0  0  0  0  0  0  0
    8.8736   22.6199    3.3136 N   0  0  0  0  0  0  0  0  0  0  0  0
    7.7035   22.1613    3.9729 C   0  0  0  0  0  0  0  0  0  0  0  0
    6.8036   21.3246    3.1681 C   0  0  0  0  0  0  0  0  0  0  0  0
    6.0442   21.7098    2.2632 O   0  0  0  0  0  0  0  0  0  0  0  0
    6.7870   19.9419    3.4370 O   0  0  0  0  0  0  0  0  0  0  0  0
    5.9784   19.5339    3.8844 H   0  0  0  0  0  0  0  0  0  0  0  0
    9.4623   23.8184    3.8328 C   0  0  0  0  0  0  0  0  0  0  0  0
    8.5311   24.8797    4.2035 C   0  0  0  0  0  0  0  0  0  0  0  0
    8.0312   25.1092    5.4645 C   0  0  0  0  0  0  0  0  0  0  0  0
    7.1432   26.1445    5.7133 C   0  0  0  0  0  0  0  0  0  0  0  0
    6.7176   26.9934    4.7156 C   0  0  0  0  0  0  0  0  0  0  0  0
    5.8330   28.0121    5.0004 C   0  0  0  0  0  0  0  0  0  0  0  0
    5.3999   28.8670    4.0067 C   0  0  0  0  0  0  0  0  0  0  0  0
    5.8820   28.6634    2.7322 C   0  0  0  0  0  0  0  0  0  0  0  0
    6.7777   27.6316    2.4463 C   0  0  0  0  0  0  0  0  0  0  0  0
    7.2095   26.7773    3.4443 C   0  0  0  0  0  0  0  0  0  0  0  0
    8.0930   25.7456    3.2018 C   0  0  0  0  0  0  0  0  0  0  0  0
 10 11  1  0  0  0
 11 12  1  0  0  0
 12 13  1  0  0  0
 13 16  1  0  0  0
 16 17  2  0  0  0
 17 18  1  0  0  0
 18 19  2  0  0  0
 19 20  1  0  0  0
 20 21  2  0  0  0
 13 14  2  0  0  0
 14 15  1  0  0  0
 15  9  1  0  0  0
  9  8  1  0  0  0
  8  7  1  0  0  0
  7  1  1  0  0  0
  1  2  2  0  0  0
  2  3  1  0  0  0
  3  4  2  0  0  0
  4  5  1  0  0  0
  5 22  1  0  0  0
 22 23  1  0  0  0
 23 24  1  0  0  0
 24 25  1  0  0  0
 25 26  2  0  0  0
 25 27  1  0  0  0
 23 29  1  0  0  0
 29 30  1  0  0  0
 30 31  2  0  0  0
 31 32  1  0  0  0
 32 33  2  0  0  0
 33 34  1  0  0  0
 34 35  2  0  0  0
 35 36  1  0  0  0
 36 37  2  0  0  0
 37 38  1  0  0  0
 38 39  2  0  0  0
  5  6  2  0  0  0
 15 11  2  0  0  0
  6  1  1  0  0  0
 21 16  1  0  0  0
 39 30  1  0  0  0
 38 33  1  0  0  0
 27 28  1  0  0  0
M  END
> <minimizedAffinity>
-9.12413

> <CNNscore>
0.1720329523

> <CNNaffinity>
6.5074014664

> <CNN_VS>
1.1194875240

> <CNNaffinity_variance>
0.2733259797

$$$$
[H]OC(=O)C([H])([H])N(C([H])([H])c1c([H])c([H])c([H])c(OC([H])([H])C([H])([H])c2nc(-c3c([H])c([H])c([H])c([H])c3[H])oc2C([H])([H])[H])c1[H])C([H])([H])c1c([H])c([H])c2c([H])c([H])c([H])c([H])c2c1[H]


 39 43  0  0  0  0  0  0  0  0999 V2000
    9.1640   22.7743    2.4488 C   0  0  0  0  0  0  0  0  0  0  0  0
    8.2755   22.8020    1.4113 C   0  0  0  0  0  0  0  0  0  0  0  0
    8.6702   23.2899    0.1883 C   0  0  0  0  0  0  0  0  0  0  0  0
    9.9414   23.7610   -0.0501 C   0  0  0  0  0  0  0  0  0  0  0  0
   10.8605   23.7469    0.9729 C   0  0  0  0  0  0  0  0  0  0  0  0
   10.4555   23.2588    2.1871 C   0  0  0  0  0  0  0  0  0  0  0  0
    8.8578   22.3126    3.6863 O   0  0  0  0  0  0  0  0  0  0  0  0
    8.3303   22.8775    4.8074 C   0  0  0  0  0  0  0  0  0  0  0  0
    6.8452   22.9008    4.9563 C   0  0  0  0  0  0  0  0  0  0  0  0
    5.3285   24.3407    7.2961 C   0  0  0  0  0  0  0  0  0  0  0  0
    5.6443   24.9511    5.9921 C   0  0  0  0  0  0  0  0  0  0  0  0
    5.3547   26.1695    5.5940 O   0  0  0  0  0  0  0  0  0  0  0  0
    5.7915   26.3633    4.3747 C   0  0  0  0  0  0  0  0  0  0  0  0
    6.3817   25.2170    3.9892 N   0  0  0  0  0  0  0  0  0  0  0  0
    6.3158   24.3065    4.9622 C   0  0  0  0  0  0  0  0  0  0  0  0
    5.6731   27.5745    3.5743 C   0  0  0  0  0  0  0  0  0  0  0  0
    4.4378   28.0302    3.1636 C   0  0  0  0  0  0  0  0  0  0  0  0
    4.2990   29.1840    2.3967 C   0  0  0  0  0  0  0  0  0  0  0  0
    5.4173   29.8979    2.0319 C   0  0  0  0  0  0  0  0  0  0  0  0
    6.6512   29.4670    2.4263 C   0  0  0  0  0  0  0  0  0  0  0  0
    6.7749   28.3067    3.1962 C   0  0  0  0  0  0  0  0  0  0  0  0
   12.2161   24.2521    0.7281 C   0  0  0  0  0  0  0  0  0  0  0  0
   13.1035   23.3703    0.0493 N   0  0  0  0  0  0  0  0  0  0  0  0
   13.0008   22.0270    0.4956 C   0  0  0  0  0  0  0  0  0  0  0  0
   14.2333   21.2319    0.4166 C   0  0  0  0  0  0  0  0  0  0  0  0
   14.5346   20.4169   -0.4717 O   0  0  0  0  0  0  0  0  0  0  0  0
   15.1814   21.3977    1.4452 O   0  0  0  0  0  0  0  0  0  0  0  0
   15.3203   20.6548    2.1154 H   0  0  0  0  0  0  0  0  0  0  0  0
   13.1354   23.5634   -1.3699 C   0  0  0  0  0  0  0  0  0  0  0  0
   14.1824   24.4483   -1.8716 C   0  0  0  0  0  0  0  0  0  0  0  0
   15.4294   24.6178   -1.3156 C   0  0  0  0  0  0  0  0  0  0  0  0
   16.3546   25.4910   -1.8668 C   0  0  0  0  0  0  0  0  0  0  0  0
   16.0749   26.2305   -2.9946 C   0  0  0  0  0  0  0  0  0  0  0  0
   17.0199   27.0897   -3.5143 C   0  0  0  0  0  0  0  0  0  0  0  0
   16.7481   27.8358   -4.6435 C   0  0  0  0  0  0  0  0  0  0  0  0
   15.5073   27.6892   -5.2243 C   0  0  0  0  0  0  0  0  0  0  0  0
   14.5523   26.8185   -4.6965 C   0  0  0  0  0  0  0  0  0  0  0  0
   14.8282   26.0726   -3.5653 C   0  0  0  0  0  0  0  0  0  0  0  0
   13.9109   25.2023   -3.0130 C   0  0  0  0  0  0  0  0  0  0  0  0
 10 11  1  0  0  0
 11 12  1  0  0  0
 12 13  1  0  0  0
 13 16  1  0  0  0
 16 17  2  0  0  0
 17 18  1  0  0  0
 18 19  2  0  0  0
 19 20  1  0  0  0
 20 21  2  0  0  0
 13 14  2  0  0  0
 14 15  1  0  0  0
 15  9  1  0  0  0
  9  8  1  0  0  0
  8  7  1  0  0  0
  7  1  1  0  0  0
  1  2  2  0  0  0
  2  3  1  0  0  0
  3  4  2  0  0  0
  4  5  1  0  0  0
  5 22  1  0  0  0
 22 23  1  0  0  0
 23 24  1  0  0  0
 24 25  1  0  0  0
 25 26  2  0  0  0
 25 27  1  0  0  0
 23 29  1  0  0  0
 29 30  1  0  0  0
 30 31  2  0  0  0
 31 32  1  0  0  0
 32 33  2  0  0  0
 33 34  1  0  0  0
 34 35  2  0  0  0
 35 36  1  0  0  0
 36 37  2  0  0  0
 37 38  1  0  0  0
 38 39  2  0  0  0
  5  6  2  0  0  0
 15 11  2  0  0  0
  6  1  1  0  0  0
 21 16  1  0  0  0
 39 30  1  0  0  0
 38 33  1  0  0  0
 27 28  1  0  0  0
M  END
> <minimizedAffinity>
-10.01777

> <CNNscore>
0.1599726379

> <CNNaffinity>
6.4109597206

> <CNN_VS>
1.0255781412

> <CNNaffinity_variance>
0.3044865131

$$$$
[H]OC(=O)C([H])([H])N(C([H])([H])c1c([H])c([H])c([H])c(OC([H])([H])C([H])([H])c2nc(-c3c([H])c([H])c([H])c([H])c3[H])oc2C([H])([H])[H])c1[H])C([H])([H])c1c([H])c([H])c2c([H])c([H])c([H])c([H])c2c1[H]


 39 43  0  0  0  0  0  0  0  0999 V2000
    9.6898   22.3981    1.0055 C   0  0  0  0  0  0  0  0  0  0  0  0
   10.0921   23.6732    0.7249 C   0  0  0  0  0  0  0  0  0  0  0  0
   10.1302   24.6126    1.7277 C   0  0  0  0  0  0  0  0  0  0  0  0
    9.7774   24.3284    3.0276 C   0  0  0  0  0  0  0  0  0  0  0  0
    9.3681   23.0541    3.3440 C   0  0  0  0  0  0  0  0  0  0  0  0
    9.3338   22.1268    2.3362 C   0  0  0  0  0  0  0  0  0  0  0  0
    9.6208   21.4121    0.0774 O   0  0  0  0  0  0  0  0  0  0  0  0
   10.5229   20.8330   -0.7624 C   0  0  0  0  0  0  0  0  0  0  0  0
   11.9045   20.5849   -0.2545 C   0  0  0  0  0  0  0  0  0  0  0  0
   14.8876   20.9790    0.6367 C   0  0  0  0  0  0  0  0  0  0  0  0
   14.1870   21.8089   -0.3599 C   0  0  0  0  0  0  0  0  0  0  0  0
   14.6756   22.8284   -1.0298 O   0  0  0  0  0  0  0  0  0  0  0  0
   13.7638   23.3243   -1.8284 C   0  0  0  0  0  0  0  0  0  0  0  0
   12.6534   22.5843   -1.6534 N   0  0  0  0  0  0  0  0  0  0  0  0
   12.8666   21.6275   -0.7482 C   0  0  0  0  0  0  0  0  0  0  0  0
   13.9029   24.4542   -2.7370 C   0  0  0  0  0  0  0  0  0  0  0  0
   14.8797   24.4597   -3.7107 C   0  0  0  0  0  0  0  0  0  0  0  0
   15.0337   25.5284   -4.5897 C   0  0  0  0  0  0  0  0  0  0  0  0
   14.1948   26.6149   -4.4944 C   0  0  0  0  0  0  0  0  0  0  0  0
   13.2199   26.6328   -3.5389 C   0  0  0  0  0  0  0  0  0  0  0  0
   13.0773   25.5523   -2.6633 C   0  0  0  0  0  0  0  0  0  0  0  0
    8.9855   22.7445    4.7262 C   0  0  0  0  0  0  0  0  0  0  0  0
    7.6283   22.9947    5.0748 N   0  0  0  0  0  0  0  0  0  0  0  0
    6.9429   21.8304    5.5092 C   0  0  0  0  0  0  0  0  0  0  0  0
    6.4490   20.9460    4.4456 C   0  0  0  0  0  0  0  0  0  0  0  0
    5.3876   21.0696    3.8114 O   0  0  0  0  0  0  0  0  0  0  0  0
    7.2477   19.8394    4.0966 O   0  0  0  0  0  0  0  0  0  0  0  0
    6.9417   18.9094    4.3454 H   0  0  0  0  0  0  0  0  0  0  0  0
    7.4448   24.1702    5.8728 C   0  0  0  0  0  0  0  0  0  0  0  0
    6.6271   25.2243    5.2802 C   0  0  0  0  0  0  0  0  0  0  0  0
    5.2824   25.4188    5.4962 C   0  0  0  0  0  0  0  0  0  0  0  0
    4.5922   26.4504    4.8782 C   0  0  0  0  0  0  0  0  0  0  0  0
    5.2140   27.3302    4.0201 C   0  0  0  0  0  0  0  0  0  0  0  0
    4.4950   28.3439    3.4230 C   0  0  0  0  0  0  0  0  0  0  0  0
    5.1095   29.2297    2.5607 C   0  0  0  0  0  0  0  0  0  0  0  0
    6.4562   29.0616    2.3229 C   0  0  0  0  0  0  0  0  0  0  0  0
    7.1821   28.0346    2.9288 C   0  0  0  0  0  0  0  0  0  0  0  0
    6.5632   27.1494    3.7922 C   0  0  0  0  0  0  0  0  0  0  0  0
    7.2456   26.1213    4.4097 C   0  0  0  0  0  0  0  0  0  0  0  0
 10 11  1  0  0  0
 11 12  1  0  0  0
 12 13  1  0  0  0
 13 16  1  0  0  0
 16 17  2  0  0  0
 17 18  1  0  0  0
 18 19  2  0  0  0
 19 20  1  0  0  0
 20 21  2  0  0  0
 13 14  2  0  0  0
 14 15  1  0  0  0
 15  9  1  0  0  0
  9  8  1  0  0  0
  8  7  1  0  0  0
  7  1  1  0  0  0
  1  2  2  0  0  0
  2  3  1  0  0  0
  3  4  2  0  0  0
  4  5  1  0  0  0
  5 22  1  0  0  0
 22 23  1  0  0  0
 23 24  1  0  0  0
 24 25  1  0  0  0
 25 26  2  0  0  0
 25 27  1  0  0  0
 23 29  1  0  0  0
 29 30  1  0  0  0
 30 31  2  0  0  0
 31 32  1  0  0  0
 32 33  2  0  0  0
 33 34  1  0  0  0
 34 35  2  0  0  0
 35 36  1  0  0  0
 36 37  2  0  0  0
 37 38  1  0  0  0
 38 39  2  0  0  0
  5  6  2  0  0  0
 15 11  2  0  0  0
  6  1  1  0  0  0
 21 16  1  0  0  0
 39 30  1  0  0  0
 38 33  1  0  0  0
 27 28  1  0  0  0
M  END
> <minimizedAffinity>
-9.71773

> <CNNscore>
0.1454051733

> <CNNaffinity>
6.5061707497

> <CNN_VS>
0.9460309148

> <CNNaffinity_variance>
0.1950637847

$$$$
[H]OC(=O)C([H])([H])N(C([H])([H])c1c([H])c([H])c([H])c(OC([H])([H])C([H])([H])c2nc(-c3c([H])c([H])c([H])c([H])c3[H])oc2C([H])([H])[H])c1[H])C([H])([H])c1c([H])c([H])c2c([H])c([H])c([H])c([H])c2c1[H]


 39 43  0  0  0  0  0  0  0  0999 V2000
   10.2316   23.4400    1.1427 C   0  0  0  0  0  0  0  0  0  0  0  0
   10.7586   24.6954    1.2561 C   0  0  0  0  0  0  0  0  0  0  0  0
   11.8776   25.0332    0.5329 C   0  0  0  0  0  0  0  0  0  0  0  0
   12.5075   24.1535   -0.3182 C   0  0  0  0  0  0  0  0  0  0  0  0
   12.0024   22.8817   -0.4557 C   0  0  0  0  0  0  0  0  0  0  0  0
   10.8872   22.5566    0.2704 C   0  0  0  0  0  0  0  0  0  0  0  0
    9.1335   23.0236    1.8202 O   0  0  0  0  0  0  0  0  0  0  0  0
    8.6084   21.8035    2.1203 C   0  0  0  0  0  0  0  0  0  0  0  0
    7.2299   21.7473    2.6903 C   0  0  0  0  0  0  0  0  0  0  0  0
    5.6256   19.2787    3.7770 C   0  0  0  0  0  0  0  0  0  0  0  0
    5.6337   19.7298    2.3736 C   0  0  0  0  0  0  0  0  0  0  0  0
    4.9887   19.1925    1.3626 O   0  0  0  0  0  0  0  0  0  0  0  0
    5.2326   19.8611    0.2632 C   0  0  0  0  0  0  0  0  0  0  0  0
    6.0671   20.8626    0.5975 N   0  0  0  0  0  0  0  0  0  0  0  0
    6.3467   20.8233    1.9014 C   0  0  0  0  0  0  0  0  0  0  0  0
    4.7125   19.5916   -1.0703 C   0  0  0  0  0  0  0  0  0  0  0  0
    5.0880   20.3712   -2.1444 C   0  0  0  0  0  0  0  0  0  0  0  0
    4.6035   20.1346   -3.4280 C   0  0  0  0  0  0  0  0  0  0  0  0
    3.7251   19.0977   -3.6440 C   0  0  0  0  0  0  0  0  0  0  0  0
    3.3384   18.3118   -2.5968 C   0  0  0  0  0  0  0  0  0  0  0  0
    3.8335   18.5615   -1.3135 C   0  0  0  0  0  0  0  0  0  0  0  0
   12.6710   21.9365   -1.3569 C   0  0  0  0  0  0  0  0  0  0  0  0
   14.0941   21.9677   -1.3589 N   0  0  0  0  0  0  0  0  0  0  0  0
   14.6738   20.9039   -0.6198 C   0  0  0  0  0  0  0  0  0  0  0  0
   14.9118   21.1715    0.8047 C   0  0  0  0  0  0  0  0  0  0  0  0
   15.9175   21.7067    1.3009 O   0  0  0  0  0  0  0  0  0  0  0  0
   13.9077   20.7880    1.7152 O   0  0  0  0  0  0  0  0  0  0  0  0
   14.0713   20.0054    2.3326 H   0  0  0  0  0  0  0  0  0  0  0  0
   14.6638   22.2250   -2.6479 C   0  0  0  0  0  0  0  0  0  0  0  0
   15.1789   23.5741   -2.8617 C   0  0  0  0  0  0  0  0  0  0  0  0
   15.8377   24.3425   -1.9299 C   0  0  0  0  0  0  0  0  0  0  0  0
   16.2840   25.6201   -2.2310 C   0  0  0  0  0  0  0  0  0  0  0  0
   16.0923   26.1839   -3.4730 C   0  0  0  0  0  0  0  0  0  0  0  0
   16.5497   27.4578   -3.7360 C   0  0  0  0  0  0  0  0  0  0  0  0
   16.3610   28.0315   -4.9774 C   0  0  0  0  0  0  0  0  0  0  0  0
   15.7039   27.2877   -5.9330 C   0  0  0  0  0  0  0  0  0  0  0  0
   15.2420   25.9980   -5.6645 C   0  0  0  0  0  0  0  0  0  0  0  0
   15.4330   25.4265   -4.4199 C   0  0  0  0  0  0  0  0  0  0  0  0
   14.9907   24.1555   -4.1154 C   0  0  0  0  0  0  0  0  0  0  0  0
 10 11  1  0  0  0
 11 12  1  0  0  0
 12 13  1  0  0  0
 13 16  1  0  0  0
 16 17  2  0  0  0
 17 18  1  0  0  0
 18 19  2  0  0  0
 19 20  1  0  0  0
 20 21  2  0  0  0
 13 14  2  0  0  0
 14 15  1  0  0  0
 15  9  1  0  0  0
  9  8  1  0  0  0
  8  7  1  0  0  0
  7  1  1  0  0  0
  1  2  2  0  0  0
  2  3  1  0  0  0
  3  4  2  0  0  0
  4  5  1  0  0  0
  5 22  1  0  0  0
 22 23  1  0  0  0
 23 24  1  0  0  0
 24 25  1  0  0  0
 25 26  2  0  0  0
 25 27  1  0  0  0
 23 29  1  0  0  0
 29 30  1  0  0  0
 30 31  2  0  0  0
 31 32  1  0  0  0
 32 33  2  0  0  0
 33 34  1  0  0  0
 34 35  2  0  0  0
 35 36  1  0  0  0
 36 37  2  0  0  0
 37 38  1  0  0  0
 38 39  2  0  0  0
  5  6  2  0  0  0
 15 11  2  0  0  0
  6  1  1  0  0  0
 21 16  1  0  0  0
 39 30  1  0  0  0
 38 33  1  0  0  0
 27 28  1  0  0  0
M  END
> <minimizedAffinity>
-9.97443

> <CNNscore>
0.1338676363

> <CNNaffinity>
6.7508621216

> <CNN_VS>
0.9037219286

> <CNNaffinity_variance>
0.2061447203

$$$$
[H]c1nc([H])c(N([H])C2([H])C([H])([H])N(C(=O)c3c(C([H])([H])[H])noc3C([H])([H])[H])C2([H])[H])c([H])c1N1C(=O)c2c([H])c([H])c(Cl)c([H])c2C([H])([H])C1([H])[H]


 33 37  0  0  0  0  0  0  0  0999 V2000
    8.4762   23.6584    0.6530 C   0  0  0  0  0  0  0  0  0  0  0  0
    8.6440   24.0516    1.9890 C   0  0  0  0  0  0  0  0  0  0  0  0
    9.8141   24.5658    2.3966 N   0  0  0  0  0  0  0  0  0  0  0  0
   10.8577   24.7207    1.5451 C   0  0  0  0  0  0  0  0  0  0  0  0
   10.7666   24.3565    0.2159 C   0  0  0  0  0  0  0  0  0  0  0  0
    9.5448   23.8220   -0.1989 C   0  0  0  0  0  0  0  0  0  0  0  0
   11.8484   24.5264   -0.6850 N   0  0  0  0  0  0  0  0  0  0  0  0
   11.5355   24.8915   -2.0491 C   0  0  0  0  0  0  0  0  0  0  0  0
   12.5484   25.7960   -2.6646 C   0  0  0  0  0  0  0  0  0  0  0  0
   13.9126   25.6153   -2.1305 C   0  0  0  0  0  0  0  0  0  0  0  0
   14.9393   26.1961   -2.8721 C   0  0  0  0  0  0  0  0  0  0  0  0
   16.2708   26.0794   -2.4595 C   0  0  0  0  0  0  0  0  0  0  0  0
   17.5737   26.8074   -3.3816 Cl  0  0  0  0  0  0  0  0  0  0  0  0
   16.6092   25.3860   -1.3068 C   0  0  0  0  0  0  0  0  0  0  0  0
   15.5589   24.8208   -0.5937 C   0  0  0  0  0  0  0  0  0  0  0  0
   14.2502   24.9396   -1.0044 C   0  0  0  0  0  0  0  0  0  0  0  0
   13.1791   24.3425   -0.2050 C   0  0  0  0  0  0  0  0  0  0  0  0
   13.4484   23.7099    0.8402 O   0  0  0  0  0  0  0  0  0  0  0  0
    7.2278   23.1292    0.2598 N   0  0  0  0  0  0  0  0  0  0  0  0
    6.4659   23.7987   -0.0067 H   0  0  0  0  0  0  0  0  0  0  0  0
   10.0292   20.7419    1.6541 C   0  0  0  0  0  0  0  0  0  0  0  0
    9.7837   20.7632    2.9679 O   0  0  0  0  0  0  0  0  0  0  0  0
    8.8363   20.8635    0.9312 N   0  0  0  0  0  0  0  0  0  0  0  0
    7.4388   20.9780    1.4792 C   0  0  0  0  0  0  0  0  0  0  0  0
    7.0322   21.6916    0.2332 C   0  0  0  0  0  0  0  0  0  0  0  0
    8.2397   20.9473   -0.3442 C   0  0  0  0  0  0  0  0  0  0  0  0
   12.2435   19.8976    3.6464 C   0  0  0  0  0  0  0  0  0  0  0  0
   12.3981   20.2146    2.1981 C   0  0  0  0  0  0  0  0  0  0  0  0
   13.5610   20.1671    1.5330 N   0  0  0  0  0  0  0  0  0  0  0  0
   13.3645   20.4861    0.3234 O   0  0  0  0  0  0  0  0  0  0  0  0
   12.0644   20.7615    0.1195 C   0  0  0  0  0  0  0  0  0  0  0  0
   11.5531   21.1579   -1.1941 C   0  0  0  0  0  0  0  0  0  0  0  0
   11.3958   20.6047    1.2863 C   0  0  0  0  0  0  0  0  0  0  0  0
 27 28  1  0  0  0
 28 29  2  0  0  0
 29 30  1  0  0  0
 30 31  1  0  0  0
 31 32  1  0  0  0
 31 33  2  0  0  0
 33 21  1  0  0  0
 21 22  2  0  0  0
 21 23  1  0  0  0
 23 24  1  0  0  0
 24 25  1  0  0  0
 25 19  1  0  0  0
 19  1  1  0  0  0
  1  2  2  0  0  0
  2  3  1  0  0  0
  3  4  2  0  0  0
  4  5  1  0  0  0
  5  7  1  0  0  0
  7  8  1  0  0  0
  8  9  1  0  0  0
  9 10  1  0  0  0
 10 11  2  0  0  0
 11 12  1  0  0  0
 12 13  1  0  0  0
 12 14  2  0  0  0
 14 15  1  0  0  0
 15 16  2  0  0  0
 16 17  1  0  0  0
 17 18  2  0  0  0
  5  6  2  0  0  0
 25 26  1  0  0  0
 33 28  1  0  0  0
 26 23  1  0  0  0
  6  1  1  0  0  0
 17  7  1  0  0  0
 16 10  1  0  0  0
 19 20  1  0  0  0
M  END
> <minimizedAffinity>
-5.66616

> <CNNscore>
0.4701798856

> <CNNaffinity>
7.2910180092

> <CNN_VS>
3.4280900955

> <CNNaffinity_variance>
0.2228039950

$$$$
[H]c1nc([H])c(N([H])C2([H])C([H])([H])N(C(=O)c3c(C([H])([H])[H])noc3C([H])([H])[H])C2([H])[H])c([H])c1N1C(=O)c2c([H])c([H])c(Cl)c([H])c2C([H])([H])C1([H])[H]


 33 37  0  0  0  0  0  0  0  0999 V2000
   12.8799   21.3009    0.0924 C   0  0  0  0  0  0  0  0  0  0  0  0
   13.7081   21.0211    1.1894 C   0  0  0  0  0  0  0  0  0  0  0  0
   14.9635   21.4930    1.2215 N   0  0  0  0  0  0  0  0  0  0  0  0
   15.4667   22.2443    0.2114 C   0  0  0  0  0  0  0  0  0  0  0  0
   14.7107   22.5606   -0.9004 C   0  0  0  0  0  0  0  0  0  0  0  0
   13.4053   22.0648   -0.9248 C   0  0  0  0  0  0  0  0  0  0  0  0
   15.2241   23.3562   -1.9559 N   0  0  0  0  0  0  0  0  0  0  0  0
   15.0339   22.8813   -3.3088 C   0  0  0  0  0  0  0  0  0  0  0  0
   14.8197   23.9792   -4.2945 C   0  0  0  0  0  0  0  0  0  0  0  0
   15.4831   25.2464   -3.9299 C   0  0  0  0  0  0  0  0  0  0  0  0
   15.5821   26.1963   -4.9444 C   0  0  0  0  0  0  0  0  0  0  0  0
   16.1990   27.4294   -4.7085 C   0  0  0  0  0  0  0  0  0  0  0  0
   16.3289   28.6361   -5.9753 Cl  0  0  0  0  0  0  0  0  0  0  0  0
   16.7286   27.7435   -3.4656 C   0  0  0  0  0  0  0  0  0  0  0  0
   16.6110   26.7717   -2.4792 C   0  0  0  0  0  0  0  0  0  0  0  0
   16.0021   25.5601   -2.7171 C   0  0  0  0  0  0  0  0  0  0  0  0
   15.8860   24.5790   -1.6369 C   0  0  0  0  0  0  0  0  0  0  0  0
   16.3527   24.8291   -0.5034 O   0  0  0  0  0  0  0  0  0  0  0  0
   11.5623   20.7939    0.0984 N   0  0  0  0  0  0  0  0  0  0  0  0
   11.2624   20.1989    0.9081 H   0  0  0  0  0  0  0  0  0  0  0  0
    7.9202   22.0874    0.8419 C   0  0  0  0  0  0  0  0  0  0  0  0
    8.1268   23.3901    1.0585 O   0  0  0  0  0  0  0  0  0  0  0  0
    8.8271   21.5989   -0.1064 N   0  0  0  0  0  0  0  0  0  0  0  0
    9.8912   22.3701   -0.8409 C   0  0  0  0  0  0  0  0  0  0  0  0
   10.6669   21.1052   -1.0002 C   0  0  0  0  0  0  0  0  0  0  0  0
    9.2829   20.4736   -0.8243 C   0  0  0  0  0  0  0  0  0  0  0  0
    7.9146   21.9392    3.9343 C   0  0  0  0  0  0  0  0  0  0  0  0
    6.8660   21.4405    2.9997 C   0  0  0  0  0  0  0  0  0  0  0  0
    5.7292   20.8443    3.3862 N   0  0  0  0  0  0  0  0  0  0  0  0
    5.0475   20.5402    2.3634 O   0  0  0  0  0  0  0  0  0  0  0  0
    5.6919   20.9170    1.2451 C   0  0  0  0  0  0  0  0  0  0  0  0
    5.1292   20.6892   -0.0875 C   0  0  0  0  0  0  0  0  0  0  0  0
    6.8641   21.4997    1.5908 C   0  0  0  0  0  0  0  0  0  0  0  0
 27 28  1  0  0  0
 28 29  2  0  0  0
 29 30  1  0  0  0
 30 31  1  0  0  0
 31 32  1  0  0  0
 31 33  2  0  0  0
 33 21  1  0  0  0
 21 22  2  0  0  0
 21 23  1  0  0  0
 23 24  1  0  0  0
 24 25  1  0  0  0
 25 19  1  0  0  0
 19  1  1  0  0  0
  1  2  2  0  0  0
  2  3  1  0  0  0
  3  4  2  0  0  0
  4  5  1  0  0  0
  5  7  1  0  0  0
  7  8  1  0  0  0
  8  9  1  0  0  0
  9 10  1  0  0  0
 10 11  2  0  0  0
 11 12  1  0  0  0
 12 13  1  0  0  0
 12 14  2  0  0  0
 14 15  1  0  0  0
 15 16  2  0  0  0
 16 17  1  0  0  0
 17 18  2  0  0  0
  5  6  2  0  0  0
 25 26  1  0  0  0
 33 28  1  0  0  0
 26 23  1  0  0  0
  6  1  1  0  0  0
 17  7  1  0  0  0
 16 10  1  0  0  0
 19 20  1  0  0  0
M  END
> <minimizedAffinity>
-7.65999

> <CNNscore>
0.3537618518

> <CNNaffinity>
7.4773988724

> <CNN_VS>
2.6452183723

> <CNNaffinity_variance>
0.4507125020

$$$$
[H]c1nc([H])c(N([H])C2([H])C([H])([H])N(C(=O)c3c(C([H])([H])[H])noc3C([H])([H])[H])C2([H])[H])c([H])c1N1C(=O)c2c([H])c([H])c(Cl)c([H])c2C([H])([H])C1([H])[H]


 33 37  0  0  0  0  0  0  0  0999 V2000
   11.5896   20.9295    0.1574 C   0  0  0  0  0  0  0  0  0  0  0  0
   12.4730   20.9375    1.2470 C   0  0  0  0  0  0  0  0  0  0  0  0
   13.4838   21.8186    1.2866 N   0  0  0  0  0  0  0  0  0  0  0  0
   13.6831   22.7170    0.2910 C   0  0  0  0  0  0  0  0  0  0  0  0
   12.8545   22.7688   -0.8128 C   0  0  0  0  0  0  0  0  0  0  0  0
   11.8052   21.8476   -0.8450 C   0  0  0  0  0  0  0  0  0  0  0  0
   13.0475   23.7132   -1.8528 N   0  0  0  0  0  0  0  0  0  0  0  0
   12.1528   24.8486   -1.9037 C   0  0  0  0  0  0  0  0  0  0  0  0
   12.8118   26.0976   -2.3818 C   0  0  0  0  0  0  0  0  0  0  0  0
   13.9313   25.8622   -3.3146 C   0  0  0  0  0  0  0  0  0  0  0  0
   14.3742   26.9742   -4.0280 C   0  0  0  0  0  0  0  0  0  0  0  0
   15.4251   26.8610   -4.9442 C   0  0  0  0  0  0  0  0  0  0  0  0
   15.9951   28.2526   -5.8477 Cl  0  0  0  0  0  0  0  0  0  0  0  0
   16.0553   25.6462   -5.1706 C   0  0  0  0  0  0  0  0  0  0  0  0
   15.5864   24.5603   -4.4410 C   0  0  0  0  0  0  0  0  0  0  0  0
   14.5521   24.6780   -3.5401 C   0  0  0  0  0  0  0  0  0  0  0  0
   14.1102   23.5064   -2.7817 C   0  0  0  0  0  0  0  0  0  0  0  0
   14.6561   22.3952   -2.9609 O   0  0  0  0  0  0  0  0  0  0  0  0
   10.5332   19.9930    0.1554 N   0  0  0  0  0  0  0  0  0  0  0  0
   10.6229   19.1413    0.7606 H   0  0  0  0  0  0  0  0  0  0  0  0
    7.3219   21.6432    1.7224 C   0  0  0  0  0  0  0  0  0  0  0  0
    7.6291   22.9434    1.6805 O   0  0  0  0  0  0  0  0  0  0  0  0
    7.8899   20.9706    0.6336 N   0  0  0  0  0  0  0  0  0  0  0  0
    8.7156   21.5592   -0.4792 C   0  0  0  0  0  0  0  0  0  0  0  0
    9.3644   20.2290   -0.6716 C   0  0  0  0  0  0  0  0  0  0  0  0
    8.0731   19.7318   -0.0154 C   0  0  0  0  0  0  0  0  0  0  0  0
    4.8812   19.7614    1.4266 C   0  0  0  0  0  0  0  0  0  0  0  0
    5.4074   20.3757    2.6786 C   0  0  0  0  0  0  0  0  0  0  0  0
    4.8802   20.1827    3.8959 N   0  0  0  0  0  0  0  0  0  0  0  0
    5.5503   20.8343    4.7503 O   0  0  0  0  0  0  0  0  0  0  0  0
    6.5563   21.4933    4.1491 C   0  0  0  0  0  0  0  0  0  0  0  0
    7.4948   22.3281    4.9018 C   0  0  0  0  0  0  0  0  0  0  0  0
    6.5146   21.2374    2.8203 C   0  0  0  0  0  0  0  0  0  0  0  0
 27 28  1  0  0  0
 28 29  2  0  0  0
 29 30  1  0  0  0
 30 31  1  0  0  0
 31 32  1  0  0  0
 31 33  2  0  0  0
 33 21  1  0  0  0
 21 22  2  0  0  0
 21 23  1  0  0  0
 23 24  1  0  0  0
 24 25  1  0  0  0
 25 19  1  0  0  0
 19  1  1  0  0  0
  1  2  2  0  0  0
  2  3  1  0  0  0
  3  4  2  0  0  0
  4  5  1  0  0  0
  5  7  1  0  0  0
  7  8  1  0  0  0
  8  9  1  0  0  0
  9 10  1  0  0  0
 10 11  2  0  0  0
 11 12  1  0  0  0
 12 13  1  0  0  0
 12 14  2  0  0  0
 14 15  1  0  0  0
 15 16  2  0  0  0
 16 17  1  0  0  0
 17 18  2  0  0  0
  5  6  2  0  0  0
 25 26  1  0  0  0
 33 28  1  0  0  0
 26 23  1  0  0  0
  6  1  1  0  0  0
 17  7  1  0  0  0
 16 10  1  0  0  0
 19 20  1  0  0  0
M  END
> <minimizedAffinity>
-8.15386

> <CNNscore>
0.3080852330

> <CNNaffinity>
6.9830207825

> <CNN_VS>
2.1513655186

> <CNNaffinity_variance>
0.5259312391

$$$$
[H]c1nc([H])c(N([H])C2([H])C([H])([H])N(C(=O)c3c(C([H])([H])[H])noc3C([H])([H])[H])C2([H])[H])c([H])c1N1C(=O)c2c([H])c([H])c(Cl)c([H])c2C([H])([H])C1([H])[H]


 33 37  0  0  0  0  0  0  0  0999 V2000
    8.6958   23.4409    0.4568 C   0  0  0  0  0  0  0  0  0  0  0  0
    8.6697   24.1197    1.6840 C   0  0  0  0  0  0  0  0  0  0  0  0
    9.7735   24.7336    2.1363 N   0  0  0  0  0  0  0  0  0  0  0  0
   10.9332   24.7193    1.4342 C   0  0  0  0  0  0  0  0  0  0  0  0
   11.0345   24.0716    0.2184 C   0  0  0  0  0  0  0  0  0  0  0  0
    9.8804   23.4354   -0.2439 C   0  0  0  0  0  0  0  0  0  0  0  0
   12.2395   24.0619   -0.5290 N   0  0  0  0  0  0  0  0  0  0  0  0
   13.1189   22.9246   -0.3706 C   0  0  0  0  0  0  0  0  0  0  0  0
   13.8352   22.5538   -1.6246 C   0  0  0  0  0  0  0  0  0  0  0  0
   14.0832   23.6935   -2.5293 C   0  0  0  0  0  0  0  0  0  0  0  0
   15.0074   23.4726   -3.5484 C   0  0  0  0  0  0  0  0  0  0  0  0
   15.3221   24.4880   -4.4576 C   0  0  0  0  0  0  0  0  0  0  0  0
   16.4817   24.2239   -5.7473 Cl  0  0  0  0  0  0  0  0  0  0  0  0
   14.7283   25.7389   -4.3740 C   0  0  0  0  0  0  0  0  0  0  0  0
   13.8122   25.9215   -3.3452 C   0  0  0  0  0  0  0  0  0  0  0  0
   13.5060   24.9181   -2.4537 C   0  0  0  0  0  0  0  0  0  0  0  0
   12.5178   25.1566   -1.4003 C   0  0  0  0  0  0  0  0  0  0  0  0
   11.9630   26.2729   -1.2955 O   0  0  0  0  0  0  0  0  0  0  0  0
    7.5122   22.8140    0.0102 N   0  0  0  0  0  0  0  0  0  0  0  0
    6.7710   23.4093   -0.4323 H   0  0  0  0  0  0  0  0  0  0  0  0
    8.4811   21.1021    3.4193 C   0  0  0  0  0  0  0  0  0  0  0  0
    7.3891   21.3187    4.1591 O   0  0  0  0  0  0  0  0  0  0  0  0
    8.1351   20.9354    2.0728 N   0  0  0  0  0  0  0  0  0  0  0  0
    6.7554   20.9556    1.4707 C   0  0  0  0  0  0  0  0  0  0  0  0
    7.3529   21.3807    0.1709 C   0  0  0  0  0  0  0  0  0  0  0  0
    8.6004   20.7154    0.7596 C   0  0  0  0  0  0  0  0  0  0  0  0
    9.1972   23.1678    5.6114 C   0  0  0  0  0  0  0  0  0  0  0  0
   10.0293   22.0281    5.1314 C   0  0  0  0  0  0  0  0  0  0  0  0
   11.2451   21.7252    5.6082 N   0  0  0  0  0  0  0  0  0  0  0  0
   11.6902   20.7063    5.0022 O   0  0  0  0  0  0  0  0  0  0  0  0
   10.7971   20.2777    4.0932 C   0  0  0  0  0  0  0  0  0  0  0  0
   11.0521   19.1101    3.2471 C   0  0  0  0  0  0  0  0  0  0  0  0
    9.7122   21.0869    4.1304 C   0  0  0  0  0  0  0  0  0  0  0  0
 27 28  1  0  0  0
 28 29  2  0  0  0
 29 30  1  0  0  0
 30 31  1  0  0  0
 31 32  1  0  0  0
 31 33  2  0  0  0
 33 21  1  0  0  0
 21 22  2  0  0  0
 21 23  1  0  0  0
 23 24  1  0  0  0
 24 25  1  0  0  0
 25 19  1  0  0  0
 19  1  1  0  0  0
  1  2  2  0  0  0
  2  3  1  0  0  0
  3  4  2  0  0  0
  4  5  1  0  0  0
  5  7  1  0  0  0
  7  8  1  0  0  0
  8  9  1  0  0  0
  9 10  1  0  0  0
 10 11  2  0  0  0
 11 12  1  0  0  0
 12 13  1  0  0  0
 12 14  2  0  0  0
 14 15  1  0  0  0
 15 16  2  0  0  0
 16 17  1  0  0  0
 17 18  2  0  0  0
  5  6  2  0  0  0
 25 26  1  0  0  0
 33 28  1  0  0  0
 26 23  1  0  0  0
  6  1  1  0  0  0
 17  7  1  0  0  0
 16 10  1  0  0  0
 19 20  1  0  0  0
M  END
> <minimizedAffinity>
-4.56342

> <CNNscore>
0.2894552350

> <CNNaffinity>
6.7944564819

> <CNN_VS>
1.9666910172

> <CNNaffinity_variance>
0.5785257220

$$$$
[H]c1nc([H])c(N([H])C2([H])C([H])([H])N(C(=O)c3c(C([H])([H])[H])noc3C([H])([H])[H])C2([H])[H])c([H])c1N1C(=O)c2c([H])c([H])c(Cl)c([H])c2C([H])([H])C1([H])[H]


 33 37  0  0  0  0  0  0  0  0999 V2000
   11.5762   21.3249    1.2580 C   0  0  0  0  0  0  0  0  0  0  0  0
   12.7376   20.7329    1.7759 C   0  0  0  0  0  0  0  0  0  0  0  0
   13.9316   21.0022    1.2267 N   0  0  0  0  0  0  0  0  0  0  0  0
   14.0548   21.8421    0.1697 C   0  0  0  0  0  0  0  0  0  0  0  0
   12.9562   22.4617   -0.3933 C   0  0  0  0  0  0  0  0  0  0  0  0
   11.7177   22.1751    0.1850 C   0  0  0  0  0  0  0  0  0  0  0  0
   13.0766   23.3515   -1.4909 N   0  0  0  0  0  0  0  0  0  0  0  0
   12.1704   24.4775   -1.5452 C   0  0  0  0  0  0  0  0  0  0  0  0
   12.7876   25.7036   -2.1272 C   0  0  0  0  0  0  0  0  0  0  0  0
   13.8498   25.4261   -3.1139 C   0  0  0  0  0  0  0  0  0  0  0  0
   14.2381   26.5017   -3.9100 C   0  0  0  0  0  0  0  0  0  0  0  0
   15.2318   26.3468   -4.8823 C   0  0  0  0  0  0  0  0  0  0  0  0
   15.7328   27.6924   -5.8902 Cl  0  0  0  0  0  0  0  0  0  0  0  0
   15.8577   25.1254   -5.0838 C   0  0  0  0  0  0  0  0  0  0  0  0
   15.4443   24.0765   -4.2713 C   0  0  0  0  0  0  0  0  0  0  0  0
   14.4662   24.2353   -3.3156 C   0  0  0  0  0  0  0  0  0  0  0  0
   14.0821   23.1025   -2.4716 C   0  0  0  0  0  0  0  0  0  0  0  0
   14.6260   21.9865   -2.6262 O   0  0  0  0  0  0  0  0  0  0  0  0
   10.3390   21.0235    1.8678 N   0  0  0  0  0  0  0  0  0  0  0  0
   10.2098   20.0704    2.2854 H   0  0  0  0  0  0  0  0  0  0  0  0
    6.6881   20.0875    0.7338 C   0  0  0  0  0  0  0  0  0  0  0  0
    6.1932   19.5148    1.8355 O   0  0  0  0  0  0  0  0  0  0  0  0
    7.5942   21.0996    1.0729 N   0  0  0  0  0  0  0  0  0  0  0  0
    7.9865   21.5553    2.4531 C   0  0  0  0  0  0  0  0  0  0  0  0
    9.2911   22.0267    1.9027 C   0  0  0  0  0  0  0  0  0  0  0  0
    8.4894   22.0812    0.5990 C   0  0  0  0  0  0  0  0  0  0  0  0
    4.8730   21.6961   -1.1906 C   0  0  0  0  0  0  0  0  0  0  0  0
    5.3842   20.3079   -1.3727 C   0  0  0  0  0  0  0  0  0  0  0  0
    5.1247   19.5398   -2.4403 N   0  0  0  0  0  0  0  0  0  0  0  0
    5.7012   18.4210   -2.3010 O   0  0  0  0  0  0  0  0  0  0  0  0
    6.3735   18.3851   -1.1372 C   0  0  0  0  0  0  0  0  0  0  0  0
    7.1361   17.2071   -0.7189 C   0  0  0  0  0  0  0  0  0  0  0  0
    6.2065   19.5673   -0.4987 C   0  0  0  0  0  0  0  0  0  0  0  0
 27 28  1  0  0  0
 28 29  2  0  0  0
 29 30  1  0  0  0
 30 31  1  0  0  0
 31 32  1  0  0  0
 31 33  2  0  0  0
 33 21  1  0  0  0
 21 22  2  0  0  0
 21 23  1  0  0  0
 23 24  1  0  0  0
 24 25  1  0  0  0
 25 19  1  0  0  0
 19  1  1  0  0  0
  1  2  2  0  0  0
  2  3  1  0  0  0
  3  4  2  0  0  0
  4  5  1  0  0  0
  5  7  1  0  0  0
  7  8  1  0  0  0
  8  9  1  0  0  0
  9 10  1  0  0  0
 10 11  2  0  0  0
 11 12  1  0  0  0
 12 13  1  0  0  0
 12 14  2  0  0  0
 14 15  1  0  0  0
 15 16  2  0  0  0
 16 17  1  0  0  0
 17 18  2  0  0  0
  5  6  2  0  0  0
 25 26  1  0  0  0
 33 28  1  0  0  0
 26 23  1  0  0  0
  6  1  1  0  0  0
 17  7  1  0  0  0
 16 10  1  0  0  0
 19 20  1  0  0  0
M  END
> <minimizedAffinity>
-10.22007

> <CNNscore>
0.2705561817

> <CNNaffinity>
7.1572198868

> <CNN_VS>
1.9364300966

> <CNNaffinity_variance>
0.3285046518

$$$$
[H]c1nc([H])c(N([H])C2([H])C([H])([H])N(C(=O)c3c(C([H])([H])[H])noc3C([H])([H])[H])C2([H])[H])c([H])c1N1C(=O)c2c([H])c([H])c(Cl)c([H])c2C([H])([H])C1([H])[H]


 33 37  0  0  0  0  0  0  0  0999 V2000
   12.8610   21.1986    0.3631 C   0  0  0  0  0  0  0  0  0  0  0  0
   13.8679   20.5664    1.1076 C   0  0  0  0  0  0  0  0  0  0  0  0
   15.1034   21.0879    1.1460 N   0  0  0  0  0  0  0  0  0  0  0  0
   15.4161   22.2252    0.4776 C   0  0  0  0  0  0  0  0  0  0  0  0
   14.4773   22.9025   -0.2757 C   0  0  0  0  0  0  0  0  0  0  0  0
   13.1942   22.3520   -0.3098 C   0  0  0  0  0  0  0  0  0  0  0  0
   14.7918   24.0995   -0.9680 N   0  0  0  0  0  0  0  0  0  0  0  0
   15.9919   24.8059   -0.5771 C   0  0  0  0  0  0  0  0  0  0  0  0
   16.6827   25.4714   -1.7186 C   0  0  0  0  0  0  0  0  0  0  0  0
   15.7743   25.8869   -2.8054 C   0  0  0  0  0  0  0  0  0  0  0  0
   16.3051   26.7778   -3.7360 C   0  0  0  0  0  0  0  0  0  0  0  0
   15.5278   27.2415   -4.8026 C   0  0  0  0  0  0  0  0  0  0  0  0
   16.1831   28.3613   -5.9834 Cl  0  0  0  0  0  0  0  0  0  0  0  0
   14.2126   26.8322   -4.9664 C   0  0  0  0  0  0  0  0  0  0  0  0
   13.7183   25.9437   -4.0191 C   0  0  0  0  0  0  0  0  0  0  0  0
   14.4884   25.4903   -2.9718 C   0  0  0  0  0  0  0  0  0  0  0  0
   13.9254   24.5383   -2.0128 C   0  0  0  0  0  0  0  0  0  0  0  0
   12.7426   24.1481   -2.1302 O   0  0  0  0  0  0  0  0  0  0  0  0
   11.5713   20.6244    0.3535 N   0  0  0  0  0  0  0  0  0  0  0  0
   11.2708   20.0634    1.1869 H   0  0  0  0  0  0  0  0  0  0  0  0
    7.9254   22.0150    0.8681 C   0  0  0  0  0  0  0  0  0  0  0  0
    8.1393   23.3320    0.9495 O   0  0  0  0  0  0  0  0  0  0  0  0
    8.8491   21.4218   -0.0010 N   0  0  0  0  0  0  0  0  0  0  0  0
    9.9370   22.1028   -0.7879 C   0  0  0  0  0  0  0  0  0  0  0  0
   10.7042   20.8228   -0.7930 C   0  0  0  0  0  0  0  0  0  0  0  0
    9.3107   20.2231   -0.5837 C   0  0  0  0  0  0  0  0  0  0  0  0
    5.3418   20.8352   -0.3641 C   0  0  0  0  0  0  0  0  0  0  0  0
    5.6752   20.9771    1.0817 C   0  0  0  0  0  0  0  0  0  0  0  0
    4.8743   20.5902    2.0846 N   0  0  0  0  0  0  0  0  0  0  0  0
    5.4381   20.8403    3.1906 O   0  0  0  0  0  0  0  0  0  0  0  0
    6.6407   21.4046    2.9834 C   0  0  0  0  0  0  0  0  0  0  0  0
    7.5138   21.7970    4.0915 C   0  0  0  0  0  0  0  0  0  0  0  0
    6.8469   21.5180    1.6501 C   0  0  0  0  0  0  0  0  0  0  0  0
 27 28  1  0  0  0
 28 29  2  0  0  0
 29 30  1  0  0  0
 30 31  1  0  0  0
 31 32  1  0  0  0
 31 33  2  0  0  0
 33 21  1  0  0  0
 21 22  2  0  0  0
 21 23  1  0  0  0
 23 24  1  0  0  0
 24 25  1  0  0  0
 25 19  1  0  0  0
 19  1  1  0  0  0
  1  2  2  0  0  0
  2  3  1  0  0  0
  3  4  2  0  0  0
  4  5  1  0  0  0
  5  7  1  0  0  0
  7  8  1  0  0  0
  8  9  1  0  0  0
  9 10  1  0  0  0
 10 11  2  0  0  0
 11 12  1  0  0  0
 12 13  1  0  0  0
 12 14  2  0  0  0
 14 15  1  0  0  0
 15 16  2  0  0  0
 16 17  1  0  0  0
 17 18  2  0  0  0
  5  6  2  0  0  0
 25 26  1  0  0  0
 33 28  1  0  0  0
 26 23  1  0  0  0
  6  1  1  0  0  0
 17  7  1  0  0  0
 16 10  1  0  0  0
 19 20  1  0  0  0
M  END
> <minimizedAffinity>
-9.42790

> <CNNscore>
0.2665519416

> <CNNaffinity>
7.1868338585

> <CNN_VS>
1.9156645536

> <CNNaffinity_variance>
0.2661520541

$$$$
[H]c1nc([H])c(N([H])C2([H])C([H])([H])N(C(=O)c3c(C([H])([H])[H])noc3C([H])([H])[H])C2([H])[H])c([H])c1N1C(=O)c2c([H])c([H])c(Cl)c([H])c2C([H])([H])C1([H])[H]


 33 37  0  0  0  0  0  0  0  0999 V2000
   10.9494   20.3246   -0.0047 C   0  0  0  0  0  0  0  0  0  0  0  0
    9.7431   20.3045   -0.7204 C   0  0  0  0  0  0  0  0  0  0  0  0
    9.5808   21.1021   -1.7869 N   0  0  0  0  0  0  0  0  0  0  0  0
   10.5611   21.9412   -2.2028 C   0  0  0  0  0  0  0  0  0  0  0  0
   11.7751   22.0156   -1.5484 C   0  0  0  0  0  0  0  0  0  0  0  0
   11.9346   21.1817   -0.4394 C   0  0  0  0  0  0  0  0  0  0  0  0
   12.8108   22.8809   -1.9835 N   0  0  0  0  0  0  0  0  0  0  0  0
   14.1106   22.2988   -2.2362 C   0  0  0  0  0  0  0  0  0  0  0  0
   14.8370   22.9461   -3.3660 C   0  0  0  0  0  0  0  0  0  0  0  0
   14.4982   24.3703   -3.5553 C   0  0  0  0  0  0  0  0  0  0  0  0
   15.3591   25.0976   -4.3747 C   0  0  0  0  0  0  0  0  0  0  0  0
   15.1347   26.4572   -4.6156 C   0  0  0  0  0  0  0  0  0  0  0  0
   16.2084   27.3853   -5.6469 Cl  0  0  0  0  0  0  0  0  0  0  0  0
   14.0555   27.1202   -4.0500 C   0  0  0  0  0  0  0  0  0  0  0  0
   13.2193   26.3622   -3.2391 C   0  0  0  0  0  0  0  0  0  0  0  0
   13.4449   25.0242   -3.0062 C   0  0  0  0  0  0  0  0  0  0  0  0
   12.5212   24.2665   -2.1603 C   0  0  0  0  0  0  0  0  0  0  0  0
   11.5376   24.8327   -1.6339 O   0  0  0  0  0  0  0  0  0  0  0  0
   11.0857   19.4650    1.1069 N   0  0  0  0  0  0  0  0  0  0  0  0
   11.0695   18.4300    0.9397 H   0  0  0  0  0  0  0  0  0  0  0  0
   12.5289   23.1011    1.5399 C   0  0  0  0  0  0  0  0  0  0  0  0
   11.4448   23.8563    1.3365 O   0  0  0  0  0  0  0  0  0  0  0  0
   12.1756   21.8923    2.1518 N   0  0  0  0  0  0  0  0  0  0  0  0
   10.8019   21.4454    2.5756 C   0  0  0  0  0  0  0  0  0  0  0  0
   11.2441   20.0270    2.4354 C   0  0  0  0  0  0  0  0  0  0  0  0
   12.6269   20.6507    2.6460 C   0  0  0  0  0  0  0  0  0  0  0  0
   15.0643   21.4128    0.9866 C   0  0  0  0  0  0  0  0  0  0  0  0
   14.9101   22.8894    0.8539 C   0  0  0  0  0  0  0  0  0  0  0  0
   15.8838   23.7190    0.4529 N   0  0  0  0  0  0  0  0  0  0  0  0
   15.4433   24.9061    0.4402 O   0  0  0  0  0  0  0  0  0  0  0  0
   14.1568   24.9298    0.8303 C   0  0  0  0  0  0  0  0  0  0  0  0
   13.3931   26.1768    0.9068 C   0  0  0  0  0  0  0  0  0  0  0  0
   13.7607   23.6654    1.1090 C   0  0  0  0  0  0  0  0  0  0  0  0
 27 28  1  0  0  0
 28 29  2  0  0  0
 29 30  1  0  0  0
 30 31  1  0  0  0
 31 32  1  0  0  0
 31 33  2  0  0  0
 33 21  1  0  0  0
 21 22  2  0  0  0
 21 23  1  0  0  0
 23 24  1  0  0  0
 24 25  1  0  0  0
 25 19  1  0  0  0
 19  1  1  0  0  0
  1  2  2  0  0  0
  2  3  1  0  0  0
  3  4  2  0  0  0
  4  5  1  0  0  0
  5  7  1  0  0  0
  7  8  1  0  0  0
  8  9  1  0  0  0
  9 10  1  0  0  0
 10 11  2  0  0  0
 11 12  1  0  0  0
 12 13  1  0  0  0
 12 14  2  0  0  0
 14 15  1  0  0  0
 15 16  2  0  0  0
 16 17  1  0  0  0
 17 18  2  0  0  0
  5  6  2  0  0  0
 25 26  1  0  0  0
 33 28  1  0  0  0
 26 23  1  0  0  0
  6  1  1  0  0  0
 17  7  1  0  0  0
 16 10  1  0  0  0
 19 20  1  0  0  0
M  END
> <minimizedAffinity>
-4.76766

> <CNNscore>
0.2578383982

> <CNNaffinity>
7.1276993752

> <CNN_VS>
1.8377945423

> <CNNaffinity_variance>
0.1442702562

$$$$
[H]c1nc([H])c(N([H])C2([H])C([H])([H])N(C(=O)c3c(C([H])([H])[H])noc3C([H])([H])[H])C2([H])[H])c([H])c1N1C(=O)c2c([H])c([H])c(Cl)c([H])c2C([H])([H])C1([H])[H]


 33 37  0  0  0  0  0  0  0  0999 V2000
   10.9743   21.5797   -1.0708 C   0  0  0  0  0  0  0  0  0  0  0  0
   11.3097   20.7082   -0.0241 C   0  0  0  0  0  0  0  0  0  0  0  0
   12.5882   20.5824    0.3625 N   0  0  0  0  0  0  0  0  0  0  0  0
   13.5838   21.2819   -0.2355 C   0  0  0  0  0  0  0  0  0  0  0  0
   13.3298   22.1586   -1.2721 C   0  0  0  0  0  0  0  0  0  0  0  0
   11.9961   22.2826   -1.6675 C   0  0  0  0  0  0  0  0  0  0  0  0
   14.3628   22.9039   -1.8951 N   0  0  0  0  0  0  0  0  0  0  0  0
   14.7892   22.4889   -3.2134 C   0  0  0  0  0  0  0  0  0  0  0  0
   15.1848   23.6275   -4.0910 C   0  0  0  0  0  0  0  0  0  0  0  0
   15.7239   24.7883   -3.3556 C   0  0  0  0  0  0  0  0  0  0  0  0
   16.3914   25.7399   -4.1240 C   0  0  0  0  0  0  0  0  0  0  0  0
   16.9474   26.8760   -3.5265 C   0  0  0  0  0  0  0  0  0  0  0  0
   17.7884   28.0838   -4.4813 Cl  0  0  0  0  0  0  0  0  0  0  0  0
   16.8530   27.0897   -2.1592 C   0  0  0  0  0  0  0  0  0  0  0  0
   16.1803   26.1195   -1.4261 C   0  0  0  0  0  0  0  0  0  0  0  0
   15.6345   25.0037   -2.0199 C   0  0  0  0  0  0  0  0  0  0  0  0
   14.9176   24.0219   -1.2043 C   0  0  0  0  0  0  0  0  0  0  0  0
   14.8135   24.1830    0.0320 O   0  0  0  0  0  0  0  0  0  0  0  0
    9.6173   21.6913   -1.4437 N   0  0  0  0  0  0  0  0  0  0  0  0
    9.2658   22.6248   -1.7670 H   0  0  0  0  0  0  0  0  0  0  0  0
    7.1531   21.2580    1.5946 C   0  0  0  0  0  0  0  0  0  0  0  0
    6.1181   22.0181    1.2234 O   0  0  0  0  0  0  0  0  0  0  0  0
    7.7582   20.6743    0.4750 N   0  0  0  0  0  0  0  0  0  0  0  0
    7.3463   20.8113   -0.9666 C   0  0  0  0  0  0  0  0  0  0  0  0
    8.7539   20.5271   -1.3729 C   0  0  0  0  0  0  0  0  0  0  0  0
    8.7980   19.8484   -0.0007 C   0  0  0  0  0  0  0  0  0  0  0  0
    9.3836   22.9042    2.9731 C   0  0  0  0  0  0  0  0  0  0  0  0
    8.4220   21.9629    3.6143 C   0  0  0  0  0  0  0  0  0  0  0  0
    8.3848   21.6970    4.9277 N   0  0  0  0  0  0  0  0  0  0  0  0
    7.4596   20.8642    5.1600 O   0  0  0  0  0  0  0  0  0  0  0  0
    6.8333   20.5329    4.0173 C   0  0  0  0  0  0  0  0  0  0  0  0
    5.7171   19.5854    3.9921 C   0  0  0  0  0  0  0  0  0  0  0  0
    7.4075   21.2061    2.9926 C   0  0  0  0  0  0  0  0  0  0  0  0
 27 28  1  0  0  0
 28 29  2  0  0  0
 29 30  1  0  0  0
 30 31  1  0  0  0
 31 32  1  0  0  0
 31 33  2  0  0  0
 33 21  1  0  0  0
 21 22  2  0  0  0
 21 23  1  0  0  0
 23 24  1  0  0  0
 24 25  1  0  0  0
 25 19  1  0  0  0
 19  1  1  0  0  0
  1  2  2  0  0  0
  2  3  1  0  0  0
  3  4  2  0  0  0
  4  5  1  0  0  0
  5  7  1  0  0  0
  7  8  1  0  0  0
  8  9  1  0  0  0
  9 10  1  0  0  0
 10 11  2  0  0  0
 11 12  1  0  0  0
 12 13  1  0  0  0
 12 14  2  0  0  0
 14 15  1  0  0  0
 15 16  2  0  0  0
 16 17  1  0  0  0
 17 18  2  0  0  0
  5  6  2  0  0  0
 25 26  1  0  0  0
 33 28  1  0  0  0
 26 23  1  0  0  0
  6  1  1  0  0  0
 17  7  1  0  0  0
 16 10  1  0  0  0
 19 20  1  0  0  0
M  END
> <minimizedAffinity>
-5.73010

> <CNNscore>
0.2548796535

> <CNNaffinity>
7.0618772507

> <CNN_VS>
1.7999287844

> <CNNaffinity_variance>
0.5266708136

$$$$
[H]c1nc([H])c(N([H])C2([H])C([H])([H])N(C(=O)c3c(C([H])([H])[H])noc3C([H])([H])[H])C2([H])[H])c([H])c1N1C(=O)c2c([H])c([H])c(Cl)c([H])c2C([H])([H])C1([H])[H]


 33 37  0  0  0  0  0  0  0  0999 V2000
   12.5470   21.9901    0.8441 C   0  0  0  0  0  0  0  0  0  0  0  0
   13.3217   21.0118    1.4847 C   0  0  0  0  0  0  0  0  0  0  0  0
   14.5822   20.7848    1.0856 N   0  0  0  0  0  0  0  0  0  0  0  0
   15.1416   21.4817    0.0661 C   0  0  0  0  0  0  0  0  0  0  0  0
   14.4403   22.4600   -0.6114 C   0  0  0  0  0  0  0  0  0  0  0  0
   13.1290   22.6890   -0.1889 C   0  0  0  0  0  0  0  0  0  0  0  0
   15.0210   23.2028   -1.6706 N   0  0  0  0  0  0  0  0  0  0  0  0
   14.9127   22.6628   -3.0080 C   0  0  0  0  0  0  0  0  0  0  0  0
   14.7640   23.7116   -4.0572 C   0  0  0  0  0  0  0  0  0  0  0  0
   15.4087   24.9943   -3.7142 C   0  0  0  0  0  0  0  0  0  0  0  0
   15.5739   25.8936   -4.7656 C   0  0  0  0  0  0  0  0  0  0  0  0
   16.1800   27.1362   -4.5521 C   0  0  0  0  0  0  0  0  0  0  0  0
   16.3925   28.2797   -5.8655 Cl  0  0  0  0  0  0  0  0  0  0  0  0
   16.6332   27.5099   -3.2955 C   0  0  0  0  0  0  0  0  0  0  0  0
   16.4511   26.5874   -2.2723 C   0  0  0  0  0  0  0  0  0  0  0  0
   15.8533   25.3662   -2.4883 C   0  0  0  0  0  0  0  0  0  0  0  0
   15.6669   24.4389   -1.3710 C   0  0  0  0  0  0  0  0  0  0  0  0
   16.0638   24.7435   -0.2243 O   0  0  0  0  0  0  0  0  0  0  0  0
   11.2275   22.2060    1.2977 N   0  0  0  0  0  0  0  0  0  0  0  0
   10.7288   23.0725    0.9816 H   0  0  0  0  0  0  0  0  0  0  0  0
    7.8983   23.1287    3.1836 C   0  0  0  0  0  0  0  0  0  0  0  0
    6.9742   22.8937    2.2468 O   0  0  0  0  0  0  0  0  0  0  0  0
    8.9690   22.2364    3.0497 N   0  0  0  0  0  0  0  0  0  0  0  0
    9.1194   21.1282    2.0418 C   0  0  0  0  0  0  0  0  0  0  0  0
   10.6017   21.2362    2.1772 C   0  0  0  0  0  0  0  0  0  0  0  0
   10.2298   21.8338    3.5373 C   0  0  0  0  0  0  0  0  0  0  0  0
    9.3636   25.8551    3.1117 C   0  0  0  0  0  0  0  0  0  0  0  0
    8.2753   25.4336    4.0389 C   0  0  0  0  0  0  0  0  0  0  0  0
    7.7565   26.2109    4.9999 N   0  0  0  0  0  0  0  0  0  0  0  0
    6.8515   25.5711    5.6125 O   0  0  0  0  0  0  0  0  0  0  0  0
    6.7198   24.3380    5.0931 C   0  0  0  0  0  0  0  0  0  0  0  0
    5.7409   23.3798    5.6105 C   0  0  0  0  0  0  0  0  0  0  0  0
    7.6073   24.1924    4.0810 C   0  0  0  0  0  0  0  0  0  0  0  0
 27 28  1  0  0  0
 28 29  2  0  0  0
 29 30  1  0  0  0
 30 31  1  0  0  0
 31 32  1  0  0  0
 31 33  2  0  0  0
 33 21  1  0  0  0
 21 22  2  0  0  0
 21 23  1  0  0  0
 23 24  1  0  0  0
 24 25  1  0  0  0
 25 19  1  0  0  0
 19  1  1  0  0  0
  1  2  2  0  0  0
  2  3  1  0  0  0
  3  4  2  0  0  0
  4  5  1  0  0  0
  5  7  1  0  0  0
  7  8  1  0  0  0
  8  9  1  0  0  0
  9 10  1  0  0  0
 10 11  2  0  0  0
 11 12  1  0  0  0
 12 13  1  0  0  0
 12 14  2  0  0  0
 14 15  1  0  0  0
 15 16  2  0  0  0
 16 17  1  0  0  0
 17 18  2  0  0  0
  5  6  2  0  0  0
 25 26  1  0  0  0
 33 28  1  0  0  0
 26 23  1  0  0  0
  6  1  1  0  0  0
 17  7  1  0  0  0
 16 10  1  0  0  0
 19 20  1  0  0  0
M  END
> <minimizedAffinity>
-7.63568

> <CNNscore>
0.2525193691

> <CNNaffinity>
7.1691541672

> <CNN_VS>
1.8103502989

> <CNNaffinity_variance>
0.2753486931

$$$$
[H]c1c([H])c([H])c2c(nc(SC([H])([H])C(=O)N3C(=O)C([H])([H])C([H])([H])C3([H])[H])n2C([H])([H])[H])c1[H]


 20 22  0  0  0  0  0  0  0  0999 V2000
   14.5294   23.2905   -2.5684 C   0  0  0  0  0  0  0  0  0  0  0  0
   14.0140   24.5679   -3.0686 N   0  0  0  0  0  0  0  0  0  0  0  0
   13.0821   25.3716   -2.5756 C   0  0  0  0  0  0  0  0  0  0  0  0
   13.0089   26.4621   -3.3935 N   0  0  0  0  0  0  0  0  0  0  0  0
   13.8914   26.3479   -4.4027 C   0  0  0  0  0  0  0  0  0  0  0  0
   14.1987   27.1673   -5.4737 C   0  0  0  0  0  0  0  0  0  0  0  0
   15.1670   26.7799   -6.3643 C   0  0  0  0  0  0  0  0  0  0  0  0
   15.8152   25.5666   -6.1630 C   0  0  0  0  0  0  0  0  0  0  0  0
   15.5087   24.7580   -5.1021 C   0  0  0  0  0  0  0  0  0  0  0  0
   14.5264   25.1444   -4.1926 C   0  0  0  0  0  0  0  0  0  0  0  0
   12.0470   25.1554   -1.1858 S   0  0  0  0  0  0  0  0  0  0  0  0
   12.7918   25.1260    0.4110 C   0  0  0  0  0  0  0  0  0  0  0  0
   14.0121   24.3775    0.6282 C   0  0  0  0  0  0  0  0  0  0  0  0
   15.1334   24.8634    0.7702 O   0  0  0  0  0  0  0  0  0  0  0  0
   13.8882   22.9381    0.6800 N   0  0  0  0  0  0  0  0  0  0  0  0
   12.6635   22.2017    0.5392 C   0  0  0  0  0  0  0  0  0  0  0  0
   12.9818   20.8077    1.0918 C   0  0  0  0  0  0  0  0  0  0  0  0
   14.4248   20.6364    0.6999 C   0  0  0  0  0  0  0  0  0  0  0  0
   14.9582   22.0082    0.8816 C   0  0  0  0  0  0  0  0  0  0  0  0
   16.1334   22.3547    1.1642 O   0  0  0  0  0  0  0  0  0  0  0  0
  1  2  1  0  0  0
  2  3  1  0  0  0
  3 11  1  0  0  0
 11 12  1  0  0  0
 12 13  1  0  0  0
 13 14  2  0  0  0
 13 15  1  0  0  0
 15 16  1  0  0  0
 16 17  1  0  0  0
 17 18  1  0  0  0
 18 19  1  0  0  0
 19 20  2  0  0  0
  3  4  2  0  0  0
  4  5  1  0  0  0
  5  6  2  0  0  0
  6  7  1  0  0  0
  7  8  2  0  0  0
  8  9  1  0  0  0
  9 10  2  0  0  0
 10  2  1  0  0  0
 19 15  1  0  0  0
 10  5  1  0  0  0
M  END
> <minimizedAffinity>
-7.27713

> <CNNscore>
0.6099464297

> <CNNaffinity>
6.4556503296

> <CNN_VS>
3.9376008511

> <CNNaffinity_variance>
0.1415810436

$$$$
[H]c1c([H])c([H])c2c(nc(SC([H])([H])C(=O)N3C(=O)C([H])([H])C([H])([H])C3([H])[H])n2C([H])([H])[H])c1[H]


 20 22  0  0  0  0  0  0  0  0999 V2000
   10.6138   24.0320   -0.5822 C   0  0  0  0  0  0  0  0  0  0  0  0
   12.0187   23.6247   -0.6706 N   0  0  0  0  0  0  0  0  0  0  0  0
   13.0267   24.1547   -1.3492 C   0  0  0  0  0  0  0  0  0  0  0  0
   14.1444   23.4287   -1.0539 N   0  0  0  0  0  0  0  0  0  0  0  0
   13.8439   22.4405   -0.1915 C   0  0  0  0  0  0  0  0  0  0  0  0
   14.6080   21.4513    0.4006 C   0  0  0  0  0  0  0  0  0  0  0  0
   14.0134   20.5610    1.2578 C   0  0  0  0  0  0  0  0  0  0  0  0
   12.6510   20.6800    1.5078 C   0  0  0  0  0  0  0  0  0  0  0  0
   11.8977   21.6601    0.9203 C   0  0  0  0  0  0  0  0  0  0  0  0
   12.4941   22.5686    0.0483 C   0  0  0  0  0  0  0  0  0  0  0  0
   13.0312   25.4898   -2.4748 S   0  0  0  0  0  0  0  0  0  0  0  0
   13.8845   25.2878   -4.0034 C   0  0  0  0  0  0  0  0  0  0  0  0
   14.4260   26.4421   -4.6896 C   0  0  0  0  0  0  0  0  0  0  0  0
   13.8998   27.0217   -5.6388 O   0  0  0  0  0  0  0  0  0  0  0  0
   15.6929   26.9457   -4.2088 N   0  0  0  0  0  0  0  0  0  0  0  0
   16.4450   26.4001   -3.1141 C   0  0  0  0  0  0  0  0  0  0  0  0
   17.4364   27.5058   -2.7335 C   0  0  0  0  0  0  0  0  0  0  0  0
   17.7285   28.1385   -4.0675 C   0  0  0  0  0  0  0  0  0  0  0  0
   16.4073   28.0685   -4.7375 C   0  0  0  0  0  0  0  0  0  0  0  0
   15.9416   28.8327   -5.6207 O   0  0  0  0  0  0  0  0  0  0  0  0
  1  2  1  0  0  0
  2  3  1  0  0  0
  3 11  1  0  0  0
 11 12  1  0  0  0
 12 13  1  0  0  0
 13 14  2  0  0  0
 13 15  1  0  0  0
 15 16  1  0  0  0
 16 17  1  0  0  0
 17 18  1  0  0  0
 18 19  1  0  0  0
 19 20  2  0  0  0
  3  4  2  0  0  0
  4  5  1  0  0  0
  5  6  2  0  0  0
  6  7  1  0  0  0
  7  8  2  0  0  0
  8  9  1  0  0  0
  9 10  2  0  0  0
 10  2  1  0  0  0
 19 15  1  0  0  0
 10  5  1  0  0  0
M  END
> <minimizedAffinity>
-6.94227

> <CNNscore>
0.5944901109

> <CNNaffinity>
6.3447909355

> <CNN_VS>
3.7719154358

> <CNNaffinity_variance>
0.2015477419

$$$$
[H]c1c([H])c([H])c2c(nc(SC([H])([H])C(=O)N3C(=O)C([H])([H])C([H])([H])C3([H])[H])n2C([H])([H])[H])c1[H]


 20 22  0  0  0  0  0  0  0  0999 V2000
   12.5885   25.4335   -0.7389 C   0  0  0  0  0  0  0  0  0  0  0  0
   13.0146   24.0978   -0.3123 N   0  0  0  0  0  0  0  0  0  0  0  0
   14.1942   23.6658    0.1110 C   0  0  0  0  0  0  0  0  0  0  0  0
   14.0545   22.3464    0.4327 N   0  0  0  0  0  0  0  0  0  0  0  0
   12.7897   21.9442    0.2118 C   0  0  0  0  0  0  0  0  0  0  0  0
   12.1534   20.7270    0.3745 C   0  0  0  0  0  0  0  0  0  0  0  0
   10.8240   20.6124    0.0575 C   0  0  0  0  0  0  0  0  0  0  0  0
   10.1508   21.7306   -0.4213 C   0  0  0  0  0  0  0  0  0  0  0  0
   10.7834   22.9337   -0.5811 C   0  0  0  0  0  0  0  0  0  0  0  0
   12.1338   23.0586   -0.2612 C   0  0  0  0  0  0  0  0  0  0  0  0
   15.7153   24.5157    0.2264 S   0  0  0  0  0  0  0  0  0  0  0  0
   16.3693   25.2551   -1.2335 C   0  0  0  0  0  0  0  0  0  0  0  0
   15.8513   24.8777   -2.5319 C   0  0  0  0  0  0  0  0  0  0  0  0
   15.3273   23.7990   -2.8067 O   0  0  0  0  0  0  0  0  0  0  0  0
   15.9664   25.8607   -3.5855 N   0  0  0  0  0  0  0  0  0  0  0  0
   16.5432   27.1682   -3.4457 C   0  0  0  0  0  0  0  0  0  0  0  0
   16.0432   27.9470   -4.6679 C   0  0  0  0  0  0  0  0  0  0  0  0
   15.9826   26.8735   -5.7210 C   0  0  0  0  0  0  0  0  0  0  0  0
   15.5256   25.6996   -4.9384 C   0  0  0  0  0  0  0  0  0  0  0  0
   14.8640   24.7079   -5.3381 O   0  0  0  0  0  0  0  0  0  0  0  0
  1  2  1  0  0  0
  2  3  1  0  0  0
  3 11  1  0  0  0
 11 12  1  0  0  0
 12 13  1  0  0  0
 13 14  2  0  0  0
 13 15  1  0  0  0
 15 16  1  0  0  0
 16 17  1  0  0  0
 17 18  1  0  0  0
 18 19  1  0  0  0
 19 20  2  0  0  0
  3  4  2  0  0  0
  4  5  1  0  0  0
  5  6  2  0  0  0
  6  7  1  0  0  0
  7  8  2  0  0  0
  8  9  1  0  0  0
  9 10  2  0  0  0
 10  2  1  0  0  0
 19 15  1  0  0  0
 10  5  1  0  0  0
M  END
> <minimizedAffinity>
-6.67979

> <CNNscore>
0.5116162896

> <CNNaffinity>
6.5787825584

> <CNN_VS>
3.3658123016

> <CNNaffinity_variance>
0.3245772123

$$$$
[H]c1c([H])c([H])c2c(nc(SC([H])([H])C(=O)N3C(=O)C([H])([H])C([H])([H])C3([H])[H])n2C([H])([H])[H])c1[H]


 20 22  0  0  0  0  0  0  0  0999 V2000
   15.0622   23.4045   -3.2531 C   0  0  0  0  0  0  0  0  0  0  0  0
   15.6566   24.7374   -3.1211 N   0  0  0  0  0  0  0  0  0  0  0  0
   16.2759   25.3052   -2.0957 C   0  0  0  0  0  0  0  0  0  0  0  0
   16.6865   26.5426   -2.5007 N   0  0  0  0  0  0  0  0  0  0  0  0
   16.3263   26.7578   -3.7790 C   0  0  0  0  0  0  0  0  0  0  0  0
   16.5018   27.8323   -4.6320 C   0  0  0  0  0  0  0  0  0  0  0  0
   16.0132   27.7655   -5.9117 C   0  0  0  0  0  0  0  0  0  0  0  0
   15.3513   26.6119   -6.3164 C   0  0  0  0  0  0  0  0  0  0  0  0
   15.1792   25.5503   -5.4699 C   0  0  0  0  0  0  0  0  0  0  0  0
   15.6728   25.6101   -4.1682 C   0  0  0  0  0  0  0  0  0  0  0  0
   16.5297   24.7031   -0.4762 S   0  0  0  0  0  0  0  0  0  0  0  0
   15.1161   24.4081    0.5339 C   0  0  0  0  0  0  0  0  0  0  0  0
   14.3505   23.1898    0.3716 C   0  0  0  0  0  0  0  0  0  0  0  0
   14.7063   22.0684    0.7314 O   0  0  0  0  0  0  0  0  0  0  0  0
   13.0611   23.3161   -0.2696 N   0  0  0  0  0  0  0  0  0  0  0  0
   12.4849   24.5412   -0.7482 C   0  0  0  0  0  0  0  0  0  0  0  0
   10.9950   24.2272   -0.9262 C   0  0  0  0  0  0  0  0  0  0  0  0
   11.0266   22.7829   -1.3480 C   0  0  0  0  0  0  0  0  0  0  0  0
   12.1440   22.2482   -0.5326 C   0  0  0  0  0  0  0  0  0  0  0  0
   12.3100   21.0737   -0.1154 O   0  0  0  0  0  0  0  0  0  0  0  0
  1  2  1  0  0  0
  2  3  1  0  0  0
  3 11  1  0  0  0
 11 12  1  0  0  0
 12 13  1  0  0  0
 13 14  2  0  0  0
 13 15  1  0  0  0
 15 16  1  0  0  0
 16 17  1  0  0  0
 17 18  1  0  0  0
 18 19  1  0  0  0
 19 20  2  0  0  0
  3  4  2  0  0  0
  4  5  1  0  0  0
  5  6  2  0  0  0
  6  7  1  0  0  0
  7  8  2  0  0  0
  8  9  1  0  0  0
  9 10  2  0  0  0
 10  2  1  0  0  0
 19 15  1  0  0  0
 10  5  1  0  0  0
M  END
> <minimizedAffinity>
-7.96812

> <CNNscore>
0.4903113544

> <CNNaffinity>
6.5091934204

> <CNN_VS>
3.1915314198

> <CNNaffinity_variance>
0.1168874875

$$$$
[H]c1c([H])c([H])c2c(nc(SC([H])([H])C(=O)N3C(=O)C([H])([H])C([H])([H])C3([H])[H])n2C([H])([H])[H])c1[H]


 20 22  0  0  0  0  0  0  0  0999 V2000
   16.4575   24.7840   -1.7358 C   0  0  0  0  0  0  0  0  0  0  0  0
   15.9907   24.7763   -3.1248 N   0  0  0  0  0  0  0  0  0  0  0  0
   15.4707   23.7974   -3.8519 C   0  0  0  0  0  0  0  0  0  0  0  0
   15.1544   24.3193   -5.0731 N   0  0  0  0  0  0  0  0  0  0  0  0
   15.4751   25.6252   -5.1190 C   0  0  0  0  0  0  0  0  0  0  0  0
   15.3581   26.5828   -6.1101 C   0  0  0  0  0  0  0  0  0  0  0  0
   15.7814   27.8640   -5.8646 C   0  0  0  0  0  0  0  0  0  0  0  0
   16.3193   28.1642   -4.6183 C   0  0  0  0  0  0  0  0  0  0  0  0
   16.4335   27.2144   -3.6396 C   0  0  0  0  0  0  0  0  0  0  0  0
   16.0057   25.9105   -3.8809 C   0  0  0  0  0  0  0  0  0  0  0  0
   15.2367   22.1144   -3.4488 S   0  0  0  0  0  0  0  0  0  0  0  0
   14.1415   21.7192   -2.1260 C   0  0  0  0  0  0  0  0  0  0  0  0
   14.2375   22.4302   -0.8682 C   0  0  0  0  0  0  0  0  0  0  0  0
   14.9592   22.1162    0.0774 O   0  0  0  0  0  0  0  0  0  0  0  0
   13.4093   23.6063   -0.7245 N   0  0  0  0  0  0  0  0  0  0  0  0
   12.5131   24.1211   -1.7213 C   0  0  0  0  0  0  0  0  0  0  0  0
   12.2235   25.5600   -1.2786 C   0  0  0  0  0  0  0  0  0  0  0  0
   12.2556   25.4395    0.2213 C   0  0  0  0  0  0  0  0  0  0  0  0
   13.3441   24.4537    0.4280 C   0  0  0  0  0  0  0  0  0  0  0  0
   14.1084   24.3353    1.4193 O   0  0  0  0  0  0  0  0  0  0  0  0
  1  2  1  0  0  0
  2  3  1  0  0  0
  3 11  1  0  0  0
 11 12  1  0  0  0
 12 13  1  0  0  0
 13 14  2  0  0  0
 13 15  1  0  0  0
 15 16  1  0  0  0
 16 17  1  0  0  0
 17 18  1  0  0  0
 18 19  1  0  0  0
 19 20  2  0  0  0
  3  4  2  0  0  0
  4  5  1  0  0  0
  5  6  2  0  0  0
  6  7  1  0  0  0
  7  8  2  0  0  0
  8  9  1  0  0  0
  9 10  2  0  0  0
 10  2  1  0  0  0
 19 15  1  0  0  0
 10  5  1  0  0  0
M  END
> <minimizedAffinity>
-6.27454

> <CNNscore>
0.4612316787

> <CNNaffinity>
6.4241514206

> <CNN_VS>
2.9630222321

> <CNNaffinity_variance>
0.2577882707

$$$$
[H]c1c([H])c([H])c2c(nc(SC([H])([H])C(=O)N3C(=O)C([H])([H])C([H])([H])C3([H])[H])n2C([H])([H])[H])c1[H]


 20 22  0  0  0  0  0  0  0  0999 V2000
   11.1914   24.3670   -0.5798 C   0  0  0  0  0  0  0  0  0  0  0  0
   11.8158   23.3218    0.2358 N   0  0  0  0  0  0  0  0  0  0  0  0
   12.9813   22.7053    0.0987 C   0  0  0  0  0  0  0  0  0  0  0  0
   13.1158   21.8470    1.1517 N   0  0  0  0  0  0  0  0  0  0  0  0
   12.0370   21.9192    1.9525 C   0  0  0  0  0  0  0  0  0  0  0  0
   11.6949   21.2652    3.1222 C   0  0  0  0  0  0  0  0  0  0  0  0
   10.4989   21.5498    3.7300 C   0  0  0  0  0  0  0  0  0  0  0  0
    9.6600   22.4935    3.1484 C   0  0  0  0  0  0  0  0  0  0  0  0
   10.0014   23.1390    1.9908 C   0  0  0  0  0  0  0  0  0  0  0  0
   11.2148   22.8557    1.3671 C   0  0  0  0  0  0  0  0  0  0  0  0
   14.1719   22.8444   -1.1713 S   0  0  0  0  0  0  0  0  0  0  0  0
   14.8543   24.4349   -1.5028 C   0  0  0  0  0  0  0  0  0  0  0  0
   14.3841   25.2038   -2.6361 C   0  0  0  0  0  0  0  0  0  0  0  0
   13.2569   25.1403   -3.1251 O   0  0  0  0  0  0  0  0  0  0  0  0
   15.3295   26.1192   -3.2345 N   0  0  0  0  0  0  0  0  0  0  0  0
   16.6807   26.3266   -2.7952 C   0  0  0  0  0  0  0  0  0  0  0  0
   17.0998   27.6536   -3.4383 C   0  0  0  0  0  0  0  0  0  0  0  0
   16.3572   27.6168   -4.7469 C   0  0  0  0  0  0  0  0  0  0  0  0
   15.0800   26.9710   -4.3582 C   0  0  0  0  0  0  0  0  0  0  0  0
   13.9467   27.1092   -4.8848 O   0  0  0  0  0  0  0  0  0  0  0  0
  1  2  1  0  0  0
  2  3  1  0  0  0
  3 11  1  0  0  0
 11 12  1  0  0  0
 12 13  1  0  0  0
 13 14  2  0  0  0
 13 15  1  0  0  0
 15 16  1  0  0  0
 16 17  1  0  0  0
 17 18  1  0  0  0
 18 19  1  0  0  0
 19 20  2  0  0  0
  3  4  2  0  0  0
  4  5  1  0  0  0
  5  6  2  0  0  0
  6  7  1  0  0  0
  7  8  2  0  0  0
  8  9  1  0  0  0
  9 10  2  0  0  0
 10  2  1  0  0  0
 19 15  1  0  0  0
 10  5  1  0  0  0
M  END
> <minimizedAffinity>
-7.33781

> <CNNscore>
0.4148701429

> <CNNaffinity>
6.0012521744

> <CNN_VS>
2.4897403717

> <CNNaffinity_variance>
0.2903984189

$$$$
[H]c1c([H])c([H])c2c(nc(SC([H])([H])C(=O)N3C(=O)C([H])([H])C([H])([H])C3([H])[H])n2C([H])([H])[H])c1[H]


 20 22  0  0  0  0  0  0  0  0999 V2000
   14.3336   26.3139    1.6840 C   0  0  0  0  0  0  0  0  0  0  0  0
   14.0133   25.4155    0.5714 N   0  0  0  0  0  0  0  0  0  0  0  0
   14.1510   24.1018    0.4599 C   0  0  0  0  0  0  0  0  0  0  0  0
   13.6577   23.7416   -0.7610 N   0  0  0  0  0  0  0  0  0  0  0  0
   13.2105   24.8253   -1.4212 C   0  0  0  0  0  0  0  0  0  0  0  0
   12.6336   24.9893   -2.6675 C   0  0  0  0  0  0  0  0  0  0  0  0
   12.2719   26.2448   -3.0842 C   0  0  0  0  0  0  0  0  0  0  0  0
   12.4974   27.3229   -2.2358 C   0  0  0  0  0  0  0  0  0  0  0  0
   13.0684   27.1572   -1.0031 C   0  0  0  0  0  0  0  0  0  0  0  0
   13.4387   25.8850   -0.5721 C   0  0  0  0  0  0  0  0  0  0  0  0
   14.8608   22.9582    1.5726 S   0  0  0  0  0  0  0  0  0  0  0  0
   15.2883   21.3602    0.9649 C   0  0  0  0  0  0  0  0  0  0  0  0
   14.4978   20.7474   -0.0821 C   0  0  0  0  0  0  0  0  0  0  0  0
   13.6552   19.8659    0.0810 O   0  0  0  0  0  0  0  0  0  0  0  0
   14.7289   21.2202   -1.4285 N   0  0  0  0  0  0  0  0  0  0  0  0
   15.6663   22.2411   -1.8037 C   0  0  0  0  0  0  0  0  0  0  0  0
   15.2316   22.6711   -3.2095 C   0  0  0  0  0  0  0  0  0  0  0  0
   14.7140   21.3811   -3.7866 C   0  0  0  0  0  0  0  0  0  0  0  0
   14.0647   20.7555   -2.6090 C   0  0  0  0  0  0  0  0  0  0  0  0
   13.0977   19.9521   -2.5893 O   0  0  0  0  0  0  0  0  0  0  0  0
  1  2  1  0  0  0
  2  3  1  0  0  0
  3 11  1  0  0  0
 11 12  1  0  0  0
 12 13  1  0  0  0
 13 14  2  0  0  0
 13 15  1  0  0  0
 15 16  1  0  0  0
 16 17  1  0  0  0
 17 18  1  0  0  0
 18 19  1  0  0  0
 19 20  2  0  0  0
  3  4  2  0  0  0
  4  5  1  0  0  0
  5  6  2  0  0  0
  6  7  1  0  0  0
  7  8  2  0  0  0
  8  9  1  0  0  0
  9 10  2  0  0  0
 10  2  1  0  0  0
 19 15  1  0  0  0
 10  5  1  0  0  0
M  END
> <minimizedAffinity>
13.58988

> <CNNscore>
0.4001982212

> <CNNaffinity>
5.6659746170

> <CNN_VS>
2.2675130367

> <CNNaffinity_variance>
0.2215150893

$$$$
[H]c1c([H])c([H])c2c(nc(SC([H])([H])C(=O)N3C(=O)C([H])([H])C([H])([H])C3([H])[H])n2C([H])([H])[H])c1[H]


 20 22  0  0  0  0  0  0  0  0999 V2000
    9.7417   24.4359    2.0807 C   0  0  0  0  0  0  0  0  0  0  0  0
   10.7805   23.4704    1.7116 N   0  0  0  0  0  0  0  0  0  0  0  0
   11.6980   23.5176    0.7558 C   0  0  0  0  0  0  0  0  0  0  0  0
   12.4574   22.3882    0.8625 N   0  0  0  0  0  0  0  0  0  0  0  0
   12.0204   21.6274    1.8826 C   0  0  0  0  0  0  0  0  0  0  0  0
   12.4420   20.4120    2.3904 C   0  0  0  0  0  0  0  0  0  0  0  0
   11.7865   19.8645    3.4635 C   0  0  0  0  0  0  0  0  0  0  0  0
   10.7102   20.5521    4.0126 C   0  0  0  0  0  0  0  0  0  0  0  0
   10.2955   21.7547    3.5078 C   0  0  0  0  0  0  0  0  0  0  0  0
   10.9561   22.3178    2.4179 C   0  0  0  0  0  0  0  0  0  0  0  0
   11.9480   24.7162   -0.4894 S   0  0  0  0  0  0  0  0  0  0  0  0
   12.9608   24.2880   -1.8665 C   0  0  0  0  0  0  0  0  0  0  0  0
   14.3462   24.7072   -1.9056 C   0  0  0  0  0  0  0  0  0  0  0  0
   15.2156   24.3795   -1.0991 O   0  0  0  0  0  0  0  0  0  0  0  0
   14.7265   25.5855   -2.9891 N   0  0  0  0  0  0  0  0  0  0  0  0
   13.8493   26.0651   -4.0198 C   0  0  0  0  0  0  0  0  0  0  0  0
   14.7855   26.5704   -5.1236 C   0  0  0  0  0  0  0  0  0  0  0  0
   15.9501   27.0990   -4.3302 C   0  0  0  0  0  0  0  0  0  0  0  0
   16.0346   26.1210   -3.2185 C   0  0  0  0  0  0  0  0  0  0  0  0
   17.0484   25.7808   -2.5572 O   0  0  0  0  0  0  0  0  0  0  0  0
  1  2  1  0  0  0
  2  3  1  0  0  0
  3 11  1  0  0  0
 11 12  1  0  0  0
 12 13  1  0  0  0
 13 14  2  0  0  0
 13 15  1  0  0  0
 15 16  1  0  0  0
 16 17  1  0  0  0
 17 18  1  0  0  0
 18 19  1  0  0  0
 19 20  2  0  0  0
  3  4  2  0  0  0
  4  5  1  0  0  0
  5  6  2  0  0  0
  6  7  1  0  0  0
  7  8  2  0  0  0
  8  9  1  0  0  0
  9 10  2  0  0  0
 10  2  1  0  0  0
 19 15  1  0  0  0
 10  5  1  0  0  0
M  END
> <minimizedAffinity>
-7.43363

> <CNNscore>
0.3706803024

> <CNNaffinity>
5.7789106369

> <CNN_VS>
2.1421282291

> <CNNaffinity_variance>
0.2125377357

$$$$
[H]c1c([H])c([H])c2c(nc(SC([H])([H])C(=O)N3C(=O)C([H])([H])C([H])([H])C3([H])[H])n2C([H])([H])[H])c1[H]


 20 22  0  0  0  0  0  0  0  0999 V2000
   14.5882   23.5556   -4.6385 C   0  0  0  0  0  0  0  0  0  0  0  0
   14.6943   25.0041   -4.4430 N   0  0  0  0  0  0  0  0  0  0  0  0
   14.3581   25.7589   -3.4063 C   0  0  0  0  0  0  0  0  0  0  0  0
   14.7061   27.0442   -3.7070 N   0  0  0  0  0  0  0  0  0  0  0  0
   15.2598   27.1028   -4.9318 C   0  0  0  0  0  0  0  0  0  0  0  0
   15.7653   28.1500   -5.6807 C   0  0  0  0  0  0  0  0  0  0  0  0
   16.2770   27.9023   -6.9288 C   0  0  0  0  0  0  0  0  0  0  0  0
   16.2721   26.5971   -7.4077 C   0  0  0  0  0  0  0  0  0  0  0  0
   15.7711   25.5630   -6.6641 C   0  0  0  0  0  0  0  0  0  0  0  0
   15.2497   25.8062   -5.3951 C   0  0  0  0  0  0  0  0  0  0  0  0
   13.5684   25.3129   -1.9140 S   0  0  0  0  0  0  0  0  0  0  0  0
   14.3218   24.0760   -0.9101 C   0  0  0  0  0  0  0  0  0  0  0  0
   13.9602   22.6843   -1.0808 C   0  0  0  0  0  0  0  0  0  0  0  0
   14.3557   21.9483   -1.9838 O   0  0  0  0  0  0  0  0  0  0  0  0
   13.0568   22.1252   -0.1004 N   0  0  0  0  0  0  0  0  0  0  0  0
   12.5005   22.8322    1.0187 C   0  0  0  0  0  0  0  0  0  0  0  0
   11.9921   21.7337    1.9594 C   0  0  0  0  0  0  0  0  0  0  0  0
   11.5448   20.6725    0.9904 C   0  0  0  0  0  0  0  0  0  0  0  0
   12.5684   20.7793   -0.0774 C   0  0  0  0  0  0  0  0  0  0  0  0
   12.9768   19.8805   -0.8561 O   0  0  0  0  0  0  0  0  0  0  0  0
  1  2  1  0  0  0
  2  3  1  0  0  0
  3 11  1  0  0  0
 11 12  1  0  0  0
 12 13  1  0  0  0
 13 14  2  0  0  0
 13 15  1  0  0  0
 15 16  1  0  0  0
 16 17  1  0  0  0
 17 18  1  0  0  0
 18 19  1  0  0  0
 19 20  2  0  0  0
  3  4  2  0  0  0
  4  5  1  0  0  0
  5  6  2  0  0  0
  6  7  1  0  0  0
  7  8  2  0  0  0
  8  9  1  0  0  0
  9 10  2  0  0  0
 10  2  1  0  0  0
 19 15  1  0  0  0
 10  5  1  0  0  0
M  END
> <minimizedAffinity>
-3.19193

> <CNNscore>
0.3692477047

> <CNNaffinity>
5.7232131958

> <CNN_VS>
2.1132833958

> <CNNaffinity_variance>
0.2831473947

$$$$
[H]c1c(C([H])([H])[H])c([H])c2c(c1C(F)(F)F)C(=O)N1C([H])([H])C([H])([H])N([H])C([H])([H])[C@@]21[H]


 20 22  0  0  0  0  0  0  0  0999 V2000
   15.9984   20.8486   -4.8857 C   0  0  0  0  0  0  0  0  0  0  0  0
   15.2245   21.9537   -4.2601 C   0  0  0  0  0  0  0  0  0  0  0  0
   15.2170   23.1662   -4.9134 C   0  0  0  0  0  0  0  0  0  0  0  0
   14.5226   24.2223   -4.3871 C   0  0  0  0  0  0  0  0  0  0  0  0
   13.8274   24.0509   -3.1844 C   0  0  0  0  0  0  0  0  0  0  0  0
   13.8171   22.8563   -2.5138 C   0  0  0  0  0  0  0  0  0  0  0  0
   14.5299   21.8029   -3.0716 C   0  0  0  0  0  0  0  0  0  0  0  0
   13.2392   25.3607   -2.9018 C   0  0  0  0  0  0  0  0  0  0  0  0
   12.5372   25.6154   -1.9072 O   0  0  0  0  0  0  0  0  0  0  0  0
   13.5756   26.2814   -3.9019 N   0  0  0  0  0  0  0  0  0  0  0  0
   13.3417   27.6874   -4.1154 C   0  0  0  0  0  0  0  0  0  0  0  0
   14.6446   28.3958   -4.4804 C   0  0  0  0  0  0  0  0  0  0  0  0
   15.2593   27.6922   -5.5599 N   0  0  0  0  0  0  0  0  0  0  0  0
   15.6035   26.3136   -5.2529 C   0  0  0  0  0  0  0  0  0  0  0  0
   14.3460   25.5829   -4.9049 C   0  0  0  0  0  0  0  0  0  0  0  0
   16.0990   28.1638   -5.9450 H   0  0  0  0  0  0  0  0  0  0  0  0
   13.0668   22.6987   -1.2491 C   0  0  0  0  0  0  0  0  0  0  0  0
   11.9285   21.9606   -1.3455 F   0  0  0  0  0  0  0  0  0  0  0  0
   12.8228   23.9553   -0.6762 F   0  0  0  0  0  0  0  0  0  0  0  0
   13.8782   22.0477   -0.3075 F   0  0  0  0  0  0  0  0  0  0  0  0
  1  2  1  0  0  0
  2  3  2  0  0  0
  3  4  1  0  0  0
  4  5  2  0  0  0
  5  6  1  0  0  0
  6 17  1  0  0  0
 17 18  1  0  0  0
 17 19  1  0  0  0
 17 20  1  0  0  0
  6  7  2  0  0  0
  5  8  1  0  0  0
  8  9  2  0  0  0
  8 10  1  0  0  0
 10 11  1  0  0  0
 11 12  1  0  0  0
 12 13  1  0  0  0
 13 14  1  0  0  0
 14 15  1  0  0  0
  7  2  1  0  0  0
 15 10  1  0  0  0
 15  4  1  0  0  0
 13 16  1  0  0  0
M  END
> <minimizedAffinity>
3.91149

> <CNNscore>
0.4528697431

> <CNNaffinity>
5.4368200302

> <CNN_VS>
2.4621713161

> <CNNaffinity_variance>
0.7374524474

$$$$
[H]c1c(C([H])([H])[H])c([H])c2c(c1C(F)(F)F)C(=O)N1C([H])([H])C([H])([H])N([H])C([H])([H])[C@@]21[H]


 20 22  0  0  0  0  0  0  0  0999 V2000
   15.3960   23.7853   -5.2371 C   0  0  0  0  0  0  0  0  0  0  0  0
   15.2757   23.6632   -3.7599 C   0  0  0  0  0  0  0  0  0  0  0  0
   14.5163   22.6223   -3.2734 C   0  0  0  0  0  0  0  0  0  0  0  0
   14.3676   22.4572   -1.9224 C   0  0  0  0  0  0  0  0  0  0  0  0
   14.9941   23.3566   -1.0518 C   0  0  0  0  0  0  0  0  0  0  0  0
   15.7557   24.4000   -1.5078 C   0  0  0  0  0  0  0  0  0  0  0  0
   15.8889   24.5424   -2.8830 C   0  0  0  0  0  0  0  0  0  0  0  0
   14.6053   22.9136    0.2876 C   0  0  0  0  0  0  0  0  0  0  0  0
   14.9678   23.4645    1.3422 O   0  0  0  0  0  0  0  0  0  0  0  0
   13.7729   21.7898    0.2160 N   0  0  0  0  0  0  0  0  0  0  0  0
   13.0574   20.9868    1.1753 C   0  0  0  0  0  0  0  0  0  0  0  0
   11.6081   20.7933    0.7341 C   0  0  0  0  0  0  0  0  0  0  0  0
   11.6008   20.3161   -0.6114 N   0  0  0  0  0  0  0  0  0  0  0  0
   12.2126   21.2235   -1.5682 C   0  0  0  0  0  0  0  0  0  0  0  0
   13.6416   21.4249   -1.1758 C   0  0  0  0  0  0  0  0  0  0  0  0
   10.6594   20.0553   -0.9597 H   0  0  0  0  0  0  0  0  0  0  0  0
   16.4148   25.3310   -0.5665 C   0  0  0  0  0  0  0  0  0  0  0  0
   15.5992   25.8555    0.3872 F   0  0  0  0  0  0  0  0  0  0  0  0
   17.0922   26.3323   -1.2772 F   0  0  0  0  0  0  0  0  0  0  0  0
   17.4338   24.6520    0.1187 F   0  0  0  0  0  0  0  0  0  0  0  0
  1  2  1  0  0  0
  2  3  2  0  0  0
  3  4  1  0  0  0
  4  5  2  0  0  0
  5  6  1  0  0  0
  6 17  1  0  0  0
 17 18  1  0  0  0
 17 19  1  0  0  0
 17 20  1  0  0  0
  6  7  2  0  0  0
  5  8  1  0  0  0
  8  9  2  0  0  0
  8 10  1  0  0  0
 10 11  1  0  0  0
 11 12  1  0  0  0
 12 13  1  0  0  0
 13 14  1  0  0  0
 14 15  1  0  0  0
  7  2  1  0  0  0
 15 10  1  0  0  0
 15  4  1  0  0  0
 13 16  1  0  0  0
M  END
> <minimizedAffinity>
-4.52920

> <CNNscore>
0.4375729561

> <CNNaffinity>
5.9629974365

> <CNN_VS>
2.6092464924

> <CNNaffinity_variance>
0.2413100302

$$$$
[H]c1c(C([H])([H])[H])c([H])c2c(c1C(F)(F)F)C(=O)N1C([H])([H])C([H])([H])N([H])C([H])([H])[C@@]21[H]


 20 22  0  0  0  0  0  0  0  0999 V2000
   14.8872   26.7181   -5.3596 C   0  0  0  0  0  0  0  0  0  0  0  0
   14.5782   25.5150   -4.5419 C   0  0  0  0  0  0  0  0  0  0  0  0
   13.6940   25.6731   -3.4977 C   0  0  0  0  0  0  0  0  0  0  0  0
   13.3696   24.6026   -2.7082 C   0  0  0  0  0  0  0  0  0  0  0  0
   13.9471   23.3562   -2.9772 C   0  0  0  0  0  0  0  0  0  0  0  0
   14.8286   23.1701   -4.0092 C   0  0  0  0  0  0  0  0  0  0  0  0
   15.1386   24.2738   -4.7932 C   0  0  0  0  0  0  0  0  0  0  0  0
   13.4171   22.4669   -1.9430 C   0  0  0  0  0  0  0  0  0  0  0  0
   13.6978   21.2592   -1.8440 O   0  0  0  0  0  0  0  0  0  0  0  0
   12.5551   23.1618   -1.0856 N   0  0  0  0  0  0  0  0  0  0  0  0
   11.8172   22.8314    0.1074 C   0  0  0  0  0  0  0  0  0  0  0  0
   12.0527   23.8835    1.1892 C   0  0  0  0  0  0  0  0  0  0  0  0
   11.7993   25.1738    0.6333 N   0  0  0  0  0  0  0  0  0  0  0  0
   12.6622   25.5208   -0.4839 C   0  0  0  0  0  0  0  0  0  0  0  0
   12.4465   24.5179   -1.5720 C   0  0  0  0  0  0  0  0  0  0  0  0
   11.8321   25.9441    1.3270 H   0  0  0  0  0  0  0  0  0  0  0  0
   15.4178   21.8405   -4.2779 C   0  0  0  0  0  0  0  0  0  0  0  0
   15.7111   21.1083   -3.1699 F   0  0  0  0  0  0  0  0  0  0  0  0
   16.5296   21.9702   -5.1228 F   0  0  0  0  0  0  0  0  0  0  0  0
   14.5104   21.0746   -5.0255 F   0  0  0  0  0  0  0  0  0  0  0  0
  1  2  1  0  0  0
  2  3  2  0  0  0
  3  4  1  0  0  0
  4  5  2  0  0  0
  5  6  1  0  0  0
  6 17  1  0  0  0
 17 18  1  0  0  0
 17 19  1  0  0  0
 17 20  1  0  0  0
  6  7  2  0  0  0
  5  8  1  0  0  0
  8  9  2  0  0  0
  8 10  1  0  0  0
 10 11  1  0  0  0
 11 12  1  0  0  0
 12 13  1  0  0  0
 13 14  1  0  0  0
 14 15  1  0  0  0
  7  2  1  0  0  0
 15 10  1  0  0  0
 15  4  1  0  0  0
 13 16  1  0  0  0
M  END
> <minimizedAffinity>
-0.39290

> <CNNscore>
0.4164278507

> <CNNaffinity>
5.5787777901

> <CNN_VS>
2.3231585026

> <CNNaffinity_variance>
0.4586297870

$$$$
[H]c1c(C([H])([H])[H])c([H])c2c(c1C(F)(F)F)C(=O)N1C([H])([H])C([H])([H])N([H])C([H])([H])[C@@]21[H]


 20 22  0  0  0  0  0  0  0  0999 V2000
   10.3967   27.1572    3.7627 C   0  0  0  0  0  0  0  0  0  0  0  0
   10.2918   25.8231    3.1140 C   0  0  0  0  0  0  0  0  0  0  0  0
    9.3274   24.9640    3.5924 C   0  0  0  0  0  0  0  0  0  0  0  0
    9.1818   23.7214    3.0363 C   0  0  0  0  0  0  0  0  0  0  0  0
   10.0226   23.3418    1.9836 C   0  0  0  0  0  0  0  0  0  0  0  0
   10.9895   24.1760    1.4876 C   0  0  0  0  0  0  0  0  0  0  0  0
   11.1138   25.4303    2.0710 C   0  0  0  0  0  0  0  0  0  0  0  0
    9.6225   21.9720    1.6600 C   0  0  0  0  0  0  0  0  0  0  0  0
   10.1414   21.2817    0.7649 O   0  0  0  0  0  0  0  0  0  0  0  0
    8.5802   21.5496    2.4944 N   0  0  0  0  0  0  0  0  0  0  0  0
    7.8504   20.3198    2.6733 C   0  0  0  0  0  0  0  0  0  0  0  0
    7.7900   19.9455    4.1528 C   0  0  0  0  0  0  0  0  0  0  0  0
    7.3106   21.0709    4.8888 N   0  0  0  0  0  0  0  0  0  0  0  0
    8.1539   22.2507    4.7891 C   0  0  0  0  0  0  0  0  0  0  0  0
    8.2239   22.6568    3.3515 C   0  0  0  0  0  0  0  0  0  0  0  0
    7.1366   20.8738    5.8921 H   0  0  0  0  0  0  0  0  0  0  0  0
   11.8590   23.7542    0.3681 C   0  0  0  0  0  0  0  0  0  0  0  0
   12.6855   22.7102    0.6455 F   0  0  0  0  0  0  0  0  0  0  0  0
   12.5666   24.8569   -0.1318 F   0  0  0  0  0  0  0  0  0  0  0  0
   11.0597   23.3460   -0.7105 F   0  0  0  0  0  0  0  0  0  0  0  0
  1  2  1  0  0  0
  2  3  2  0  0  0
  3  4  1  0  0  0
  4  5  2  0  0  0
  5  6  1  0  0  0
  6 17  1  0  0  0
 17 18  1  0  0  0
 17 19  1  0  0  0
 17 20  1  0  0  0
  6  7  2  0  0  0
  5  8  1  0  0  0
  8  9  2  0  0  0
  8 10  1  0  0  0
 10 11  1  0  0  0
 11 12  1  0  0  0
 12 13  1  0  0  0
 13 14  1  0  0  0
 14 15  1  0  0  0
  7  2  1  0  0  0
 15 10  1  0  0  0
 15  4  1  0  0  0
 13 16  1  0  0  0
M  END
> <minimizedAffinity>
3.31273

> <CNNscore>
0.4142365754

> <CNNaffinity>
4.6295170784

> <CNN_VS>
1.9177153111

> <CNNaffinity_variance>
1.5550682545

$$$$
[H]c1c(C([H])([H])[H])c([H])c2c(c1C(F)(F)F)C(=O)N1C([H])([H])C([H])([H])N([H])C([H])([H])[C@@]21[H]


 20 22  0  0  0  0  0  0  0  0999 V2000
   12.5493   27.2886   -4.1839 C   0  0  0  0  0  0  0  0  0  0  0  0
   13.1320   26.3085   -3.2291 C   0  0  0  0  0  0  0  0  0  0  0  0
   12.2542   25.4962   -2.5458 C   0  0  0  0  0  0  0  0  0  0  0  0
   12.7298   24.5739   -1.6528 C   0  0  0  0  0  0  0  0  0  0  0  0
   14.1105   24.4718   -1.4470 C   0  0  0  0  0  0  0  0  0  0  0  0
   15.0062   25.2660   -2.1131 C   0  0  0  0  0  0  0  0  0  0  0  0
   14.4949   26.1922   -3.0130 C   0  0  0  0  0  0  0  0  0  0  0  0
   14.2614   23.4333   -0.4272 C   0  0  0  0  0  0  0  0  0  0  0  0
   15.3534   23.0489    0.0275 O   0  0  0  0  0  0  0  0  0  0  0  0
   13.0117   22.9361   -0.0372 N   0  0  0  0  0  0  0  0  0  0  0  0
   12.5526   21.9818    0.9404 C   0  0  0  0  0  0  0  0  0  0  0  0
   11.4112   22.5712    1.7665 C   0  0  0  0  0  0  0  0  0  0  0  0
   10.4193   23.0812    0.8754 N   0  0  0  0  0  0  0  0  0  0  0  0
   10.8934   24.1403   -0.0002 C   0  0  0  0  0  0  0  0  0  0  0  0
   12.0048   23.5935   -0.8381 C   0  0  0  0  0  0  0  0  0  0  0  0
    9.5560   23.4066    1.3492 H   0  0  0  0  0  0  0  0  0  0  0  0
   16.4612   25.1317   -1.8844 C   0  0  0  0  0  0  0  0  0  0  0  0
   17.0455   24.0758   -2.5116 F   0  0  0  0  0  0  0  0  0  0  0  0
   16.7326   25.1323   -0.5085 F   0  0  0  0  0  0  0  0  0  0  0  0
   17.1125   26.2801   -2.3597 F   0  0  0  0  0  0  0  0  0  0  0  0
  1  2  1  0  0  0
  2  3  2  0  0  0
  3  4  1  0  0  0
  4  5  2  0  0  0
  5  6  1  0  0  0
  6 17  1  0  0  0
 17 18  1  0  0  0
 17 19  1  0  0  0
 17 20  1  0  0  0
  6  7  2  0  0  0
  5  8  1  0  0  0
  8  9  2  0  0  0
  8 10  1  0  0  0
 10 11  1  0  0  0
 11 12  1  0  0  0
 12 13  1  0  0  0
 13 14  1  0  0  0
 14 15  1  0  0  0
  7  2  1  0  0  0
 15 10  1  0  0  0
 15  4  1  0  0  0
 13 16  1  0  0  0
M  END
> <minimizedAffinity>
-6.84708

> <CNNscore>
0.3888722062

> <CNNaffinity>
5.5772829056

> <CNN_VS>
2.1688504219

> <CNNaffinity_variance>
0.1962220371

$$$$
[H]c1c(C([H])([H])[H])c([H])c2c(c1C(F)(F)F)C(=O)N1C([H])([H])C([H])([H])N([H])C([H])([H])[C@@]21[H]


 20 22  0  0  0  0  0  0  0  0999 V2000
   14.5730   20.5792   -4.7223 C   0  0  0  0  0  0  0  0  0  0  0  0
   14.7243   21.8696   -3.9989 C   0  0  0  0  0  0  0  0  0  0  0  0
   14.8262   23.0117   -4.7621 C   0  0  0  0  0  0  0  0  0  0  0  0
   14.9675   24.2302   -4.1541 C   0  0  0  0  0  0  0  0  0  0  0  0
   15.0073   24.2952   -2.7564 C   0  0  0  0  0  0  0  0  0  0  0  0
   14.9075   23.1759   -1.9728 C   0  0  0  0  0  0  0  0  0  0  0  0
   14.7646   21.9539   -2.6172 C   0  0  0  0  0  0  0  0  0  0  0  0
   15.1957   25.7142   -2.4527 C   0  0  0  0  0  0  0  0  0  0  0  0
   15.2793   26.1811   -1.3029 O   0  0  0  0  0  0  0  0  0  0  0  0
   15.2685   26.4679   -3.6307 N   0  0  0  0  0  0  0  0  0  0  0  0
   15.5017   27.8557   -3.9416 C   0  0  0  0  0  0  0  0  0  0  0  0
   16.5680   27.9875   -5.0271 C   0  0  0  0  0  0  0  0  0  0  0  0
   16.2055   27.1517   -6.1264 N   0  0  0  0  0  0  0  0  0  0  0  0
   16.1160   25.7389   -5.7960 C   0  0  0  0  0  0  0  0  0  0  0  0
   15.0671   25.5691   -4.7438 C   0  0  0  0  0  0  0  0  0  0  0  0
   16.8193   27.2583   -6.9556 H   0  0  0  0  0  0  0  0  0  0  0  0
   14.9429   23.2728   -0.4974 C   0  0  0  0  0  0  0  0  0  0  0  0
   15.9594   24.0247    0.0039 F   0  0  0  0  0  0  0  0  0  0  0  0
   14.9192   21.9899    0.0684 F   0  0  0  0  0  0  0  0  0  0  0  0
   13.7551   23.8663   -0.0438 F   0  0  0  0  0  0  0  0  0  0  0  0
  1  2  1  0  0  0
  2  3  2  0  0  0
  3  4  1  0  0  0
  4  5  2  0  0  0
  5  6  1  0  0  0
  6 17  1  0  0  0
 17 18  1  0  0  0
 17 19  1  0  0  0
 17 20  1  0  0  0
  6  7  2  0  0  0
  5  8  1  0  0  0
  8  9  2  0  0  0
  8 10  1  0  0  0
 10 11  1  0  0  0
 11 12  1  0  0  0
 12 13  1  0  0  0
 13 14  1  0  0  0
 14 15  1  0  0  0
  7  2  1  0  0  0
 15 10  1  0  0  0
 15  4  1  0  0  0
 13 16  1  0  0  0
M  END
> <minimizedAffinity>
1.50810

> <CNNscore>
0.3744327128

> <CNNaffinity>
5.7046518326

> <CNN_VS>
2.1360082626

> <CNNaffinity_variance>
0.7050049901

$$$$
[H]c1c(C([H])([H])[H])c([H])c2c(c1C(F)(F)F)C(=O)N1C([H])([H])C([H])([H])N([H])C([H])([H])[C@@]21[H]


 20 22  0  0  0  0  0  0  0  0999 V2000
   12.6791   26.5936   -3.4066 C   0  0  0  0  0  0  0  0  0  0  0  0
   12.7663   25.5653   -2.3359 C   0  0  0  0  0  0  0  0  0  0  0  0
   11.6112   24.8844   -2.0207 C   0  0  0  0  0  0  0  0  0  0  0  0
   11.6275   23.9258   -1.0433 C   0  0  0  0  0  0  0  0  0  0  0  0
   12.8268   23.6524   -0.3752 C   0  0  0  0  0  0  0  0  0  0  0  0
   13.9902   24.3134   -0.6687 C   0  0  0  0  0  0  0  0  0  0  0  0
   13.9436   25.2802   -1.6647 C   0  0  0  0  0  0  0  0  0  0  0  0
   12.4826   22.6223    0.6055 C   0  0  0  0  0  0  0  0  0  0  0  0
   13.2916   22.1105    1.3996 O   0  0  0  0  0  0  0  0  0  0  0  0
   11.1232   22.2959    0.5254 N   0  0  0  0  0  0  0  0  0  0  0  0
   10.2374   21.4264    1.2578 C   0  0  0  0  0  0  0  0  0  0  0  0
    8.9644   22.1717    1.6534 C   0  0  0  0  0  0  0  0  0  0  0  0
    8.4155   22.7872    0.4880 N   0  0  0  0  0  0  0  0  0  0  0  0
    9.2931   23.7608   -0.1406 C   0  0  0  0  0  0  0  0  0  0  0  0
   10.5478   23.0613   -0.5565 C   0  0  0  0  0  0  0  0  0  0  0  0
    7.4899   23.2289    0.6423 H   0  0  0  0  0  0  0  0  0  0  0  0
   15.2464   23.9990    0.0458 C   0  0  0  0  0  0  0  0  0  0  0  0
   15.2415   24.2966    1.3730 F   0  0  0  0  0  0  0  0  0  0  0  0
   16.3342   24.5892   -0.6138 F   0  0  0  0  0  0  0  0  0  0  0  0
   15.4994   22.6219   -0.0466 F   0  0  0  0  0  0  0  0  0  0  0  0
  1  2  1  0  0  0
  2  3  2  0  0  0
  3  4  1  0  0  0
  4  5  2  0  0  0
  5  6  1  0  0  0
  6 17  1  0  0  0
 17 18  1  0  0  0
 17 19  1  0  0  0
 17 20  1  0  0  0
  6  7  2  0  0  0
  5  8  1  0  0  0
  8  9  2  0  0  0
  8 10  1  0  0  0
 10 11  1  0  0  0
 11 12  1  0  0  0
 12 13  1  0  0  0
 13 14  1  0  0  0
 14 15  1  0  0  0
  7  2  1  0  0  0
 15 10  1  0  0  0
 15  4  1  0  0  0
 13 16  1  0  0  0
M  END
> <minimizedAffinity>
-6.23011

> <CNNscore>
0.3592285812

> <CNNaffinity>
5.6143417358

> <CNN_VS>
2.0168321133

> <CNNaffinity_variance>
0.2680073380

$$$$
[H]c1c(C([H])([H])[H])c([H])c2c(c1C(F)(F)F)C(=O)N1C([H])([H])C([H])([H])N([H])C([H])([H])[C@@]21[H]


 20 22  0  0  0  0  0  0  0  0999 V2000
   12.6782   27.6594   -3.7609 C   0  0  0  0  0  0  0  0  0  0  0  0
   13.0721   26.3017   -3.2991 C   0  0  0  0  0  0  0  0  0  0  0  0
   12.3108   25.7291   -2.3043 C   0  0  0  0  0  0  0  0  0  0  0  0
   12.6233   24.4808   -1.8368 C   0  0  0  0  0  0  0  0  0  0  0  0
   13.7202   23.8028   -2.3812 C   0  0  0  0  0  0  0  0  0  0  0  0
   14.4941   24.3478   -3.3716 C   0  0  0  0  0  0  0  0  0  0  0  0
   14.1530   25.6151   -3.8263 C   0  0  0  0  0  0  0  0  0  0  0  0
   13.7842   22.5407   -1.6434 C   0  0  0  0  0  0  0  0  0  0  0  0
   14.6340   21.6543   -1.8408 O   0  0  0  0  0  0  0  0  0  0  0  0
   12.7610   22.4715   -0.6898 N   0  0  0  0  0  0  0  0  0  0  0  0
   12.3803   21.5293    0.3321 C   0  0  0  0  0  0  0  0  0  0  0  0
   12.1464   22.2473    1.6596 C   0  0  0  0  0  0  0  0  0  0  0  0
   11.2434   23.3309    1.4391 N   0  0  0  0  0  0  0  0  0  0  0  0
   11.7299   24.3301    0.5021 C   0  0  0  0  0  0  0  0  0  0  0  0
   11.9560   23.6644   -0.8177 C   0  0  0  0  0  0  0  0  0  0  0  0
   10.9437   23.8117    2.3079 H   0  0  0  0  0  0  0  0  0  0  0  0
   15.6424   23.6065   -3.9366 C   0  0  0  0  0  0  0  0  0  0  0  0
   15.3892   22.3069   -4.2478 F   0  0  0  0  0  0  0  0  0  0  0  0
   16.7554   23.7301   -3.0925 F   0  0  0  0  0  0  0  0  0  0  0  0
   16.0501   24.2234   -5.1291 F   0  0  0  0  0  0  0  0  0  0  0  0
  1  2  1  0  0  0
  2  3  2  0  0  0
  3  4  1  0  0  0
  4  5  2  0  0  0
  5  6  1  0  0  0
  6 17  1  0  0  0
 17 18  1  0  0  0
 17 19  1  0  0  0
 17 20  1  0  0  0
  6  7  2  0  0  0
  5  8  1  0  0  0
  8  9  2  0  0  0
  8 10  1  0  0  0
 10 11  1  0  0  0
 11 12  1  0  0  0
 12 13  1  0  0  0
 13 14  1  0  0  0
 14 15  1  0  0  0
  7  2  1  0  0  0
 15 10  1  0  0  0
 15  4  1  0  0  0
 13 16  1  0  0  0
M  END
> <minimizedAffinity>
-7.17103

> <CNNscore>
0.2915549874

> <CNNaffinity>
5.2992839813

> <CNN_VS>
1.5450326204

> <CNNaffinity_variance>
0.1705201566

$$$$
[H]c1c(C([H])([H])[H])c([H])c2c(c1C(F)(F)F)C(=O)N1C([H])([H])C([H])([H])N([H])C([H])([H])[C@@]21[H]


 20 22  0  0  0  0  0  0  0  0999 V2000
   13.4533   27.4439   -0.4688 C   0  0  0  0  0  0  0  0  0  0  0  0
   12.9325   26.1045   -0.0864 C   0  0  0  0  0  0  0  0  0  0  0  0
   13.6274   25.0052   -0.5401 C   0  0  0  0  0  0  0  0  0  0  0  0
   13.1974   23.7450   -0.2215 C   0  0  0  0  0  0  0  0  0  0  0  0
   12.0496   23.5939    0.5652 C   0  0  0  0  0  0  0  0  0  0  0  0
   11.3396   24.6691    1.0305 C   0  0  0  0  0  0  0  0  0  0  0  0
   11.7995   25.9351    0.6918 C   0  0  0  0  0  0  0  0  0  0  0  0
   11.8629   22.1472    0.6811 C   0  0  0  0  0  0  0  0  0  0  0  0
   10.9382   21.6069    1.3137 O   0  0  0  0  0  0  0  0  0  0  0  0
   12.8648   21.4605   -0.0158 N   0  0  0  0  0  0  0  0  0  0  0  0
   13.1469   20.0753   -0.2964 C   0  0  0  0  0  0  0  0  0  0  0  0
   13.4303   19.8792   -1.7843 C   0  0  0  0  0  0  0  0  0  0  0  0
   14.4305   20.8157   -2.1853 N   0  0  0  0  0  0  0  0  0  0  0  0
   14.0473   22.2071   -2.0115 C   0  0  0  0  0  0  0  0  0  0  0  0
   13.7763   22.4408   -0.5595 C   0  0  0  0  0  0  0  0  0  0  0  0
   14.7629   20.6843   -3.1589 H   0  0  0  0  0  0  0  0  0  0  0  0
   10.1350   24.4823    1.8680 C   0  0  0  0  0  0  0  0  0  0  0  0
   10.3163   23.7035    2.9682 F   0  0  0  0  0  0  0  0  0  0  0  0
    9.0687   24.0260    1.0798 F   0  0  0  0  0  0  0  0  0  0  0  0
    9.7000   25.7308    2.3382 F   0  0  0  0  0  0  0  0  0  0  0  0
  1  2  1  0  0  0
  2  3  2  0  0  0
  3  4  1  0  0  0
  4  5  2  0  0  0
  5  6  1  0  0  0
  6 17  1  0  0  0
 17 18  1  0  0  0
 17 19  1  0  0  0
 17 20  1  0  0  0
  6  7  2  0  0  0
  5  8  1  0  0  0
  8  9  2  0  0  0
  8 10  1  0  0  0
 10 11  1  0  0  0
 11 12  1  0  0  0
 12 13  1  0  0  0
 13 14  1  0  0  0
 14 15  1  0  0  0
  7  2  1  0  0  0
 15 10  1  0  0  0
 15  4  1  0  0  0
 13 16  1  0  0  0
M  END
> <minimizedAffinity>
4.76411

> <CNNscore>
0.2846612632

> <CNNaffinity>
5.1634411812

> <CNN_VS>
1.4698317051

> <CNNaffinity_variance>
0.6899300218

$$$$
[H]N=C1c2c([H])nc([H])nc2C([H])([H])[C@](c2c([H])c(-c3c([H])nc([H])c(Cl)c3[H])c([H])c([H])c2F)(C([H])([H])[H])N1[H]


 28 31  0  0  0  0  0  0  0  0999 V2000
   14.1932   21.3598   -1.0201 C   0  0  0  0  0  0  0  0  0  0  0  0
   13.7404   22.7563   -0.7193 C   0  0  0  0  0  0  0  0  0  0  0  0
   12.4558   22.9953   -1.4744 C   0  0  0  0  0  0  0  0  0  0  0  0
   11.4067   22.0511   -1.0447 C   0  0  0  0  0  0  0  0  0  0  0  0
   10.4549   21.6675   -1.9193 N   0  0  0  0  0  0  0  0  0  0  0  0
    9.4680   20.8205   -1.5784 C   0  0  0  0  0  0  0  0  0  0  0  0
    9.4595   20.3598   -0.3161 N   0  0  0  0  0  0  0  0  0  0  0  0
   10.3968   20.7176    0.5993 C   0  0  0  0  0  0  0  0  0  0  0  0
   11.3969   21.5790    0.2444 C   0  0  0  0  0  0  0  0  0  0  0  0
   12.4433   21.9784    1.2095 C   0  0  0  0  0  0  0  0  0  0  0  0
   12.4534   21.5625    2.4051 N   0  0  0  0  0  0  0  0  0  0  0  0
   13.4306   22.8644    0.7009 N   0  0  0  0  0  0  0  0  0  0  0  0
   11.8134   20.9371    2.8921 H   0  0  0  0  0  0  0  0  0  0  0  0
   13.8834   23.5406    1.3513 H   0  0  0  0  0  0  0  0  0  0  0  0
   14.7398   23.7759   -1.1299 C   0  0  0  0  0  0  0  0  0  0  0  0
   14.6961   24.4059   -2.3539 C   0  0  0  0  0  0  0  0  0  0  0  0
   15.6467   25.3559   -2.7189 C   0  0  0  0  0  0  0  0  0  0  0  0
   16.6457   25.6541   -1.8125 C   0  0  0  0  0  0  0  0  0  0  0  0
   16.7221   25.0365   -0.5632 C   0  0  0  0  0  0  0  0  0  0  0  0
   15.7528   24.1025   -0.2554 C   0  0  0  0  0  0  0  0  0  0  0  0
   15.7878   23.4733    0.9559 F   0  0  0  0  0  0  0  0  0  0  0  0
   15.6230   26.0348   -4.0075 C   0  0  0  0  0  0  0  0  0  0  0  0
   15.7504   27.4047   -4.0616 C   0  0  0  0  0  0  0  0  0  0  0  0
   15.7294   28.0673   -5.2465 N   0  0  0  0  0  0  0  0  0  0  0  0
   15.5844   27.4299   -6.4265 C   0  0  0  0  0  0  0  0  0  0  0  0
   15.4549   26.0643   -6.4101 C   0  0  0  0  0  0  0  0  0  0  0  0
   15.2658   25.2235   -7.9270 Cl  0  0  0  0  0  0  0  0  0  0  0  0
   15.4737   25.3622   -5.2024 C   0  0  0  0  0  0  0  0  0  0  0  0
  2  1  1  0  0  0
  2 15  1  0  0  0
 15 16  2  0  0  0
 16 17  1  0  0  0
 17 22  1  0  0  0
 22 23  2  0  0  0
 23 24  1  0  0  0
 24 25  2  0  0  0
 25 26  1  0  0  0
 26 27  1  0  0  0
 26 28  2  0  0  0
 17 18  2  0  0  0
 18 19  1  0  0  0
 19 20  2  0  0  0
 20 21  1  0  0  0
  2  3  1  0  0  0
  3  4  1  0  0  0
  4  5  2  0  0  0
  5  6  1  0  0  0
  6  7  2  0  0  0
  7  8  1  0  0  0
  8  9  2  0  0  0
  9 10  1  0  0  0
 10 11  2  0  0  0
 10 12  1  0  0  0
 12  2  1  0  0  0
 20 15  1  0  0  0
  9  4  1  0  0  0
 28 22  1  0  0  0
 11 13  1  0  0  0
 12 14  1  0  0  0
M  END
> <minimizedAffinity>
-10.20915

> <CNNscore>
0.7104358673

> <CNNaffinity>
7.9096107483

> <CNN_VS>
5.6192712784

> <CNNaffinity_variance>
0.0957161337

$$$$
[H]N=C1c2c([H])nc([H])nc2C([H])([H])[C@](c2c([H])c(-c3c([H])nc([H])c(Cl)c3[H])c([H])c([H])c2F)(C([H])([H])[H])N1[H]


 28 31  0  0  0  0  0  0  0  0999 V2000
   12.3485   24.5439    0.5280 C   0  0  0  0  0  0  0  0  0  0  0  0
   12.3312   23.2794   -0.2760 C   0  0  0  0  0  0  0  0  0  0  0  0
   12.6452   22.1366    0.6583 C   0  0  0  0  0  0  0  0  0  0  0  0
   11.6338   22.0353    1.7278 C   0  0  0  0  0  0  0  0  0  0  0  0
   11.9863   21.5528    2.9364 N   0  0  0  0  0  0  0  0  0  0  0  0
   11.1035   21.4259    3.9425 C   0  0  0  0  0  0  0  0  0  0  0  0
    9.8361   21.8017    3.7018 N   0  0  0  0  0  0  0  0  0  0  0  0
    9.4346   22.2934    2.5011 C   0  0  0  0  0  0  0  0  0  0  0  0
   10.3386   22.4193    1.4836 C   0  0  0  0  0  0  0  0  0  0  0  0
    9.9413   22.9652    0.1682 C   0  0  0  0  0  0  0  0  0  0  0  0
    8.7529   23.3205   -0.0844 N   0  0  0  0  0  0  0  0  0  0  0  0
   10.9858   23.0567   -0.7905 N   0  0  0  0  0  0  0  0  0  0  0  0
    7.9201   23.3045    0.5022 H   0  0  0  0  0  0  0  0  0  0  0  0
   10.7512   22.9632   -1.8012 H   0  0  0  0  0  0  0  0  0  0  0  0
   13.3307   23.2942   -1.3751 C   0  0  0  0  0  0  0  0  0  0  0  0
   13.7300   24.4557   -1.9985 C   0  0  0  0  0  0  0  0  0  0  0  0
   14.6657   24.4447   -3.0297 C   0  0  0  0  0  0  0  0  0  0  0  0
   15.1896   23.2261   -3.4162 C   0  0  0  0  0  0  0  0  0  0  0  0
   14.8092   22.0290   -2.8078 C   0  0  0  0  0  0  0  0  0  0  0  0
   13.8778   22.1003   -1.7910 C   0  0  0  0  0  0  0  0  0  0  0  0
   13.4765   20.9541   -1.1669 F   0  0  0  0  0  0  0  0  0  0  0  0
   15.1030   25.6588   -3.7055 C   0  0  0  0  0  0  0  0  0  0  0  0
   14.3059   26.2280   -4.6732 C   0  0  0  0  0  0  0  0  0  0  0  0
   14.6863   27.3577   -5.3234 N   0  0  0  0  0  0  0  0  0  0  0  0
   15.8535   27.9815   -5.0622 C   0  0  0  0  0  0  0  0  0  0  0  0
   16.6727   27.4418   -4.1033 C   0  0  0  0  0  0  0  0  0  0  0  0
   18.1866   28.2351   -3.7532 Cl  0  0  0  0  0  0  0  0  0  0  0  0
   16.3013   26.2800   -3.4221 C   0  0  0  0  0  0  0  0  0  0  0  0
  2  1  1  0  0  0
  2 15  1  0  0  0
 15 16  2  0  0  0
 16 17  1  0  0  0
 17 22  1  0  0  0
 22 23  2  0  0  0
 23 24  1  0  0  0
 24 25  2  0  0  0
 25 26  1  0  0  0
 26 27  1  0  0  0
 26 28  2  0  0  0
 17 18  2  0  0  0
 18 19  1  0  0  0
 19 20  2  0  0  0
 20 21  1  0  0  0
  2  3  1  0  0  0
  3  4  1  0  0  0
  4  5  2  0  0  0
  5  6  1  0  0  0
  6  7  2  0  0  0
  7  8  1  0  0  0
  8  9  2  0  0  0
  9 10  1  0  0  0
 10 11  2  0  0  0
 10 12  1  0  0  0
 12  2  1  0  0  0
 20 15  1  0  0  0
  9  4  1  0  0  0
 28 22  1  0  0  0
 11 13  1  0  0  0
 12 14  1  0  0  0
M  END
> <minimizedAffinity>
-10.26840

> <CNNscore>
0.6730670929

> <CNNaffinity>
7.6985549927

> <CNN_VS>
5.1816439629

> <CNNaffinity_variance>
0.3394232392

$$$$
[H]N=C1c2c([H])nc([H])nc2C([H])([H])[C@](c2c([H])c(-c3c([H])nc([H])c(Cl)c3[H])c([H])c([H])c2F)(C([H])([H])[H])N1[H]


 28 31  0  0  0  0  0  0  0  0999 V2000
   11.9965   24.7191   -0.1383 C   0  0  0  0  0  0  0  0  0  0  0  0
   13.0089   23.7365   -0.6434 C   0  0  0  0  0  0  0  0  0  0  0  0
   13.3828   22.8311    0.5046 C   0  0  0  0  0  0  0  0  0  0  0  0
   12.2060   22.0911    0.9990 C   0  0  0  0  0  0  0  0  0  0  0  0
   12.1407   21.7310    2.2967 N   0  0  0  0  0  0  0  0  0  0  0  0
   11.0991   21.0446    2.7982 C   0  0  0  0  0  0  0  0  0  0  0  0
   10.1073   20.7227    1.9507 N   0  0  0  0  0  0  0  0  0  0  0  0
   10.1289   21.0639    0.6363 C   0  0  0  0  0  0  0  0  0  0  0  0
   11.1915   21.7620    0.1346 C   0  0  0  0  0  0  0  0  0  0  0  0
   11.2421   22.1643   -1.2872 C   0  0  0  0  0  0  0  0  0  0  0  0
   10.3232   21.8680   -2.1059 N   0  0  0  0  0  0  0  0  0  0  0  0
   12.3959   22.9005   -1.6681 N   0  0  0  0  0  0  0  0  0  0  0  0
    9.4573   21.3494   -1.9674 H   0  0  0  0  0  0  0  0  0  0  0  0
   12.7486   22.8144   -2.6446 H   0  0  0  0  0  0  0  0  0  0  0  0
   14.2354   24.4005   -1.1551 C   0  0  0  0  0  0  0  0  0  0  0  0
   14.2976   24.9844   -2.4010 C   0  0  0  0  0  0  0  0  0  0  0  0
   15.4600   25.5977   -2.8612 C   0  0  0  0  0  0  0  0  0  0  0  0
   16.5616   25.6063   -2.0275 C   0  0  0  0  0  0  0  0  0  0  0  0
   16.5359   25.0251   -0.7588 C   0  0  0  0  0  0  0  0  0  0  0  0
   15.3566   24.4312   -0.3552 C   0  0  0  0  0  0  0  0  0  0  0  0
   15.2856   23.8504    0.8785 F   0  0  0  0  0  0  0  0  0  0  0  0
   15.5513   26.2206   -4.1748 C   0  0  0  0  0  0  0  0  0  0  0  0
   15.8064   27.5698   -4.2760 C   0  0  0  0  0  0  0  0  0  0  0  0
   15.8947   28.1807   -5.4854 N   0  0  0  0  0  0  0  0  0  0  0  0
   15.7397   27.5094   -6.6452 C   0  0  0  0  0  0  0  0  0  0  0  0
   15.4843   26.1630   -6.5818 C   0  0  0  0  0  0  0  0  0  0  0  0
   15.2803   25.2791   -8.0720 Cl  0  0  0  0  0  0  0  0  0  0  0  0
   15.3893   25.5142   -5.3482 C   0  0  0  0  0  0  0  0  0  0  0  0
  2  1  1  0  0  0
  2 15  1  0  0  0
 15 16  2  0  0  0
 16 17  1  0  0  0
 17 22  1  0  0  0
 22 23  2  0  0  0
 23 24  1  0  0  0
 24 25  2  0  0  0
 25 26  1  0  0  0
 26 27  1  0  0  0
 26 28  2  0  0  0
 17 18  2  0  0  0
 18 19  1  0  0  0
 19 20  2  0  0  0
 20 21  1  0  0  0
  2  3  1  0  0  0
  3  4  1  0  0  0
  4  5  2  0  0  0
  5  6  1  0  0  0
  6  7  2  0  0  0
  7  8  1  0  0  0
  8  9  2  0  0  0
  9 10  1  0  0  0
 10 11  2  0  0  0
 10 12  1  0  0  0
 12  2  1  0  0  0
 20 15  1  0  0  0
  9  4  1  0  0  0
 28 22  1  0  0  0
 11 13  1  0  0  0
 12 14  1  0  0  0
M  END
> <minimizedAffinity>
-11.10970

> <CNNscore>
0.6413902044

> <CNNaffinity>
7.7748336792

> <CNN_VS>
4.9867019653

> <CNNaffinity_variance>
0.2705368996

$$$$
[H]N=C1c2c([H])nc([H])nc2C([H])([H])[C@](c2c([H])c(-c3c([H])nc([H])c(Cl)c3[H])c([H])c([H])c2F)(C([H])([H])[H])N1[H]


 28 31  0  0  0  0  0  0  0  0999 V2000
   11.3033   24.4258   -1.6869 C   0  0  0  0  0  0  0  0  0  0  0  0
   12.4156   23.9819   -0.7861 C   0  0  0  0  0  0  0  0  0  0  0  0
   12.1326   24.5227    0.5941 C   0  0  0  0  0  0  0  0  0  0  0  0
   10.8571   23.9961    1.1166 C   0  0  0  0  0  0  0  0  0  0  0  0
   10.1291   24.7398    1.9739 N   0  0  0  0  0  0  0  0  0  0  0  0
    8.9670   24.3046    2.4913 C   0  0  0  0  0  0  0  0  0  0  0  0
    8.5461   23.0834    2.1210 N   0  0  0  0  0  0  0  0  0  0  0  0
    9.2449   22.2988    1.2605 C   0  0  0  0  0  0  0  0  0  0  0  0
   10.4254   22.7489    0.7388 C   0  0  0  0  0  0  0  0  0  0  0  0
   11.2052   21.9291   -0.2129 C   0  0  0  0  0  0  0  0  0  0  0  0
   10.8324   20.7740   -0.5723 N   0  0  0  0  0  0  0  0  0  0  0  0
   12.4024   22.5276   -0.6890 N   0  0  0  0  0  0  0  0  0  0  0  0
   10.0101   20.2336   -0.3083 H   0  0  0  0  0  0  0  0  0  0  0  0
   13.2050   21.9144   -0.9444 H   0  0  0  0  0  0  0  0  0  0  0  0
   13.7412   24.4780   -1.2376 C   0  0  0  0  0  0  0  0  0  0  0  0
   13.9266   25.0953   -2.4547 C   0  0  0  0  0  0  0  0  0  0  0  0
   15.1798   25.5487   -2.8586 C   0  0  0  0  0  0  0  0  0  0  0  0
   16.2445   25.3618   -1.9983 C   0  0  0  0  0  0  0  0  0  0  0  0
   16.0949   24.7408   -0.7573 C   0  0  0  0  0  0  0  0  0  0  0  0
   14.8295   24.3114   -0.4096 C   0  0  0  0  0  0  0  0  0  0  0  0
   14.6362   23.6989    0.7954 F   0  0  0  0  0  0  0  0  0  0  0  0
   15.4018   26.2030   -4.1410 C   0  0  0  0  0  0  0  0  0  0  0  0
   15.7422   27.5365   -4.1788 C   0  0  0  0  0  0  0  0  0  0  0  0
   15.9530   28.1760   -5.3578 N   0  0  0  0  0  0  0  0  0  0  0  0
   15.8427   27.5496   -6.5475 C   0  0  0  0  0  0  0  0  0  0  0  0
   15.5049   26.2200   -6.5474 C   0  0  0  0  0  0  0  0  0  0  0  0
   15.3572   25.3942   -8.0770 Cl  0  0  0  0  0  0  0  0  0  0  0  0
   15.2835   25.5423   -5.3459 C   0  0  0  0  0  0  0  0  0  0  0  0
  2  1  1  0  0  0
  2 15  1  0  0  0
 15 16  2  0  0  0
 16 17  1  0  0  0
 17 22  1  0  0  0
 22 23  2  0  0  0
 23 24  1  0  0  0
 24 25  2  0  0  0
 25 26  1  0  0  0
 26 27  1  0  0  0
 26 28  2  0  0  0
 17 18  2  0  0  0
 18 19  1  0  0  0
 19 20  2  0  0  0
 20 21  1  0  0  0
  2  3  1  0  0  0
  3  4  1  0  0  0
  4  5  2  0  0  0
  5  6  1  0  0  0
  6  7  2  0  0  0
  7  8  1  0  0  0
  8  9  2  0  0  0
  9 10  1  0  0  0
 10 11  2  0  0  0
 10 12  1  0  0  0
 12  2  1  0  0  0
 20 15  1  0  0  0
  9  4  1  0  0  0
 28 22  1  0  0  0
 11 13  1  0  0  0
 12 14  1  0  0  0
M  END
> <minimizedAffinity>
-10.04853

> <CNNscore>
0.5785949230

> <CNNaffinity>
7.6360640526

> <CNN_VS>
4.4181880951

> <CNNaffinity_variance>
0.1220318452

$$$$
[H]N=C1c2c([H])nc([H])nc2C([H])([H])[C@](c2c([H])c(-c3c([H])nc([H])c(Cl)c3[H])c([H])c([H])c2F)(C([H])([H])[H])N1[H]


 28 31  0  0  0  0  0  0  0  0999 V2000
   10.5775   24.2664   -1.1771 C   0  0  0  0  0  0  0  0  0  0  0  0
   11.4924   23.1379   -0.8096 C   0  0  0  0  0  0  0  0  0  0  0  0
   11.7539   23.2231    0.6742 C   0  0  0  0  0  0  0  0  0  0  0  0
   10.5001   23.0889    1.4403 C   0  0  0  0  0  0  0  0  0  0  0  0
   10.3779   23.7043    2.6338 N   0  0  0  0  0  0  0  0  0  0  0  0
    9.2640   23.6055    3.3801 C   0  0  0  0  0  0  0  0  0  0  0  0
    8.2581   22.8608    2.8910 N   0  0  0  0  0  0  0  0  0  0  0  0
    8.3352   22.2231    1.6944 C   0  0  0  0  0  0  0  0  0  0  0  0
    9.4713   22.3290    0.9417 C   0  0  0  0  0  0  0  0  0  0  0  0
    9.5851   21.6618   -0.3728 C   0  0  0  0  0  0  0  0  0  0  0  0
    8.6539   20.9507   -0.8519 N   0  0  0  0  0  0  0  0  0  0  0  0
   10.8138   21.8714   -1.0545 N   0  0  0  0  0  0  0  0  0  0  0  0
    7.7376   20.7189   -0.4718 H   0  0  0  0  0  0  0  0  0  0  0  0
   11.1713   21.1263   -1.6887 H   0  0  0  0  0  0  0  0  0  0  0  0
   12.7882   23.2016   -1.5336 C   0  0  0  0  0  0  0  0  0  0  0  0
   13.2128   24.3322   -2.1956 C   0  0  0  0  0  0  0  0  0  0  0  0
   14.4299   24.3673   -2.8713 C   0  0  0  0  0  0  0  0  0  0  0  0
   15.2098   23.2270   -2.8607 C   0  0  0  0  0  0  0  0  0  0  0  0
   14.8126   22.0631   -2.2006 C   0  0  0  0  0  0  0  0  0  0  0  0
   13.5962   22.0860   -1.5477 C   0  0  0  0  0  0  0  0  0  0  0  0
   13.1675   20.9699   -0.8882 F   0  0  0  0  0  0  0  0  0  0  0  0
   14.9003   25.5500   -3.5798 C   0  0  0  0  0  0  0  0  0  0  0  0
   14.1297   26.1003   -4.5794 C   0  0  0  0  0  0  0  0  0  0  0  0
   14.5412   27.2005   -5.2604 N   0  0  0  0  0  0  0  0  0  0  0  0
   15.7153   27.8119   -5.0006 C   0  0  0  0  0  0  0  0  0  0  0  0
   16.5088   27.2903   -4.0106 C   0  0  0  0  0  0  0  0  0  0  0  0
   18.0310   28.0679   -3.6616 Cl  0  0  0  0  0  0  0  0  0  0  0  0
   16.1051   26.1589   -3.2972 C   0  0  0  0  0  0  0  0  0  0  0  0
  2  1  1  0  0  0
  2 15  1  0  0  0
 15 16  2  0  0  0
 16 17  1  0  0  0
 17 22  1  0  0  0
 22 23  2  0  0  0
 23 24  1  0  0  0
 24 25  2  0  0  0
 25 26  1  0  0  0
 26 27  1  0  0  0
 26 28  2  0  0  0
 17 18  2  0  0  0
 18 19  1  0  0  0
 19 20  2  0  0  0
 20 21  1  0  0  0
  2  3  1  0  0  0
  3  4  1  0  0  0
  4  5  2  0  0  0
  5  6  1  0  0  0
  6  7  2  0  0  0
  7  8  1  0  0  0
  8  9  2  0  0  0
  9 10  1  0  0  0
 10 11  2  0  0  0
 10 12  1  0  0  0
 12  2  1  0  0  0
 20 15  1  0  0  0
  9  4  1  0  0  0
 28 22  1  0  0  0
 11 13  1  0  0  0
 12 14  1  0  0  0
M  END
> <minimizedAffinity>
-9.71744

> <CNNscore>
0.4714924395

> <CNNaffinity>
7.4279394150

> <CNN_VS>
3.5022172928

> <CNNaffinity_variance>
0.2473976612

$$$$
[H]N=C1c2c([H])nc([H])nc2C([H])([H])[C@](c2c([H])c(-c3c([H])nc([H])c(Cl)c3[H])c([H])c([H])c2F)(C([H])([H])[H])N1[H]


 28 31  0  0  0  0  0  0  0  0999 V2000
   12.3430   21.7961   -1.0427 C   0  0  0  0  0  0  0  0  0  0  0  0
   12.7476   23.0004   -0.2480 C   0  0  0  0  0  0  0  0  0  0  0  0
   11.5428   23.9022   -0.1349 C   0  0  0  0  0  0  0  0  0  0  0  0
   10.4362   23.2203    0.5633 C   0  0  0  0  0  0  0  0  0  0  0  0
    9.1608   23.5403    0.2649 N   0  0  0  0  0  0  0  0  0  0  0  0
    8.1144   22.9610    0.8788 C   0  0  0  0  0  0  0  0  0  0  0  0
    8.3839   22.0364    1.8159 N   0  0  0  0  0  0  0  0  0  0  0  0
    9.6515   21.6813    2.1497 C   0  0  0  0  0  0  0  0  0  0  0  0
   10.7098   22.2751    1.5205 C   0  0  0  0  0  0  0  0  0  0  0  0
   12.1030   21.9025    1.8464 C   0  0  0  0  0  0  0  0  0  0  0  0
   12.3821   21.0390    2.7289 N   0  0  0  0  0  0  0  0  0  0  0  0
   13.1027   22.5858    1.1035 N   0  0  0  0  0  0  0  0  0  0  0  0
   11.7715   20.4859    3.3282 H   0  0  0  0  0  0  0  0  0  0  0  0
   14.0297   22.7583    1.5465 H   0  0  0  0  0  0  0  0  0  0  0  0
   13.8571   23.7535   -0.8876 C   0  0  0  0  0  0  0  0  0  0  0  0
   13.7434   24.3228   -2.1366 C   0  0  0  0  0  0  0  0  0  0  0  0
   14.7987   25.0210   -2.7180 C   0  0  0  0  0  0  0  0  0  0  0  0
   15.9757   25.1297   -2.0029 C   0  0  0  0  0  0  0  0  0  0  0  0
   16.1277   24.5662   -0.7350 C   0  0  0  0  0  0  0  0  0  0  0  0
   15.0482   23.8853   -0.2082 C   0  0  0  0  0  0  0  0  0  0  0  0
   15.1516   23.3182    1.0296 F   0  0  0  0  0  0  0  0  0  0  0  0
   14.7038   25.6306   -4.0376 C   0  0  0  0  0  0  0  0  0  0  0  0
   13.8546   26.6953   -4.2399 C   0  0  0  0  0  0  0  0  0  0  0  0
   13.7412   27.2836   -5.4584 N   0  0  0  0  0  0  0  0  0  0  0  0
   14.4459   26.8645   -6.5296 C   0  0  0  0  0  0  0  0  0  0  0  0
   15.3022   25.8056   -6.3642 C   0  0  0  0  0  0  0  0  0  0  0  0
   16.2210   25.2499   -7.7391 Cl  0  0  0  0  0  0  0  0  0  0  0  0
   15.4345   25.1853   -5.1194 C   0  0  0  0  0  0  0  0  0  0  0  0
  2  1  1  0  0  0
  2 15  1  0  0  0
 15 16  2  0  0  0
 16 17  1  0  0  0
 17 22  1  0  0  0
 22 23  2  0  0  0
 23 24  1  0  0  0
 24 25  2  0  0  0
 25 26  1  0  0  0
 26 27  1  0  0  0
 26 28  2  0  0  0
 17 18  2  0  0  0
 18 19  1  0  0  0
 19 20  2  0  0  0
 20 21  1  0  0  0
  2  3  1  0  0  0
  3  4  1  0  0  0
  4  5  2  0  0  0
  5  6  1  0  0  0
  6  7  2  0  0  0
  7  8  1  0  0  0
  8  9  2  0  0  0
  9 10  1  0  0  0
 10 11  2  0  0  0
 10 12  1  0  0  0
 12  2  1  0  0  0
 20 15  1  0  0  0
  9  4  1  0  0  0
 28 22  1  0  0  0
 11 13  1  0  0  0
 12 14  1  0  0  0
M  END
> <minimizedAffinity>
-8.57703

> <CNNscore>
0.4695629478

> <CNNaffinity>
7.5857162476

> <CNN_VS>
3.5619711876

> <CNNaffinity_variance>
0.2578336596

$$$$
[H]N=C1c2c([H])nc([H])nc2C([H])([H])[C@](c2c([H])c(-c3c([H])nc([H])c(Cl)c3[H])c([H])c([H])c2F)(C([H])([H])[H])N1[H]


 28 31  0  0  0  0  0  0  0  0999 V2000
   13.6695   25.8111   -4.3554 C   0  0  0  0  0  0  0  0  0  0  0  0
   15.0811   25.5223   -3.9433 C   0  0  0  0  0  0  0  0  0  0  0  0
   15.6913   24.6249   -4.9919 C   0  0  0  0  0  0  0  0  0  0  0  0
   15.7057   25.2868   -6.3105 C   0  0  0  0  0  0  0  0  0  0  0  0
   15.6204   24.5430   -7.4318 N   0  0  0  0  0  0  0  0  0  0  0  0
   15.6422   25.0917   -8.6590 C   0  0  0  0  0  0  0  0  0  0  0  0
   15.7539   26.4287   -8.7347 N   0  0  0  0  0  0  0  0  0  0  0  0
   15.8423   27.2186   -7.6335 C   0  0  0  0  0  0  0  0  0  0  0  0
   15.8191   26.6527   -6.3896 C   0  0  0  0  0  0  0  0  0  0  0  0
   15.8973   27.4822   -5.1682 C   0  0  0  0  0  0  0  0  0  0  0  0
   16.0086   28.7423   -5.2138 N   0  0  0  0  0  0  0  0  0  0  0  0
   15.8441   26.7642   -3.9435 N   0  0  0  0  0  0  0  0  0  0  0  0
   16.0611   29.3721   -6.0129 H   0  0  0  0  0  0  0  0  0  0  0  0
   16.3424   27.1478   -3.1129 H   0  0  0  0  0  0  0  0  0  0  0  0
   15.1576   24.8452   -2.6231 C   0  0  0  0  0  0  0  0  0  0  0  0
   15.9443   25.3137   -1.5942 C   0  0  0  0  0  0  0  0  0  0  0  0
   16.0034   24.6597   -0.3662 C   0  0  0  0  0  0  0  0  0  0  0  0
   15.2448   23.5166   -0.2038 C   0  0  0  0  0  0  0  0  0  0  0  0
   14.4360   23.0123   -1.2234 C   0  0  0  0  0  0  0  0  0  0  0  0
   14.4167   23.7019   -2.4195 C   0  0  0  0  0  0  0  0  0  0  0  0
   13.6394   23.2452   -3.4449 F   0  0  0  0  0  0  0  0  0  0  0  0
   16.8285   25.1342    0.7366 C   0  0  0  0  0  0  0  0  0  0  0  0
   16.4697   26.2759    1.4174 C   0  0  0  0  0  0  0  0  0  0  0  0
   17.2189   26.7457    2.4478 N   0  0  0  0  0  0  0  0  0  0  0  0
   18.3453   26.1285    2.8602 C   0  0  0  0  0  0  0  0  0  0  0  0
   18.7327   24.9876    2.2043 C   0  0  0  0  0  0  0  0  0  0  0  0
   20.1873   24.1767    2.7239 Cl  0  0  0  0  0  0  0  0  0  0  0  0
   17.9769   24.4866    1.1414 C   0  0  0  0  0  0  0  0  0  0  0  0
  2  1  1  0  0  0
  2 15  1  0  0  0
 15 16  2  0  0  0
 16 17  1  0  0  0
 17 22  1  0  0  0
 22 23  2  0  0  0
 23 24  1  0  0  0
 24 25  2  0  0  0
 25 26  1  0  0  0
 26 27  1  0  0  0
 26 28  2  0  0  0
 17 18  2  0  0  0
 18 19  1  0  0  0
 19 20  2  0  0  0
 20 21  1  0  0  0
  2  3  1  0  0  0
  3  4  1  0  0  0
  4  5  2  0  0  0
  5  6  1  0  0  0
  6  7  2  0  0  0
  7  8  1  0  0  0
  8  9  2  0  0  0
  9 10  1  0  0  0
 10 11  2  0  0  0
 10 12  1  0  0  0
 12  2  1  0  0  0
 20 15  1  0  0  0
  9  4  1  0  0  0
 28 22  1  0  0  0
 11 13  1  0  0  0
 12 14  1  0  0  0
M  END
> <minimizedAffinity>
22.48283

> <CNNscore>
0.4171557128

> <CNNaffinity>
6.9786653519

> <CNN_VS>
2.9111900330

> <CNNaffinity_variance>
0.5949597359

$$$$
[H]N=C1c2c([H])nc([H])nc2C([H])([H])[C@](c2c([H])c(-c3c([H])nc([H])c(Cl)c3[H])c([H])c([H])c2F)(C([H])([H])[H])N1[H]


 28 31  0  0  0  0  0  0  0  0999 V2000
   13.0253   27.6782   -3.7459 C   0  0  0  0  0  0  0  0  0  0  0  0
   13.8232   26.5695   -3.1297 C   0  0  0  0  0  0  0  0  0  0  0  0
   14.0354   25.5137   -4.1869 C   0  0  0  0  0  0  0  0  0  0  0  0
   14.7845   26.0588   -5.3353 C   0  0  0  0  0  0  0  0  0  0  0  0
   14.5757   25.5549   -6.5683 N   0  0  0  0  0  0  0  0  0  0  0  0
   15.2395   26.0041   -7.6477 C   0  0  0  0  0  0  0  0  0  0  0  0
   16.1338   26.9885   -7.4561 N   0  0  0  0  0  0  0  0  0  0  0  0
   16.3775   27.5273   -6.2334 C   0  0  0  0  0  0  0  0  0  0  0  0
   15.6980   27.0650   -5.1413 C   0  0  0  0  0  0  0  0  0  0  0  0
   15.9255   27.6381   -3.7975 C   0  0  0  0  0  0  0  0  0  0  0  0
   16.7663   28.5616   -3.5908 N   0  0  0  0  0  0  0  0  0  0  0  0
   15.1386   27.0752   -2.7572 N   0  0  0  0  0  0  0  0  0  0  0  0
   17.3886   29.0448   -4.2367 H   0  0  0  0  0  0  0  0  0  0  0  0
   15.5264   27.0483   -1.7907 H   0  0  0  0  0  0  0  0  0  0  0  0
   13.1342   25.9562   -1.9651 C   0  0  0  0  0  0  0  0  0  0  0  0
   12.8794   24.6053   -1.8815 C   0  0  0  0  0  0  0  0  0  0  0  0
   12.2281   24.0532   -0.7814 C   0  0  0  0  0  0  0  0  0  0  0  0
   11.8396   24.9039    0.2356 C   0  0  0  0  0  0  0  0  0  0  0  0
   12.0809   26.2777    0.1859 C   0  0  0  0  0  0  0  0  0  0  0  0
   12.7302   26.7693   -0.9291 C   0  0  0  0  0  0  0  0  0  0  0  0
   12.9875   28.1072   -1.0203 F   0  0  0  0  0  0  0  0  0  0  0  0
   11.9458   22.6285   -0.6702 C   0  0  0  0  0  0  0  0  0  0  0  0
   10.6410   22.1902   -0.6350 C   0  0  0  0  0  0  0  0  0  0  0  0
   10.3448   20.8694   -0.5290 N   0  0  0  0  0  0  0  0  0  0  0  0
   11.3003   19.9201   -0.4531 C   0  0  0  0  0  0  0  0  0  0  0  0
   12.6118   20.3211   -0.4854 C   0  0  0  0  0  0  0  0  0  0  0  0
   13.8606   19.1069   -0.3875 Cl  0  0  0  0  0  0  0  0  0  0  0  0
   12.9393   21.6749   -0.5940 C   0  0  0  0  0  0  0  0  0  0  0  0
  2  1  1  0  0  0
  2 15  1  0  0  0
 15 16  2  0  0  0
 16 17  1  0  0  0
 17 22  1  0  0  0
 22 23  2  0  0  0
 23 24  1  0  0  0
 24 25  2  0  0  0
 25 26  1  0  0  0
 26 27  1  0  0  0
 26 28  2  0  0  0
 17 18  2  0  0  0
 18 19  1  0  0  0
 19 20  2  0  0  0
 20 21  1  0  0  0
  2  3  1  0  0  0
  3  4  1  0  0  0
  4  5  2  0  0  0
  5  6  1  0  0  0
  6  7  2  0  0  0
  7  8  1  0  0  0
  8  9  2  0  0  0
  9 10  1  0  0  0
 10 11  2  0  0  0
 10 12  1  0  0  0
 12  2  1  0  0  0
 20 15  1  0  0  0
  9  4  1  0  0  0
 28 22  1  0  0  0
 11 13  1  0  0  0
 12 14  1  0  0  0
M  END
> <minimizedAffinity>
7.58096

> <CNNscore>
0.3782768250

> <CNNaffinity>
6.9810614586

> <CNN_VS>
2.6407737732

> <CNNaffinity_variance>
0.4215746820

$$$$
[H]N=C1c2c([H])nc([H])nc2C([H])([H])[C@](c2c([H])c(-c3c([H])nc([H])c(Cl)c3[H])c([H])c([H])c2F)(C([H])([H])[H])N1[H]


 28 31  0  0  0  0  0  0  0  0999 V2000
   13.4073   20.6108   -1.1258 C   0  0  0  0  0  0  0  0  0  0  0  0
   12.9995   21.9544   -0.6021 C   0  0  0  0  0  0  0  0  0  0  0  0
   11.8728   22.4623   -1.4681 C   0  0  0  0  0  0  0  0  0  0  0  0
   10.7107   21.5550   -1.4092 C   0  0  0  0  0  0  0  0  0  0  0  0
    9.8923   21.4485   -2.4754 N   0  0  0  0  0  0  0  0  0  0  0  0
    8.8121   20.6480   -2.4723 C   0  0  0  0  0  0  0  0  0  0  0  0
    8.5690   19.9448   -1.3534 N   0  0  0  0  0  0  0  0  0  0  0  0
    9.3649   20.0193   -0.2554 C   0  0  0  0  0  0  0  0  0  0  0  0
   10.4613   20.8354   -0.2670 C   0  0  0  0  0  0  0  0  0  0  0  0
   11.3592   20.9300    0.9038 C   0  0  0  0  0  0  0  0  0  0  0  0
   11.1481   20.2822    1.9707 N   0  0  0  0  0  0  0  0  0  0  0  0
   12.4696   21.8023    0.7472 N   0  0  0  0  0  0  0  0  0  0  0  0
   10.3995   19.6351    2.2132 H   0  0  0  0  0  0  0  0  0  0  0  0
   12.8515   22.2869    1.5866 H   0  0  0  0  0  0  0  0  0  0  0  0
   14.1142   22.9360   -0.6337 C   0  0  0  0  0  0  0  0  0  0  0  0
   14.2609   23.8589   -1.6455 C   0  0  0  0  0  0  0  0  0  0  0  0
   15.3166   24.7669   -1.6563 C   0  0  0  0  0  0  0  0  0  0  0  0
   16.2232   24.7186   -0.6150 C   0  0  0  0  0  0  0  0  0  0  0  0
   16.1069   23.7977    0.4274 C   0  0  0  0  0  0  0  0  0  0  0  0
   15.0405   22.9216    0.3858 C   0  0  0  0  0  0  0  0  0  0  0  0
   14.8868   22.0037    1.3849 F   0  0  0  0  0  0  0  0  0  0  0  0
   15.4943   25.7512   -2.7153 C   0  0  0  0  0  0  0  0  0  0  0  0
   14.4882   25.9589   -3.6321 C   0  0  0  0  0  0  0  0  0  0  0  0
   14.6241   26.8668   -4.6325 N   0  0  0  0  0  0  0  0  0  0  0  0
   15.7394   27.6101   -4.7849 C   0  0  0  0  0  0  0  0  0  0  0  0
   16.7624   27.4292   -3.8890 C   0  0  0  0  0  0  0  0  0  0  0  0
   18.2126   28.3816   -4.0715 Cl  0  0  0  0  0  0  0  0  0  0  0  0
   16.6441   26.5005   -2.8520 C   0  0  0  0  0  0  0  0  0  0  0  0
  2  1  1  0  0  0
  2 15  1  0  0  0
 15 16  2  0  0  0
 16 17  1  0  0  0
 17 22  1  0  0  0
 22 23  2  0  0  0
 23 24  1  0  0  0
 24 25  2  0  0  0
 25 26  1  0  0  0
 26 27  1  0  0  0
 26 28  2  0  0  0
 17 18  2  0  0  0
 18 19  1  0  0  0
 19 20  2  0  0  0
 20 21  1  0  0  0
  2  3  1  0  0  0
  3  4  1  0  0  0
  4  5  2  0  0  0
  5  6  1  0  0  0
  6  7  2  0  0  0
  7  8  1  0  0  0
  8  9  2  0  0  0
  9 10  1  0  0  0
 10 11  2  0  0  0
 10 12  1  0  0  0
 12  2  1  0  0  0
 20 15  1  0  0  0
  9  4  1  0  0  0
 28 22  1  0  0  0
 11 13  1  0  0  0
 12 14  1  0  0  0
M  END
> <minimizedAffinity>
-8.20353

> <CNNscore>
0.3496638536

> <CNNaffinity>
7.5127601624

> <CNN_VS>
2.6269407272

> <CNNaffinity_variance>
0.3094798028

$$$$
[H]/C(C(=O)/C([H])=C(\[H])c1c([H])c([H])c(F)c([H])c1[H])=C(/[H])c1c([H])c([H])c(F)c([H])c1[H]


 20 21  0  0  0  0  0  0  0  0999 V2000
   15.2254   26.2623   -5.1295 O   0  0  0  0  0  0  0  0  0  0  0  0
   14.2267   26.2585   -4.2583 C   0  0  0  0  0  0  0  0  0  0  0  0
   14.2885   25.1688   -3.3639 C   0  0  0  0  0  0  0  0  0  0  0  0
   14.8485   24.9985   -2.2060 C   0  0  0  0  0  0  0  0  0  0  0  0
   14.7777   23.7393   -1.4358 C   0  0  0  0  0  0  0  0  0  0  0  0
   14.6343   22.5469   -2.1580 C   0  0  0  0  0  0  0  0  0  0  0  0
   14.5582   21.3225   -1.5462 C   0  0  0  0  0  0  0  0  0  0  0  0
   14.6241   21.2570   -0.1861 C   0  0  0  0  0  0  0  0  0  0  0  0
   14.5489   20.0396    0.4312 F   0  0  0  0  0  0  0  0  0  0  0  0
   14.7654   22.4252    0.5351 C   0  0  0  0  0  0  0  0  0  0  0  0
   14.8418   23.6653   -0.0935 C   0  0  0  0  0  0  0  0  0  0  0  0
   13.3405   27.3349   -4.4249 C   0  0  0  0  0  0  0  0  0  0  0  0
   12.1072   27.4695   -4.0499 C   0  0  0  0  0  0  0  0  0  0  0  0
   11.3528   28.7004   -4.3318 C   0  0  0  0  0  0  0  0  0  0  0  0
   11.7222   29.9499   -3.9724 C   0  0  0  0  0  0  0  0  0  0  0  0
   10.9663   31.0927   -4.2656 C   0  0  0  0  0  0  0  0  0  0  0  0
    9.7877   30.9586   -4.9518 C   0  0  0  0  0  0  0  0  0  0  0  0
    9.0059   32.0172   -5.2697 F   0  0  0  0  0  0  0  0  0  0  0  0
    9.3937   29.6792   -5.3287 C   0  0  0  0  0  0  0  0  0  0  0  0
   10.1422   28.5769   -5.0348 C   0  0  0  0  0  0  0  0  0  0  0  0
  1  2  2  0  0  0
  2  3  1  0  0  0
  3  4  2  0  0  0
  4  5  1  0  0  0
  5  6  2  0  0  0
  6  7  1  0  0  0
  7  8  2  0  0  0
  8  9  1  0  0  0
  8 10  1  0  0  0
 10 11  2  0  0  0
  2 12  1  0  0  0
 12 13  2  0  0  0
 13 14  1  0  0  0
 14 15  2  0  0  0
 15 16  1  0  0  0
 16 17  2  0  0  0
 17 18  1  0  0  0
 17 19  1  0  0  0
 19 20  2  0  0  0
 11  5  1  0  0  0
 20 14  1  0  0  0
M  END
> <minimizedAffinity>
8.76746

> <CNNscore>
0.5221968889

> <CNNaffinity>
5.3050451279

> <CNN_VS>
2.7702779770

> <CNNaffinity_variance>
0.1368073821

$$$$
[H]/C(C(=O)/C([H])=C(\[H])c1c([H])c([H])c(F)c([H])c1[H])=C(/[H])c1c([H])c([H])c(F)c([H])c1[H]


 20 21  0  0  0  0  0  0  0  0999 V2000
   16.0723   23.1000   -2.1894 O   0  0  0  0  0  0  0  0  0  0  0  0
   15.0835   23.9604   -2.3855 C   0  0  0  0  0  0  0  0  0  0  0  0
   13.8973   23.5877   -1.7183 C   0  0  0  0  0  0  0  0  0  0  0  0
   13.5961   23.4147   -0.4681 C   0  0  0  0  0  0  0  0  0  0  0  0
   12.2552   23.0137    0.0065 C   0  0  0  0  0  0  0  0  0  0  0  0
   12.0455   21.6553    0.2794 C   0  0  0  0  0  0  0  0  0  0  0  0
   10.8419   21.1729    0.7243 C   0  0  0  0  0  0  0  0  0  0  0  0
    9.8082   22.0423    0.9095 C   0  0  0  0  0  0  0  0  0  0  0  0
    8.6049   21.5688    1.3528 F   0  0  0  0  0  0  0  0  0  0  0  0
   10.0037   23.3825    0.6438 C   0  0  0  0  0  0  0  0  0  0  0  0
   11.2294   23.8649    0.1921 C   0  0  0  0  0  0  0  0  0  0  0  0
   15.4421   25.0401   -3.2084 C   0  0  0  0  0  0  0  0  0  0  0  0
   15.5896   26.2960   -2.9245 C   0  0  0  0  0  0  0  0  0  0  0  0
   15.9759   27.2722   -3.9548 C   0  0  0  0  0  0  0  0  0  0  0  0
   15.1259   27.9292   -4.7750 C   0  0  0  0  0  0  0  0  0  0  0  0
   15.5453   28.8518   -5.7427 C   0  0  0  0  0  0  0  0  0  0  0  0
   16.8828   29.1163   -5.8810 C   0  0  0  0  0  0  0  0  0  0  0  0
   17.3605   29.9949   -6.7936 F   0  0  0  0  0  0  0  0  0  0  0  0
   17.7703   28.4482   -5.0443 C   0  0  0  0  0  0  0  0  0  0  0  0
   17.3446   27.5526   -4.1072 C   0  0  0  0  0  0  0  0  0  0  0  0
  1  2  2  0  0  0
  2  3  1  0  0  0
  3  4  2  0  0  0
  4  5  1  0  0  0
  5  6  2  0  0  0
  6  7  1  0  0  0
  7  8  2  0  0  0
  8  9  1  0  0  0
  8 10  1  0  0  0
 10 11  2  0  0  0
  2 12  1  0  0  0
 12 13  2  0  0  0
 13 14  1  0  0  0
 14 15  2  0  0  0
 15 16  1  0  0  0
 16 17  2  0  0  0
 17 18  1  0  0  0
 17 19  1  0  0  0
 19 20  2  0  0  0
 11  5  1  0  0  0
 20 14  1  0  0  0
M  END
> <minimizedAffinity>
3.77924

> <CNNscore>
0.4325754344

> <CNNaffinity>
5.4850964546

> <CNN_VS>
2.3727180958

> <CNNaffinity_variance>
0.6385502815

$$$$
[H]/C(C(=O)/C([H])=C(\[H])c1c([H])c([H])c(F)c([H])c1[H])=C(/[H])c1c([H])c([H])c(F)c([H])c1[H]


 20 21  0  0  0  0  0  0  0  0999 V2000
    9.7517   24.4118   -1.4229 O   0  0  0  0  0  0  0  0  0  0  0  0
   10.5215   23.9307   -0.4573 C   0  0  0  0  0  0  0  0  0  0  0  0
   11.8975   24.0757   -0.7348 C   0  0  0  0  0  0  0  0  0  0  0  0
   12.6810   25.1047   -0.8379 C   0  0  0  0  0  0  0  0  0  0  0  0
   14.1239   25.0118   -1.1432 C   0  0  0  0  0  0  0  0  0  0  0  0
   14.7110   26.0864   -1.8247 C   0  0  0  0  0  0  0  0  0  0  0  0
   16.0405   26.1059   -2.1586 C   0  0  0  0  0  0  0  0  0  0  0  0
   16.8242   25.0438   -1.8174 C   0  0  0  0  0  0  0  0  0  0  0  0
   18.1509   25.0560   -2.1470 F   0  0  0  0  0  0  0  0  0  0  0  0
   16.2563   23.9801   -1.1460 C   0  0  0  0  0  0  0  0  0  0  0  0
   14.9050   23.9675   -0.8103 C   0  0  0  0  0  0  0  0  0  0  0  0
    9.7942   23.3898    0.6152 C   0  0  0  0  0  0  0  0  0  0  0  0
    9.4803   23.9094    1.7603 C   0  0  0  0  0  0  0  0  0  0  0  0
    8.7000   23.1553    2.7534 C   0  0  0  0  0  0  0  0  0  0  0  0
    8.0308   23.6896    3.7992 C   0  0  0  0  0  0  0  0  0  0  0  0
    7.3003   22.9260    4.7194 C   0  0  0  0  0  0  0  0  0  0  0  0
    7.2489   21.5648    4.5693 C   0  0  0  0  0  0  0  0  0  0  0  0
    6.5634   20.7641    5.4191 F   0  0  0  0  0  0  0  0  0  0  0  0
    7.9324   20.9998    3.4980 C   0  0  0  0  0  0  0  0  0  0  0  0
    8.6391   21.7585    2.6111 C   0  0  0  0  0  0  0  0  0  0  0  0
  1  2  2  0  0  0
  2  3  1  0  0  0
  3  4  2  0  0  0
  4  5  1  0  0  0
  5  6  2  0  0  0
  6  7  1  0  0  0
  7  8  2  0  0  0
  8  9  1  0  0  0
  8 10  1  0  0  0
 10 11  2  0  0  0
  2 12  1  0  0  0
 12 13  2  0  0  0
 13 14  1  0  0  0
 14 15  2  0  0  0
 15 16  1  0  0  0
 16 17  2  0  0  0
 17 18  1  0  0  0
 17 19  1  0  0  0
 19 20  2  0  0  0
 11  5  1  0  0  0
 20 14  1  0  0  0
M  END
> <minimizedAffinity>
-0.90322

> <CNNscore>
0.3644968271

> <CNNaffinity>
5.2524046898

> <CNN_VS>
1.9144848585

> <CNNaffinity_variance>
1.1953121424

$$$$
[H]/C(C(=O)/C([H])=C(\[H])c1c([H])c([H])c(F)c([H])c1[H])=C(/[H])c1c([H])c([H])c(F)c([H])c1[H]


 20 21  0  0  0  0  0  0  0  0999 V2000
   14.9722   23.3784    0.7542 O   0  0  0  0  0  0  0  0  0  0  0  0
   13.9597   23.9356    0.1056 C   0  0  0  0  0  0  0  0  0  0  0  0
   14.3825   24.7609   -0.9580 C   0  0  0  0  0  0  0  0  0  0  0  0
   15.3798   24.7046   -1.7860 C   0  0  0  0  0  0  0  0  0  0  0  0
   15.6276   25.7064   -2.8438 C   0  0  0  0  0  0  0  0  0  0  0  0
   14.7059   25.7759   -3.8971 C   0  0  0  0  0  0  0  0  0  0  0  0
   14.8376   26.6670   -4.9306 C   0  0  0  0  0  0  0  0  0  0  0  0
   15.9021   27.5186   -4.9384 C   0  0  0  0  0  0  0  0  0  0  0  0
   16.0403   28.4101   -5.9656 F   0  0  0  0  0  0  0  0  0  0  0  0
   16.8160   27.4588   -3.9059 C   0  0  0  0  0  0  0  0  0  0  0  0
   16.6755   26.5508   -2.8596 C   0  0  0  0  0  0  0  0  0  0  0  0
   12.7044   23.5780    0.6236 C   0  0  0  0  0  0  0  0  0  0  0  0
   11.5813   24.2247    0.6172 C   0  0  0  0  0  0  0  0  0  0  0  0
   10.3688   23.6564    1.2260 C   0  0  0  0  0  0  0  0  0  0  0  0
   10.2814   23.1399    2.4720 C   0  0  0  0  0  0  0  0  0  0  0  0
    9.0998   22.6092    3.0065 C   0  0  0  0  0  0  0  0  0  0  0  0
    7.9621   22.6041    2.2426 C   0  0  0  0  0  0  0  0  0  0  0  0
    6.7854   22.1082    2.6926 F   0  0  0  0  0  0  0  0  0  0  0  0
    8.0357   23.1321    0.9581 C   0  0  0  0  0  0  0  0  0  0  0  0
    9.1949   23.6449    0.4533 C   0  0  0  0  0  0  0  0  0  0  0  0
  1  2  2  0  0  0
  2  3  1  0  0  0
  3  4  2  0  0  0
  4  5  1  0  0  0
  5  6  2  0  0  0
  6  7  1  0  0  0
  7  8  2  0  0  0
  8  9  1  0  0  0
  8 10  1  0  0  0
 10 11  2  0  0  0
  2 12  1  0  0  0
 12 13  2  0  0  0
 13 14  1  0  0  0
 14 15  2  0  0  0
 15 16  1  0  0  0
 16 17  2  0  0  0
 17 18  1  0  0  0
 17 19  1  0  0  0
 19 20  2  0  0  0
 11  5  1  0  0  0
 20 14  1  0  0  0
M  END
> <minimizedAffinity>
-7.93519

> <CNNscore>
0.3627861738

> <CNNaffinity>
5.5134286880

> <CNN_VS>
2.0001957417

> <CNNaffinity_variance>
0.8362075090

$$$$
[H]/C(C(=O)/C([H])=C(\[H])c1c([H])c([H])c(F)c([H])c1[H])=C(/[H])c1c([H])c([H])c(F)c([H])c1[H]


 20 21  0  0  0  0  0  0  0  0999 V2000
   12.2012   26.6860   -0.0864 O   0  0  0  0  0  0  0  0  0  0  0  0
   12.5437   25.4802   -0.5168 C   0  0  0  0  0  0  0  0  0  0  0  0
   12.1474   24.4539    0.3668 C   0  0  0  0  0  0  0  0  0  0  0  0
   11.0880   23.7093    0.4481 C   0  0  0  0  0  0  0  0  0  0  0  0
   10.8881   22.6744    1.4839 C   0  0  0  0  0  0  0  0  0  0  0  0
    9.6209   22.0821    1.5700 C   0  0  0  0  0  0  0  0  0  0  0  0
    9.3248   21.1124    2.4927 C   0  0  0  0  0  0  0  0  0  0  0  0
   10.2948   20.7060    3.3602 C   0  0  0  0  0  0  0  0  0  0  0  0
   10.0070   19.7394    4.2831 F   0  0  0  0  0  0  0  0  0  0  0  0
   11.5464   21.2826    3.2841 C   0  0  0  0  0  0  0  0  0  0  0  0
   11.8396   22.2672    2.3442 C   0  0  0  0  0  0  0  0  0  0  0  0
   13.2192   25.5012   -1.7477 C   0  0  0  0  0  0  0  0  0  0  0  0
   13.0108   26.2218   -2.8046 C   0  0  0  0  0  0  0  0  0  0  0  0
   13.8507   26.0802   -4.0038 C   0  0  0  0  0  0  0  0  0  0  0  0
   13.7855   26.8583   -5.1071 C   0  0  0  0  0  0  0  0  0  0  0  0
   14.6102   26.6818   -6.2260 C   0  0  0  0  0  0  0  0  0  0  0  0
   15.5382   25.6733   -6.2220 C   0  0  0  0  0  0  0  0  0  0  0  0
   16.3680   25.4436   -7.2668 F   0  0  0  0  0  0  0  0  0  0  0  0
   15.6177   24.8638   -5.0940 C   0  0  0  0  0  0  0  0  0  0  0  0
   14.8065   25.0498   -4.0128 C   0  0  0  0  0  0  0  0  0  0  0  0
  1  2  2  0  0  0
  2  3  1  0  0  0
  3  4  2  0  0  0
  4  5  1  0  0  0
  5  6  2  0  0  0
  6  7  1  0  0  0
  7  8  2  0  0  0
  8  9  1  0  0  0
  8 10  1  0  0  0
 10 11  2  0  0  0
  2 12  1  0  0  0
 12 13  2  0  0  0
 13 14  1  0  0  0
 14 15  2  0  0  0
 15 16  1  0  0  0
 16 17  2  0  0  0
 17 18  1  0  0  0
 17 19  1  0  0  0
 19 20  2  0  0  0
 11  5  1  0  0  0
 20 14  1  0  0  0
M  END
> <minimizedAffinity>
-4.80151

> <CNNscore>
0.3443403542

> <CNNaffinity>
5.2862319946

> <CNN_VS>
1.8202630281

> <CNNaffinity_variance>
0.4687804580

$$$$
[H]/C(C(=O)/C([H])=C(\[H])c1c([H])c([H])c(F)c([H])c1[H])=C(/[H])c1c([H])c([H])c(F)c([H])c1[H]


 20 21  0  0  0  0  0  0  0  0999 V2000
   14.7182   24.5607    1.0855 O   0  0  0  0  0  0  0  0  0  0  0  0
   13.7443   24.4329    0.1957 C   0  0  0  0  0  0  0  0  0  0  0  0
   12.5590   23.9121    0.7570 C   0  0  0  0  0  0  0  0  0  0  0  0
   11.3152   24.2782    0.7075 C   0  0  0  0  0  0  0  0  0  0  0  0
   10.2193   23.5607    1.3916 C   0  0  0  0  0  0  0  0  0  0  0  0
   10.5739   22.5732    2.3206 C   0  0  0  0  0  0  0  0  0  0  0  0
    9.6398   21.8465    3.0125 C   0  0  0  0  0  0  0  0  0  0  0  0
    8.3165   22.0895    2.7923 C   0  0  0  0  0  0  0  0  0  0  0  0
    7.3791   21.3688    3.4784 F   0  0  0  0  0  0  0  0  0  0  0  0
    7.9560   23.0598    1.8795 C   0  0  0  0  0  0  0  0  0  0  0  0
    8.9107   23.7939    1.1805 C   0  0  0  0  0  0  0  0  0  0  0  0
   14.1143   24.8432   -1.0952 C   0  0  0  0  0  0  0  0  0  0  0  0
   13.6969   24.4391   -2.2537 C   0  0  0  0  0  0  0  0  0  0  0  0
   14.2270   25.0133   -3.4998 C   0  0  0  0  0  0  0  0  0  0  0  0
   15.1866   24.4612   -4.2753 C   0  0  0  0  0  0  0  0  0  0  0  0
   15.6581   25.0499   -5.4563 C   0  0  0  0  0  0  0  0  0  0  0  0
   15.1322   26.2478   -5.8642 C   0  0  0  0  0  0  0  0  0  0  0  0
   15.5388   26.8746   -6.9932 F   0  0  0  0  0  0  0  0  0  0  0  0
   14.1439   26.8288   -5.0769 C   0  0  0  0  0  0  0  0  0  0  0  0
   13.6963   26.2417   -3.9295 C   0  0  0  0  0  0  0  0  0  0  0  0
  1  2  2  0  0  0
  2  3  1  0  0  0
  3  4  2  0  0  0
  4  5  1  0  0  0
  5  6  2  0  0  0
  6  7  1  0  0  0
  7  8  2  0  0  0
  8  9  1  0  0  0
  8 10  1  0  0  0
 10 11  2  0  0  0
  2 12  1  0  0  0
 12 13  2  0  0  0
 13 14  1  0  0  0
 14 15  2  0  0  0
 15 16  1  0  0  0
 16 17  2  0  0  0
 17 18  1  0  0  0
 17 19  1  0  0  0
 19 20  2  0  0  0
 11  5  1  0  0  0
 20 14  1  0  0  0
M  END
> <minimizedAffinity>
-7.78757

> <CNNscore>
0.3228920102

> <CNNaffinity>
5.5521445274

> <CNN_VS>
1.7927430868

> <CNNaffinity_variance>
0.4168683589

$$$$
[H]/C(C(=O)/C([H])=C(\[H])c1c([H])c([H])c(F)c([H])c1[H])=C(/[H])c1c([H])c([H])c(F)c([H])c1[H]


 20 21  0  0  0  0  0  0  0  0999 V2000
   12.1597   26.2753   -0.2749 O   0  0  0  0  0  0  0  0  0  0  0  0
   12.4668   25.0947   -0.7931 C   0  0  0  0  0  0  0  0  0  0  0  0
   12.1579   24.0235    0.0720 C   0  0  0  0  0  0  0  0  0  0  0  0
   12.8285   22.9935    0.4877 C   0  0  0  0  0  0  0  0  0  0  0  0
   12.2856   21.9787    1.4148 C   0  0  0  0  0  0  0  0  0  0  0  0
   13.0334   20.8084    1.6023 C   0  0  0  0  0  0  0  0  0  0  0  0
   12.6247   19.8020    2.4385 C   0  0  0  0  0  0  0  0  0  0  0  0
   11.4489   19.9398    3.1146 C   0  0  0  0  0  0  0  0  0  0  0  0
   11.0347   18.9404    3.9504 F   0  0  0  0  0  0  0  0  0  0  0  0
   10.7045   21.0884    2.9375 C   0  0  0  0  0  0  0  0  0  0  0  0
   11.1262   22.1064    2.0862 C   0  0  0  0  0  0  0  0  0  0  0  0
   13.0264   25.1810   -2.0780 C   0  0  0  0  0  0  0  0  0  0  0  0
   14.1128   25.7617   -2.4805 C   0  0  0  0  0  0  0  0  0  0  0  0
   14.5183   25.7289   -3.8941 C   0  0  0  0  0  0  0  0  0  0  0  0
   14.2138   26.6630   -4.8224 C   0  0  0  0  0  0  0  0  0  0  0  0
   14.6252   26.5852   -6.1596 C   0  0  0  0  0  0  0  0  0  0  0  0
   15.3763   25.5143   -6.5683 C   0  0  0  0  0  0  0  0  0  0  0  0
   15.8088   25.3728   -7.8434 F   0  0  0  0  0  0  0  0  0  0  0  0
   15.6980   24.5445   -5.6248 C   0  0  0  0  0  0  0  0  0  0  0  0
   15.2889   24.6360   -4.3264 C   0  0  0  0  0  0  0  0  0  0  0  0
  1  2  2  0  0  0
  2  3  1  0  0  0
  3  4  2  0  0  0
  4  5  1  0  0  0
  5  6  2  0  0  0
  6  7  1  0  0  0
  7  8  2  0  0  0
  8  9  1  0  0  0
  8 10  1  0  0  0
 10 11  2  0  0  0
  2 12  1  0  0  0
 12 13  2  0  0  0
 13 14  1  0  0  0
 14 15  2  0  0  0
 15 16  1  0  0  0
 16 17  2  0  0  0
 17 18  1  0  0  0
 17 19  1  0  0  0
 19 20  2  0  0  0
 11  5  1  0  0  0
 20 14  1  0  0  0
M  END
> <minimizedAffinity>
-6.05091

> <CNNscore>
0.2899675071

> <CNNaffinity>
5.5530571938

> <CNN_VS>
1.6102061272

> <CNNaffinity_variance>
0.3820810020

$$$$
[H]/C(C(=O)/C([H])=C(\[H])c1c([H])c([H])c(F)c([H])c1[H])=C(/[H])c1c([H])c([H])c(F)c([H])c1[H]


 20 21  0  0  0  0  0  0  0  0999 V2000
   13.9172   22.5943    0.6236 O   0  0  0  0  0  0  0  0  0  0  0  0
   13.0880   23.4986    0.1224 C   0  0  0  0  0  0  0  0  0  0  0  0
   13.5315   24.0191   -1.1120 C   0  0  0  0  0  0  0  0  0  0  0  0
   13.2021   25.0639   -1.8072 C   0  0  0  0  0  0  0  0  0  0  0  0
   13.8177   25.4161   -3.1036 C   0  0  0  0  0  0  0  0  0  0  0  0
   14.8224   24.5707   -3.5932 C   0  0  0  0  0  0  0  0  0  0  0  0
   15.4608   24.8018   -4.7841 C   0  0  0  0  0  0  0  0  0  0  0  0
   15.1090   25.8923   -5.5229 C   0  0  0  0  0  0  0  0  0  0  0  0
   15.7412   26.1294   -6.7116 F   0  0  0  0  0  0  0  0  0  0  0  0
   14.1206   26.7316   -5.0502 C   0  0  0  0  0  0  0  0  0  0  0  0
   13.4767   26.4902   -3.8394 C   0  0  0  0  0  0  0  0  0  0  0  0
   11.9638   23.7298    0.9314 C   0  0  0  0  0  0  0  0  0  0  0  0
   10.7194   23.8932    0.6081 C   0  0  0  0  0  0  0  0  0  0  0  0
    9.6884   24.1265    1.6311 C   0  0  0  0  0  0  0  0  0  0  0  0
    9.7226   25.0909    2.5776 C   0  0  0  0  0  0  0  0  0  0  0  0
    8.7126   25.2720    3.5318 C   0  0  0  0  0  0  0  0  0  0  0  0
    7.6248   24.4386    3.5224 C   0  0  0  0  0  0  0  0  0  0  0  0
    6.6116   24.5541    4.4130 F   0  0  0  0  0  0  0  0  0  0  0  0
    7.5748   23.4412    2.5546 C   0  0  0  0  0  0  0  0  0  0  0  0
    8.5674   23.2789    1.6326 C   0  0  0  0  0  0  0  0  0  0  0  0
  1  2  2  0  0  0
  2  3  1  0  0  0
  3  4  2  0  0  0
  4  5  1  0  0  0
  5  6  2  0  0  0
  6  7  1  0  0  0
  7  8  2  0  0  0
  8  9  1  0  0  0
  8 10  1  0  0  0
 10 11  2  0  0  0
  2 12  1  0  0  0
 12 13  2  0  0  0
 13 14  1  0  0  0
 14 15  2  0  0  0
 15 16  1  0  0  0
 16 17  2  0  0  0
 17 18  1  0  0  0
 17 19  1  0  0  0
 19 20  2  0  0  0
 11  5  1  0  0  0
 20 14  1  0  0  0
M  END
> <minimizedAffinity>
-8.15299

> <CNNscore>
0.2775024772

> <CNNaffinity>
5.6333642006

> <CNN_VS>
1.5632724762

> <CNNaffinity_variance>
0.3415659070

$$$$
[H]/C(C(=O)/C([H])=C(\[H])c1c([H])c([H])c(F)c([H])c1[H])=C(/[H])c1c([H])c([H])c(F)c([H])c1[H]


 20 21  0  0  0  0  0  0  0  0999 V2000
   14.4082   21.2910   -2.2729 O   0  0  0  0  0  0  0  0  0  0  0  0
   13.9887   22.4032   -1.6869 C   0  0  0  0  0  0  0  0  0  0  0  0
   14.4058   23.5673   -2.3667 C   0  0  0  0  0  0  0  0  0  0  0  0
   15.2237   23.7780   -3.3516 C   0  0  0  0  0  0  0  0  0  0  0  0
   15.5111   25.1158   -3.9098 C   0  0  0  0  0  0  0  0  0  0  0  0
   15.0733   25.3796   -5.2146 C   0  0  0  0  0  0  0  0  0  0  0  0
   15.2856   26.5857   -5.8307 C   0  0  0  0  0  0  0  0  0  0  0  0
   15.9460   27.5675   -5.1535 C   0  0  0  0  0  0  0  0  0  0  0  0
   16.1615   28.7729   -5.7612 F   0  0  0  0  0  0  0  0  0  0  0  0
   16.3815   27.3185   -3.8678 C   0  0  0  0  0  0  0  0  0  0  0  0
   16.1622   26.0907   -3.2487 C   0  0  0  0  0  0  0  0  0  0  0  0
   13.2290   22.1685   -0.5295 C   0  0  0  0  0  0  0  0  0  0  0  0
   13.3694   21.2726    0.3963 C   0  0  0  0  0  0  0  0  0  0  0  0
   12.4464   21.2041    1.5397 C   0  0  0  0  0  0  0  0  0  0  0  0
   12.3625   20.1852    2.4238 C   0  0  0  0  0  0  0  0  0  0  0  0
   11.4639   20.1680    3.4988 C   0  0  0  0  0  0  0  0  0  0  0  0
   10.6171   21.2299    3.6813 C   0  0  0  0  0  0  0  0  0  0  0  0
    9.7234   21.2822    4.6969 F   0  0  0  0  0  0  0  0  0  0  0  0
   10.6912   22.2864    2.7798 C   0  0  0  0  0  0  0  0  0  0  0  0
   11.5724   22.2867    1.7382 C   0  0  0  0  0  0  0  0  0  0  0  0
  1  2  2  0  0  0
  2  3  1  0  0  0
  3  4  2  0  0  0
  4  5  1  0  0  0
  5  6  2  0  0  0
  6  7  1  0  0  0
  7  8  2  0  0  0
  8  9  1  0  0  0
  8 10  1  0  0  0
 10 11  2  0  0  0
  2 12  1  0  0  0
 12 13  2  0  0  0
 13 14  1  0  0  0
 14 15  2  0  0  0
 15 16  1  0  0  0
 16 17  2  0  0  0
 17 18  1  0  0  0
 17 19  1  0  0  0
 19 20  2  0  0  0
 11  5  1  0  0  0
 20 14  1  0  0  0
M  END
> <minimizedAffinity>
-8.61907

> <CNNscore>
0.2167841345

> <CNNaffinity>
5.2929201126

> <CNN_VS>
1.1474211216

> <CNNaffinity_variance>
0.5373638272

$$$$
[H]Oc1c([H])c([H])c(N([H])c2nc([H])c(F)c(N([H])c3c([H])c([H])c(C(=O)N([H])[H])c([H])c3[H])n2)c([H])c1[H]


 30 32  0  0  0  0  0  0  0  0999 V2000
   14.2242   25.8331   -3.6057 C   0  0  0  0  0  0  0  0  0  0  0  0
   15.1145   25.6255   -2.6497 N   0  0  0  0  0  0  0  0  0  0  0  0
   16.3554   26.1921   -2.6815 C   0  0  0  0  0  0  0  0  0  0  0  0
   16.6486   26.9779   -3.7284 N   0  0  0  0  0  0  0  0  0  0  0  0
   15.8054   27.2301   -4.7225 C   0  0  0  0  0  0  0  0  0  0  0  0
   14.5517   26.6614   -4.6961 C   0  0  0  0  0  0  0  0  0  0  0  0
   13.6546   26.8802   -5.6738 F   0  0  0  0  0  0  0  0  0  0  0  0
   12.9338   25.2445   -3.6193 N   0  0  0  0  0  0  0  0  0  0  0  0
   12.4047   25.2682   -4.5416 H   0  0  0  0  0  0  0  0  0  0  0  0
   11.0388   23.3025   -0.3942 C   0  0  0  0  0  0  0  0  0  0  0  0
   10.6531   24.5386   -0.7953 C   0  0  0  0  0  0  0  0  0  0  0  0
   11.2521   25.2111   -1.8663 C   0  0  0  0  0  0  0  0  0  0  0  0
   12.2597   24.6290   -2.5475 C   0  0  0  0  0  0  0  0  0  0  0  0
   12.6796   23.3420   -2.1499 C   0  0  0  0  0  0  0  0  0  0  0  0
   12.0790   22.7054   -1.1010 C   0  0  0  0  0  0  0  0  0  0  0  0
   10.9358   22.7357    2.0198 N   0  0  0  0  0  0  0  0  0  0  0  0
   10.4183   22.5971    0.7212 C   0  0  0  0  0  0  0  0  0  0  0  0
    9.4265   21.8704    0.5165 O   0  0  0  0  0  0  0  0  0  0  0  0
   11.6010   22.0284    2.3853 H   0  0  0  0  0  0  0  0  0  0  0  0
   10.6728   23.5289    2.6313 H   0  0  0  0  0  0  0  0  0  0  0  0
   17.2495   25.8951   -1.6382 N   0  0  0  0  0  0  0  0  0  0  0  0
   18.1350   26.4788   -1.5724 H   0  0  0  0  0  0  0  0  0  0  0  0
   17.0617   24.8930   -0.6840 C   0  0  0  0  0  0  0  0  0  0  0  0
   18.0105   24.4803    0.2041 C   0  0  0  0  0  0  0  0  0  0  0  0
   17.7841   23.4417    1.1337 C   0  0  0  0  0  0  0  0  0  0  0  0
   16.5624   22.8141    1.1552 C   0  0  0  0  0  0  0  0  0  0  0  0
   16.3298   21.7881    2.0689 O   0  0  0  0  0  0  0  0  0  0  0  0
   15.5712   23.2016    0.2729 C   0  0  0  0  0  0  0  0  0  0  0  0
   15.8250   24.2113   -0.6149 C   0  0  0  0  0  0  0  0  0  0  0  0
   16.5545   20.8490    1.7626 H   0  0  0  0  0  0  0  0  0  0  0  0
 16 17  1  0  0  0
 17 18  2  0  0  0
 17 10  1  0  0  0
 10 11  2  0  0  0
 11 12  1  0  0  0
 12 13  2  0  0  0
 13  8  1  0  0  0
  8  1  1  0  0  0
  1  2  2  0  0  0
  2  3  1  0  0  0
  3 21  1  0  0  0
 21 23  1  0  0  0
 23 24  2  0  0  0
 24 25  1  0  0  0
 25 26  2  0  0  0
 26 27  1  0  0  0
 26 28  1  0  0  0
 28 29  2  0  0  0
  3  4  2  0  0  0
  4  5  1  0  0  0
  5  6  2  0  0  0
  6  7  1  0  0  0
 13 14  1  0  0  0
 14 15  2  0  0  0
 15 10  1  0  0  0
  6  1  1  0  0  0
 29 23  1  0  0  0
 16 19  1  0  0  0
 16 20  1  0  0  0
  8  9  1  0  0  0
 21 22  1  0  0  0
 27 30  1  0  0  0
M  END
> <minimizedAffinity>
-0.22528

> <CNNscore>
0.6139727235

> <CNNaffinity>
7.2254953384

> <CNN_VS>
4.4362568855

> <CNNaffinity_variance>
0.6515521407

$$$$
[H]Oc1c([H])c([H])c(N([H])c2nc([H])c(F)c(N([H])c3c([H])c([H])c(C(=O)N([H])[H])c([H])c3[H])n2)c([H])c1[H]


 30 32  0  0  0  0  0  0  0  0999 V2000
   13.8395   22.8127   -1.1469 C   0  0  0  0  0  0  0  0  0  0  0  0
   12.9538   23.6587   -0.6474 N   0  0  0  0  0  0  0  0  0  0  0  0
   12.3028   23.4148    0.5267 C   0  0  0  0  0  0  0  0  0  0  0  0
   12.5934   22.2730    1.1681 N   0  0  0  0  0  0  0  0  0  0  0  0
   13.4702   21.3794    0.7260 C   0  0  0  0  0  0  0  0  0  0  0  0
   14.1304   21.6197   -0.4581 C   0  0  0  0  0  0  0  0  0  0  0  0
   15.0294   20.7522   -0.9559 F   0  0  0  0  0  0  0  0  0  0  0  0
   14.5193   23.0202   -2.3744 N   0  0  0  0  0  0  0  0  0  0  0  0
   14.6360   22.1739   -3.0079 H   0  0  0  0  0  0  0  0  0  0  0  0
   16.0318   26.6373   -3.9213 C   0  0  0  0  0  0  0  0  0  0  0  0
   16.4939   26.1235   -2.7551 C   0  0  0  0  0  0  0  0  0  0  0  0
   16.0227   24.9218   -2.2146 C   0  0  0  0  0  0  0  0  0  0  0  0
   15.0669   24.2229   -2.8597 C   0  0  0  0  0  0  0  0  0  0  0  0
   14.5694   24.7362   -4.0762 C   0  0  0  0  0  0  0  0  0  0  0  0
   15.0456   25.9117   -4.5839 C   0  0  0  0  0  0  0  0  0  0  0  0
   17.6967   28.4760   -3.9975 N   0  0  0  0  0  0  0  0  0  0  0  0
   16.5190   27.8890   -4.4891 C   0  0  0  0  0  0  0  0  0  0  0  0
   15.8852   28.4354   -5.4128 O   0  0  0  0  0  0  0  0  0  0  0  0
   17.6370   29.2205   -3.2773 H   0  0  0  0  0  0  0  0  0  0  0  0
   18.6329   28.1876   -4.3332 H   0  0  0  0  0  0  0  0  0  0  0  0
   11.3560   24.3544    0.9702 N   0  0  0  0  0  0  0  0  0  0  0  0
   11.5758   25.3819    0.8117 H   0  0  0  0  0  0  0  0  0  0  0  0
   10.1510   24.0397    1.6019 C   0  0  0  0  0  0  0  0  0  0  0  0
    9.8170   24.4195    2.8681 C   0  0  0  0  0  0  0  0  0  0  0  0
    8.5967   24.0531    3.4770 C   0  0  0  0  0  0  0  0  0  0  0  0
    7.7005   23.2839    2.7755 C   0  0  0  0  0  0  0  0  0  0  0  0
    6.4938   22.9174    3.3681 O   0  0  0  0  0  0  0  0  0  0  0  0
    7.9982   22.8775    1.4882 C   0  0  0  0  0  0  0  0  0  0  0  0
    9.1902   23.2503    0.9292 C   0  0  0  0  0  0  0  0  0  0  0  0
    6.4897   22.0477    3.8875 H   0  0  0  0  0  0  0  0  0  0  0  0
 16 17  1  0  0  0
 17 18  2  0  0  0
 17 10  1  0  0  0
 10 11  2  0  0  0
 11 12  1  0  0  0
 12 13  2  0  0  0
 13  8  1  0  0  0
  8  1  1  0  0  0
  1  2  2  0  0  0
  2  3  1  0  0  0
  3 21  1  0  0  0
 21 23  1  0  0  0
 23 24  2  0  0  0
 24 25  1  0  0  0
 25 26  2  0  0  0
 26 27  1  0  0  0
 26 28  1  0  0  0
 28 29  2  0  0  0
  3  4  2  0  0  0
  4  5  1  0  0  0
  5  6  2  0  0  0
  6  7  1  0  0  0
 13 14  1  0  0  0
 14 15  2  0  0  0
 15 10  1  0  0  0
  6  1  1  0  0  0
 29 23  1  0  0  0
 16 19  1  0  0  0
 16 20  1  0  0  0
  8  9  1  0  0  0
 21 22  1  0  0  0
 27 30  1  0  0  0
M  END
> <minimizedAffinity>
-9.32951

> <CNNscore>
0.6127193570

> <CNNaffinity>
7.2235956192

> <CNN_VS>
4.4260368347

> <CNNaffinity_variance>
0.2653803527

$$$$
[H]Oc1c([H])c([H])c(N([H])c2nc([H])c(F)c(N([H])c3c([H])c([H])c(C(=O)N([H])[H])c([H])c3[H])n2)c([H])c1[H]


 30 32  0  0  0  0  0  0  0  0999 V2000
   13.7696   21.9311   -1.3587 C   0  0  0  0  0  0  0  0  0  0  0  0
   12.5267   22.3565   -1.2038 N   0  0  0  0  0  0  0  0  0  0  0  0
   11.7791   22.0236   -0.1119 C   0  0  0  0  0  0  0  0  0  0  0  0
   12.3526   21.2396    0.8132 N   0  0  0  0  0  0  0  0  0  0  0  0
   13.5937   20.7766    0.7233 C   0  0  0  0  0  0  0  0  0  0  0  0
   14.3532   21.1090   -0.3760 C   0  0  0  0  0  0  0  0  0  0  0  0
   15.6161   20.6708   -0.5223 F   0  0  0  0  0  0  0  0  0  0  0  0
   14.5698   22.2370   -2.4892 N   0  0  0  0  0  0  0  0  0  0  0  0
   14.9542   21.4139   -3.0424 H   0  0  0  0  0  0  0  0  0  0  0  0
   15.6007   26.0014   -4.0798 C   0  0  0  0  0  0  0  0  0  0  0  0
   15.2779   25.8554   -2.7713 C   0  0  0  0  0  0  0  0  0  0  0  0
   14.9388   24.6213   -2.2054 C   0  0  0  0  0  0  0  0  0  0  0  0
   14.9235   23.5115   -2.9711 C   0  0  0  0  0  0  0  0  0  0  0  0
   15.2561   23.6367   -4.3366 C   0  0  0  0  0  0  0  0  0  0  0  0
   15.5840   24.8526   -4.8660 C   0  0  0  0  0  0  0  0  0  0  0  0
   17.0565   28.0083   -4.1890 N   0  0  0  0  0  0  0  0  0  0  0  0
   15.9546   27.2848   -4.6747 C   0  0  0  0  0  0  0  0  0  0  0  0
   15.2745   27.7368   -5.6164 O   0  0  0  0  0  0  0  0  0  0  0  0
   16.9089   28.7588   -3.4880 H   0  0  0  0  0  0  0  0  0  0  0  0
   18.0218   27.8157   -4.5105 H   0  0  0  0  0  0  0  0  0  0  0  0
   10.4570   22.4962   -0.0415 N   0  0  0  0  0  0  0  0  0  0  0  0
   10.3181   23.5413    0.0909 H   0  0  0  0  0  0  0  0  0  0  0  0
    9.3154   21.6972   -0.1324 C   0  0  0  0  0  0  0  0  0  0  0  0
    8.1668   21.9030    0.5729 C   0  0  0  0  0  0  0  0  0  0  0  0
    7.0457   21.0506    0.4695 C   0  0  0  0  0  0  0  0  0  0  0  0
    7.1011   19.9672   -0.3732 C   0  0  0  0  0  0  0  0  0  0  0  0
    5.9998   19.1205   -0.4817 O   0  0  0  0  0  0  0  0  0  0  0  0
    8.2460   19.7217   -1.1081 C   0  0  0  0  0  0  0  0  0  0  0  0
    9.3140   20.5679   -0.9830 C   0  0  0  0  0  0  0  0  0  0  0  0
    5.9663   18.3362    0.1586 H   0  0  0  0  0  0  0  0  0  0  0  0
 16 17  1  0  0  0
 17 18  2  0  0  0
 17 10  1  0  0  0
 10 11  2  0  0  0
 11 12  1  0  0  0
 12 13  2  0  0  0
 13  8  1  0  0  0
  8  1  1  0  0  0
  1  2  2  0  0  0
  2  3  1  0  0  0
  3 21  1  0  0  0
 21 23  1  0  0  0
 23 24  2  0  0  0
 24 25  1  0  0  0
 25 26  2  0  0  0
 26 27  1  0  0  0
 26 28  1  0  0  0
 28 29  2  0  0  0
  3  4  2  0  0  0
  4  5  1  0  0  0
  5  6  2  0  0  0
  6  7  1  0  0  0
 13 14  1  0  0  0
 14 15  2  0  0  0
 15 10  1  0  0  0
  6  1  1  0  0  0
 29 23  1  0  0  0
 16 19  1  0  0  0
 16 20  1  0  0  0
  8  9  1  0  0  0
 21 22  1  0  0  0
 27 30  1  0  0  0
M  END
> <minimizedAffinity>
-8.18143

> <CNNscore>
0.5868694782

> <CNNaffinity>
7.1983747482

> <CNN_VS>
4.2245063782

> <CNNaffinity_variance>
0.2236170024

$$$$
[H]Oc1c([H])c([H])c(N([H])c2nc([H])c(F)c(N([H])c3c([H])c([H])c(C(=O)N([H])[H])c([H])c3[H])n2)c([H])c1[H]


 30 32  0  0  0  0  0  0  0  0999 V2000
   12.8983   25.7362   -2.6192 C   0  0  0  0  0  0  0  0  0  0  0  0
   14.0709   25.7556   -3.2310 N   0  0  0  0  0  0  0  0  0  0  0  0
   14.2414   26.3459   -4.4493 C   0  0  0  0  0  0  0  0  0  0  0  0
   13.1665   26.9144   -5.0158 N   0  0  0  0  0  0  0  0  0  0  0  0
   11.9608   26.9326   -4.4600 C   0  0  0  0  0  0  0  0  0  0  0  0
   11.7823   26.3386   -3.2307 C   0  0  0  0  0  0  0  0  0  0  0  0
   10.5852   26.3257   -2.6182 F   0  0  0  0  0  0  0  0  0  0  0  0
   12.6767   25.1135   -1.3642 N   0  0  0  0  0  0  0  0  0  0  0  0
   11.8440   25.4563   -0.7983 H   0  0  0  0  0  0  0  0  0  0  0  0
   14.9127   21.9495    0.2952 C   0  0  0  0  0  0  0  0  0  0  0  0
   15.0982   23.2298    0.7004 C   0  0  0  0  0  0  0  0  0  0  0  0
   14.3695   24.3048    0.1794 C   0  0  0  0  0  0  0  0  0  0  0  0
   13.4356   24.0881   -0.7688 C   0  0  0  0  0  0  0  0  0  0  0  0
   13.2230   22.7640   -1.2075 C   0  0  0  0  0  0  0  0  0  0  0  0
   13.9470   21.7309   -0.6835 C   0  0  0  0  0  0  0  0  0  0  0  0
   16.8514   21.0527    1.5585 N   0  0  0  0  0  0  0  0  0  0  0  0
   15.6692   20.8256    0.8345 C   0  0  0  0  0  0  0  0  0  0  0  0
   15.2617   19.6622    0.6497 O   0  0  0  0  0  0  0  0  0  0  0  0
   17.7678   20.9981    1.0750 H   0  0  0  0  0  0  0  0  0  0  0  0
   16.8390   21.2754    2.5697 H   0  0  0  0  0  0  0  0  0  0  0  0
   15.5157   26.2954   -5.0407 N   0  0  0  0  0  0  0  0  0  0  0  0
   15.6097   25.7608   -5.9542 H   0  0  0  0  0  0  0  0  0  0  0  0
   16.6646   26.8936   -4.5190 C   0  0  0  0  0  0  0  0  0  0  0  0
   17.4779   27.7432   -5.2088 C   0  0  0  0  0  0  0  0  0  0  0  0
   18.6470   28.3026   -4.6481 C   0  0  0  0  0  0  0  0  0  0  0  0
   18.9896   27.9870   -3.3559 C   0  0  0  0  0  0  0  0  0  0  0  0
   20.1414   28.5341   -2.7942 O   0  0  0  0  0  0  0  0  0  0  0  0
   18.1927   27.1302   -2.6197 C   0  0  0  0  0  0  0  0  0  0  0  0
   17.0672   26.6058   -3.1946 C   0  0  0  0  0  0  0  0  0  0  0  0
   20.9978   28.0059   -2.9117 H   0  0  0  0  0  0  0  0  0  0  0  0
 16 17  1  0  0  0
 17 18  2  0  0  0
 17 10  1  0  0  0
 10 11  2  0  0  0
 11 12  1  0  0  0
 12 13  2  0  0  0
 13  8  1  0  0  0
  8  1  1  0  0  0
  1  2  2  0  0  0
  2  3  1  0  0  0
  3 21  1  0  0  0
 21 23  1  0  0  0
 23 24  2  0  0  0
 24 25  1  0  0  0
 25 26  2  0  0  0
 26 27  1  0  0  0
 26 28  1  0  0  0
 28 29  2  0  0  0
  3  4  2  0  0  0
  4  5  1  0  0  0
  5  6  2  0  0  0
  6  7  1  0  0  0
 13 14  1  0  0  0
 14 15  2  0  0  0
 15 10  1  0  0  0
  6  1  1  0  0  0
 29 23  1  0  0  0
 16 19  1  0  0  0
 16 20  1  0  0  0
  8  9  1  0  0  0
 21 22  1  0  0  0
 27 30  1  0  0  0
M  END
> <minimizedAffinity>
9.82057

> <CNNscore>
0.5786624551

> <CNNaffinity>
7.0380120277

> <CNN_VS>
4.0726332664

> <CNNaffinity_variance>
1.2172765732

$$$$
[H]Oc1c([H])c([H])c(N([H])c2nc([H])c(F)c(N([H])c3c([H])c([H])c(C(=O)N([H])[H])c([H])c3[H])n2)c([H])c1[H]


 30 32  0  0  0  0  0  0  0  0999 V2000
   13.5031   26.1023   -3.1190 C   0  0  0  0  0  0  0  0  0  0  0  0
   14.5400   25.7654   -2.3700 N   0  0  0  0  0  0  0  0  0  0  0  0
   15.8224   26.0473   -2.7412 C   0  0  0  0  0  0  0  0  0  0  0  0
   16.0013   26.6862   -3.9071 N   0  0  0  0  0  0  0  0  0  0  0  0
   15.0087   27.0541   -4.7083 C   0  0  0  0  0  0  0  0  0  0  0  0
   13.7123   26.7726   -4.3393 C   0  0  0  0  0  0  0  0  0  0  0  0
   12.6660   27.1206   -5.1090 F   0  0  0  0  0  0  0  0  0  0  0  0
   12.1583   25.8069   -2.7782 N   0  0  0  0  0  0  0  0  0  0  0  0
   11.4049   26.1756   -3.4322 H   0  0  0  0  0  0  0  0  0  0  0  0
   10.8167   23.7501    0.6472 C   0  0  0  0  0  0  0  0  0  0  0  0
   10.3813   23.4123   -0.5913 C   0  0  0  0  0  0  0  0  0  0  0  0
   10.8103   24.0658   -1.7520 C   0  0  0  0  0  0  0  0  0  0  0  0
   11.6946   25.0800   -1.6654 C   0  0  0  0  0  0  0  0  0  0  0  0
   12.1635   25.4508   -0.3873 C   0  0  0  0  0  0  0  0  0  0  0  0
   11.7301   24.7974    0.7314 C   0  0  0  0  0  0  0  0  0  0  0  0
   10.3127   21.6700    1.9034 N   0  0  0  0  0  0  0  0  0  0  0  0
   10.3730   23.0728    1.8600 C   0  0  0  0  0  0  0  0  0  0  0  0
   10.0475   23.7449    2.8581 O   0  0  0  0  0  0  0  0  0  0  0  0
    9.4134   21.1889    1.7130 H   0  0  0  0  0  0  0  0  0  0  0  0
   11.1448   21.0934    2.1214 H   0  0  0  0  0  0  0  0  0  0  0  0
   16.8665   25.6276   -1.8987 N   0  0  0  0  0  0  0  0  0  0  0  0
   17.8238   26.0623   -2.0531 H   0  0  0  0  0  0  0  0  0  0  0  0
   16.7404   24.6848   -0.8765 C   0  0  0  0  0  0  0  0  0  0  0  0
   17.7111   24.3968    0.0369 C   0  0  0  0  0  0  0  0  0  0  0  0
   17.5489   23.4134    1.0372 C   0  0  0  0  0  0  0  0  0  0  0  0
   16.3698   22.7118    1.1045 C   0  0  0  0  0  0  0  0  0  0  0  0
   16.2007   21.7395    2.0881 O   0  0  0  0  0  0  0  0  0  0  0  0
   15.3584   22.9724    0.1988 C   0  0  0  0  0  0  0  0  0  0  0  0
   15.5497   23.9318   -0.7579 C   0  0  0  0  0  0  0  0  0  0  0  0
   16.4860   20.7975    1.8479 H   0  0  0  0  0  0  0  0  0  0  0  0
 16 17  1  0  0  0
 17 18  2  0  0  0
 17 10  1  0  0  0
 10 11  2  0  0  0
 11 12  1  0  0  0
 12 13  2  0  0  0
 13  8  1  0  0  0
  8  1  1  0  0  0
  1  2  2  0  0  0
  2  3  1  0  0  0
  3 21  1  0  0  0
 21 23  1  0  0  0
 23 24  2  0  0  0
 24 25  1  0  0  0
 25 26  2  0  0  0
 26 27  1  0  0  0
 26 28  1  0  0  0
 28 29  2  0  0  0
  3  4  2  0  0  0
  4  5  1  0  0  0
  5  6  2  0  0  0
  6  7  1  0  0  0
 13 14  1  0  0  0
 14 15  2  0  0  0
 15 10  1  0  0  0
  6  1  1  0  0  0
 29 23  1  0  0  0
 16 19  1  0  0  0
 16 20  1  0  0  0
  8  9  1  0  0  0
 21 22  1  0  0  0
 27 30  1  0  0  0
M  END
> <minimizedAffinity>
-4.18188

> <CNNscore>
0.5673820972

> <CNNaffinity>
7.1593484879

> <CNN_VS>
4.0620861053

> <CNNaffinity_variance>
0.3069203794

$$$$
[H]Oc1c([H])c([H])c(N([H])c2nc([H])c(F)c(N([H])c3c([H])c([H])c(C(=O)N([H])[H])c([H])c3[H])n2)c([H])c1[H]


 30 32  0  0  0  0  0  0  0  0999 V2000
   14.0032   22.8108   -0.2336 C   0  0  0  0  0  0  0  0  0  0  0  0
   13.2237   22.7818    0.8347 N   0  0  0  0  0  0  0  0  0  0  0  0
   12.3473   21.7611    1.0631 C   0  0  0  0  0  0  0  0  0  0  0  0
   12.3003   20.7733    0.1567 N   0  0  0  0  0  0  0  0  0  0  0  0
   13.0523   20.7372   -0.9369 C   0  0  0  0  0  0  0  0  0  0  0  0
   13.9386   21.7642   -1.1730 C   0  0  0  0  0  0  0  0  0  0  0  0
   14.7265   21.7825   -2.2626 F   0  0  0  0  0  0  0  0  0  0  0  0
   14.9095   23.8645   -0.5168 N   0  0  0  0  0  0  0  0  0  0  0  0
   15.6693   24.0512    0.2037 H   0  0  0  0  0  0  0  0  0  0  0  0
   15.1071   26.3513   -3.9139 C   0  0  0  0  0  0  0  0  0  0  0  0
   13.9253   25.8524   -3.4756 C   0  0  0  0  0  0  0  0  0  0  0  0
   13.8190   25.0311   -2.3476 C   0  0  0  0  0  0  0  0  0  0  0  0
   14.9234   24.7044   -1.6465 C   0  0  0  0  0  0  0  0  0  0  0  0
   16.1661   25.2114   -2.0821 C   0  0  0  0  0  0  0  0  0  0  0  0
   16.2444   26.0117   -3.1864 C   0  0  0  0  0  0  0  0  0  0  0  0
   16.1310   28.2799   -5.0932 N   0  0  0  0  0  0  0  0  0  0  0  0
   15.2239   27.2074   -5.0887 C   0  0  0  0  0  0  0  0  0  0  0  0
   14.5146   26.9826   -6.0888 O   0  0  0  0  0  0  0  0  0  0  0  0
   15.7997   29.2331   -4.8520 H   0  0  0  0  0  0  0  0  0  0  0  0
   17.1302   28.1500   -5.3319 H   0  0  0  0  0  0  0  0  0  0  0  0
   11.5362   21.8245    2.2095 N   0  0  0  0  0  0  0  0  0  0  0  0
   11.7976   21.1996    3.0282 H   0  0  0  0  0  0  0  0  0  0  0  0
   10.4156   22.6451    2.3528 C   0  0  0  0  0  0  0  0  0  0  0  0
    9.7037   23.1734    1.3167 C   0  0  0  0  0  0  0  0  0  0  0  0
    8.5924   24.0228    1.5102 C   0  0  0  0  0  0  0  0  0  0  0  0
    8.2014   24.3366    2.7891 C   0  0  0  0  0  0  0  0  0  0  0  0
    7.1060   25.1740    2.9898 O   0  0  0  0  0  0  0  0  0  0  0  0
    8.8942   23.8219    3.8690 C   0  0  0  0  0  0  0  0  0  0  0  0
    9.9668   23.0024    3.6450 C   0  0  0  0  0  0  0  0  0  0  0  0
    7.2989   26.1669    3.0463 H   0  0  0  0  0  0  0  0  0  0  0  0
 16 17  1  0  0  0
 17 18  2  0  0  0
 17 10  1  0  0  0
 10 11  2  0  0  0
 11 12  1  0  0  0
 12 13  2  0  0  0
 13  8  1  0  0  0
  8  1  1  0  0  0
  1  2  2  0  0  0
  2  3  1  0  0  0
  3 21  1  0  0  0
 21 23  1  0  0  0
 23 24  2  0  0  0
 24 25  1  0  0  0
 25 26  2  0  0  0
 26 27  1  0  0  0
 26 28  1  0  0  0
 28 29  2  0  0  0
  3  4  2  0  0  0
  4  5  1  0  0  0
  5  6  2  0  0  0
  6  7  1  0  0  0
 13 14  1  0  0  0
 14 15  2  0  0  0
 15 10  1  0  0  0
  6  1  1  0  0  0
 29 23  1  0  0  0
 16 19  1  0  0  0
 16 20  1  0  0  0
  8  9  1  0  0  0
 21 22  1  0  0  0
 27 30  1  0  0  0
M  END
> <minimizedAffinity>
-9.24736

> <CNNscore>
0.5379359722

> <CNNaffinity>
7.1048879623

> <CNN_VS>
3.8219747543

> <CNNaffinity_variance>
0.2284839451

$$$$
[H]Oc1c([H])c([H])c(N([H])c2nc([H])c(F)c(N([H])c3c([H])c([H])c(C(=O)N([H])[H])c([H])c3[H])n2)c([H])c1[H]


 30 32  0  0  0  0  0  0  0  0999 V2000
   14.8605   24.6535   -0.8587 C   0  0  0  0  0  0  0  0  0  0  0  0
   13.5838   24.6011   -1.2009 N   0  0  0  0  0  0  0  0  0  0  0  0
   12.6703   23.8893   -0.4793 C   0  0  0  0  0  0  0  0  0  0  0  0
   13.1141   23.2344    0.6040 N   0  0  0  0  0  0  0  0  0  0  0  0
   14.3794   23.2426    1.0059 C   0  0  0  0  0  0  0  0  0  0  0  0
   15.3061   23.9591    0.2821 C   0  0  0  0  0  0  0  0  0  0  0  0
   16.6015   24.0053    0.6401 F   0  0  0  0  0  0  0  0  0  0  0  0
   15.8431   25.3634   -1.5952 N   0  0  0  0  0  0  0  0  0  0  0  0
   16.6705   25.7462   -1.0474 H   0  0  0  0  0  0  0  0  0  0  0  0
   15.7943   26.0230   -5.7577 C   0  0  0  0  0  0  0  0  0  0  0  0
   16.0630   27.0288   -4.8895 C   0  0  0  0  0  0  0  0  0  0  0  0
   16.0966   26.8466   -3.5025 C   0  0  0  0  0  0  0  0  0  0  0  0
   15.8545   25.6283   -2.9777 C   0  0  0  0  0  0  0  0  0  0  0  0
   15.5726   24.5643   -3.8605 C   0  0  0  0  0  0  0  0  0  0  0  0
   15.5457   24.7669   -5.2111 C   0  0  0  0  0  0  0  0  0  0  0  0
   15.1097   25.2647   -8.0194 N   0  0  0  0  0  0  0  0  0  0  0  0
   15.7578   26.2071   -7.2038 C   0  0  0  0  0  0  0  0  0  0  0  0
   16.3046   27.2050   -7.7126 O   0  0  0  0  0  0  0  0  0  0  0  0
   15.6617   24.5110   -8.4708 H   0  0  0  0  0  0  0  0  0  0  0  0
   14.0884   25.2971   -8.1871 H   0  0  0  0  0  0  0  0  0  0  0  0
   11.3392   23.8648   -0.9306 N   0  0  0  0  0  0  0  0  0  0  0  0
   11.0304   24.6436   -1.5843 H   0  0  0  0  0  0  0  0  0  0  0  0
   10.3945   22.8962   -0.5853 C   0  0  0  0  0  0  0  0  0  0  0  0
   10.3586   21.6318   -1.0945 C   0  0  0  0  0  0  0  0  0  0  0  0
    9.3656   20.6938   -0.7366 C   0  0  0  0  0  0  0  0  0  0  0  0
    8.3911   21.0568    0.1610 C   0  0  0  0  0  0  0  0  0  0  0  0
    7.4071   20.1379    0.5201 O   0  0  0  0  0  0  0  0  0  0  0  0
    8.3903   22.3286    0.7028 C   0  0  0  0  0  0  0  0  0  0  0  0
    9.3673   23.2124    0.3332 C   0  0  0  0  0  0  0  0  0  0  0  0
    6.5667   20.1296   -0.0455 H   0  0  0  0  0  0  0  0  0  0  0  0
 16 17  1  0  0  0
 17 18  2  0  0  0
 17 10  1  0  0  0
 10 11  2  0  0  0
 11 12  1  0  0  0
 12 13  2  0  0  0
 13  8  1  0  0  0
  8  1  1  0  0  0
  1  2  2  0  0  0
  2  3  1  0  0  0
  3 21  1  0  0  0
 21 23  1  0  0  0
 23 24  2  0  0  0
 24 25  1  0  0  0
 25 26  2  0  0  0
 26 27  1  0  0  0
 26 28  1  0  0  0
 28 29  2  0  0  0
  3  4  2  0  0  0
  4  5  1  0  0  0
  5  6  2  0  0  0
  6  7  1  0  0  0
 13 14  1  0  0  0
 14 15  2  0  0  0
 15 10  1  0  0  0
  6  1  1  0  0  0
 29 23  1  0  0  0
 16 19  1  0  0  0
 16 20  1  0  0  0
  8  9  1  0  0  0
 21 22  1  0  0  0
 27 30  1  0  0  0
M  END
> <minimizedAffinity>
-7.19873

> <CNNscore>
0.5103269815

> <CNNaffinity>
7.1465315819

> <CNN_VS>
3.6470677853

> <CNNaffinity_variance>
0.3127087951

$$$$
[H]Oc1c([H])c([H])c(N([H])c2nc([H])c(F)c(N([H])c3c([H])c([H])c(C(=O)N([H])[H])c([H])c3[H])n2)c([H])c1[H]


 30 32  0  0  0  0  0  0  0  0999 V2000
   12.1042   22.4118    0.2334 C   0  0  0  0  0  0  0  0  0  0  0  0
   12.1652   23.4748   -0.5514 N   0  0  0  0  0  0  0  0  0  0  0  0
   11.0543   24.0018   -1.1430 C   0  0  0  0  0  0  0  0  0  0  0  0
    9.8808   23.3990   -0.9002 N   0  0  0  0  0  0  0  0  0  0  0  0
    9.7454   22.3302   -0.1243 C   0  0  0  0  0  0  0  0  0  0  0  0
   10.8626   21.7937    0.4756 C   0  0  0  0  0  0  0  0  0  0  0  0
   10.7881   20.7128    1.2721 F   0  0  0  0  0  0  0  0  0  0  0  0
   13.2387   21.8220    0.8475 N   0  0  0  0  0  0  0  0  0  0  0  0
   13.0842   20.9027    1.3593 H   0  0  0  0  0  0  0  0  0  0  0  0
   17.1301   23.4397    0.9079 C   0  0  0  0  0  0  0  0  0  0  0  0
   16.9064   22.1350    1.2001 C   0  0  0  0  0  0  0  0  0  0  0  0
   15.6306   21.5604    1.1822 C   0  0  0  0  0  0  0  0  0  0  0  0
   14.5579   22.3130    0.8645 C   0  0  0  0  0  0  0  0  0  0  0  0
   14.7642   23.6743    0.5558 C   0  0  0  0  0  0  0  0  0  0  0  0
   16.0196   24.2125    0.5798 C   0  0  0  0  0  0  0  0  0  0  0  0
   19.0237   24.4690    2.1382 N   0  0  0  0  0  0  0  0  0  0  0  0
   18.4572   24.0439    0.9251 C   0  0  0  0  0  0  0  0  0  0  0  0
   19.0865   24.1811   -0.1421 O   0  0  0  0  0  0  0  0  0  0  0  0
   18.9396   25.4631    2.4232 H   0  0  0  0  0  0  0  0  0  0  0  0
   19.5279   23.8166    2.7646 H   0  0  0  0  0  0  0  0  0  0  0  0
   11.2140   25.1161   -1.9851 N   0  0  0  0  0  0  0  0  0  0  0  0
   10.3626   25.7301   -2.1498 H   0  0  0  0  0  0  0  0  0  0  0  0
   12.4048   25.4758   -2.6196 C   0  0  0  0  0  0  0  0  0  0  0  0
   12.5832   26.6169   -3.3444 C   0  0  0  0  0  0  0  0  0  0  0  0
   13.7988   26.9256   -3.9933 C   0  0  0  0  0  0  0  0  0  0  0  0
   14.8525   26.0496   -3.8975 C   0  0  0  0  0  0  0  0  0  0  0  0
   16.0559   26.3457   -4.5346 O   0  0  0  0  0  0  0  0  0  0  0  0
   14.7155   24.8811   -3.1717 C   0  0  0  0  0  0  0  0  0  0  0  0
   13.5232   24.6133   -2.5561 C   0  0  0  0  0  0  0  0  0  0  0  0
   16.1587   26.0134   -5.4860 H   0  0  0  0  0  0  0  0  0  0  0  0
 16 17  1  0  0  0
 17 18  2  0  0  0
 17 10  1  0  0  0
 10 11  2  0  0  0
 11 12  1  0  0  0
 12 13  2  0  0  0
 13  8  1  0  0  0
  8  1  1  0  0  0
  1  2  2  0  0  0
  2  3  1  0  0  0
  3 21  1  0  0  0
 21 23  1  0  0  0
 23 24  2  0  0  0
 24 25  1  0  0  0
 25 26  2  0  0  0
 26 27  1  0  0  0
 26 28  1  0  0  0
 28 29  2  0  0  0
  3  4  2  0  0  0
  4  5  1  0  0  0
  5  6  2  0  0  0
  6  7  1  0  0  0
 13 14  1  0  0  0
 14 15  2  0  0  0
 15 10  1  0  0  0
  6  1  1  0  0  0
 29 23  1  0  0  0
 16 19  1  0  0  0
 16 20  1  0  0  0
  8  9  1  0  0  0
 21 22  1  0  0  0
 27 30  1  0  0  0
M  END
> <minimizedAffinity>
-0.62827

> <CNNscore>
0.4579822421

> <CNNaffinity>
6.9801573753

> <CNN_VS>
3.1967880726

> <CNNaffinity_variance>
0.7633363008

$$$$
[H]Oc1c([H])c([H])c(N([H])c2nc([H])c(F)c(N([H])c3c([H])c([H])c(C(=O)N([H])[H])c([H])c3[H])n2)c([H])c1[H]


 30 32  0  0  0  0  0  0  0  0999 V2000
   13.4681   21.8606    0.0214 C   0  0  0  0  0  0  0  0  0  0  0  0
   14.0231   23.0560   -0.0909 N   0  0  0  0  0  0  0  0  0  0  0  0
   14.5942   23.4818   -1.2547 C   0  0  0  0  0  0  0  0  0  0  0  0
   14.5749   22.6374   -2.2969 N   0  0  0  0  0  0  0  0  0  0  0  0
   14.0361   21.4247   -2.2558 C   0  0  0  0  0  0  0  0  0  0  0  0
   13.4582   20.9892   -1.0843 C   0  0  0  0  0  0  0  0  0  0  0  0
   12.8964   19.7717   -0.9823 F   0  0  0  0  0  0  0  0  0  0  0  0
   12.8852   21.3742    1.2196 N   0  0  0  0  0  0  0  0  0  0  0  0
   13.5163   20.8156    1.8684 H   0  0  0  0  0  0  0  0  0  0  0  0
    8.9650   21.8939    2.6776 C   0  0  0  0  0  0  0  0  0  0  0  0
    9.2450   22.0103    1.3563 C   0  0  0  0  0  0  0  0  0  0  0  0
   10.5316   21.8364    0.8341 C   0  0  0  0  0  0  0  0  0  0  0  0
   11.5576   21.5401    1.6573 C   0  0  0  0  0  0  0  0  0  0  0  0
   11.2922   21.4130    3.0373 C   0  0  0  0  0  0  0  0  0  0  0  0
   10.0275   21.5872    3.5234 C   0  0  0  0  0  0  0  0  0  0  0  0
    7.3403   21.6608    4.5390 N   0  0  0  0  0  0  0  0  0  0  0  0
    7.6264   22.0742    3.2273 C   0  0  0  0  0  0  0  0  0  0  0  0
    6.7373   22.5969    2.5273 O   0  0  0  0  0  0  0  0  0  0  0  0
    6.9128   20.7296    4.7018 H   0  0  0  0  0  0  0  0  0  0  0  0
    7.5439   22.2608    5.3580 H   0  0  0  0  0  0  0  0  0  0  0  0
   15.1867   24.7564   -1.2778 N   0  0  0  0  0  0  0  0  0  0  0  0
   15.5526   25.1419   -0.3577 H   0  0  0  0  0  0  0  0  0  0  0  0
   15.3303   25.5519   -2.4164 C   0  0  0  0  0  0  0  0  0  0  0  0
   16.4615   26.2387   -2.7448 C   0  0  0  0  0  0  0  0  0  0  0  0
   16.5512   27.0548   -3.8937 C   0  0  0  0  0  0  0  0  0  0  0  0
   15.4622   27.1693   -4.7230 C   0  0  0  0  0  0  0  0  0  0  0  0
   15.5413   27.9725   -5.8589 O   0  0  0  0  0  0  0  0  0  0  0  0
   14.2951   26.4894   -4.4283 C   0  0  0  0  0  0  0  0  0  0  0  0
   14.2429   25.7077   -3.3065 C   0  0  0  0  0  0  0  0  0  0  0  0
   15.2750   28.9434   -5.7469 H   0  0  0  0  0  0  0  0  0  0  0  0
 16 17  1  0  0  0
 17 18  2  0  0  0
 17 10  1  0  0  0
 10 11  2  0  0  0
 11 12  1  0  0  0
 12 13  2  0  0  0
 13  8  1  0  0  0
  8  1  1  0  0  0
  1  2  2  0  0  0
  2  3  1  0  0  0
  3 21  1  0  0  0
 21 23  1  0  0  0
 23 24  2  0  0  0
 24 25  1  0  0  0
 25 26  2  0  0  0
 26 27  1  0  0  0
 26 28  1  0  0  0
 28 29  2  0  0  0
  3  4  2  0  0  0
  4  5  1  0  0  0
  5  6  2  0  0  0
  6  7  1  0  0  0
 13 14  1  0  0  0
 14 15  2  0  0  0
 15 10  1  0  0  0
  6  1  1  0  0  0
 29 23  1  0  0  0
 16 19  1  0  0  0
 16 20  1  0  0  0
  8  9  1  0  0  0
 21 22  1  0  0  0
 27 30  1  0  0  0
M  END
> <minimizedAffinity>
-7.65082

> <CNNscore>
0.4392612576

> <CNNaffinity>
6.8983335495

> <CNN_VS>
3.0301706791

> <CNNaffinity_variance>
0.2701319158

$$$$
[H]OC(=O)[C@@]1([H])N(C(=O)[C@@]([H])(N([H])[C@]([H])(C(=O)O[H])C([H])([H])C([H])([H])c2c([H])c([H])c([H])c([H])c2[H])C([H])([H])[H])C([H])([H])c2c([H])c([H])c([H])c([H])c2C1([H])[H]


 33 35  0  0  0  0  0  0  0  0999 V2000
   10.5388   21.6821   -2.0726 C   0  0  0  0  0  0  0  0  0  0  0  0
   11.2857   22.2077   -0.8365 C   0  0  0  0  0  0  0  0  0  0  0  0
   11.6018   23.6129   -1.1076 C   0  0  0  0  0  0  0  0  0  0  0  0
   10.6014   24.4028   -1.2270 O   0  0  0  0  0  0  0  0  0  0  0  0
   12.8842   24.1839   -1.2503 N   0  0  0  0  0  0  0  0  0  0  0  0
   12.9571   25.6290   -1.5688 C   0  0  0  0  0  0  0  0  0  0  0  0
   13.6886   25.7342   -2.8856 C   0  0  0  0  0  0  0  0  0  0  0  0
   13.2445   26.4789   -3.9449 C   0  0  0  0  0  0  0  0  0  0  0  0
   13.9803   26.4853   -5.1410 C   0  0  0  0  0  0  0  0  0  0  0  0
   15.1339   25.7331   -5.2029 C   0  0  0  0  0  0  0  0  0  0  0  0
   15.5622   24.9818   -4.1007 C   0  0  0  0  0  0  0  0  0  0  0  0
   14.8480   24.9699   -2.9242 C   0  0  0  0  0  0  0  0  0  0  0  0
   15.2611   24.2383   -1.7280 C   0  0  0  0  0  0  0  0  0  0  0  0
   14.1296   23.4848   -1.1054 C   0  0  0  0  0  0  0  0  0  0  0  0
   14.4167   23.1751    0.3255 C   0  0  0  0  0  0  0  0  0  0  0  0
   14.4197   24.0935    1.1607 O   0  0  0  0  0  0  0  0  0  0  0  0
   14.6710   21.8854    0.6928 O   0  0  0  0  0  0  0  0  0  0  0  0
   13.9154   21.2101    0.5892 H   0  0  0  0  0  0  0  0  0  0  0  0
   10.3295   22.0586    0.2551 N   0  0  0  0  0  0  0  0  0  0  0  0
    9.6160   22.8197    0.1209 H   0  0  0  0  0  0  0  0  0  0  0  0
   11.0038   22.3311    1.5033 C   0  0  0  0  0  0  0  0  0  0  0  0
   11.5847   21.0874    2.0890 C   0  0  0  0  0  0  0  0  0  0  0  0
   11.0113   19.9738    1.9932 O   0  0  0  0  0  0  0  0  0  0  0  0
   12.7935   21.1020    2.7710 O   0  0  0  0  0  0  0  0  0  0  0  0
   13.0578   21.8145    3.4356 H   0  0  0  0  0  0  0  0  0  0  0  0
   10.1070   23.0359    2.4890 C   0  0  0  0  0  0  0  0  0  0  0  0
    9.9791   24.5100    2.1848 C   0  0  0  0  0  0  0  0  0  0  0  0
    8.9624   25.1642    3.0455 C   0  0  0  0  0  0  0  0  0  0  0  0
    7.7266   24.5803    3.2939 C   0  0  0  0  0  0  0  0  0  0  0  0
    6.7608   25.1622    4.0850 C   0  0  0  0  0  0  0  0  0  0  0  0
    7.0111   26.3876    4.6712 C   0  0  0  0  0  0  0  0  0  0  0  0
    8.2411   27.0002    4.4421 C   0  0  0  0  0  0  0  0  0  0  0  0
    9.1826   26.3900    3.6463 C   0  0  0  0  0  0  0  0  0  0  0  0
  1  2  1  0  0  0
  2 19  1  0  0  0
 19 21  1  0  0  0
 21 26  1  0  0  0
 26 27  1  0  0  0
 27 28  1  0  0  0
 28 29  2  0  0  0
 29 30  1  0  0  0
 30 31  2  0  0  0
 31 32  1  0  0  0
 32 33  2  0  0  0
 21 22  1  0  0  0
 22 23  2  0  0  0
 22 24  1  0  0  0
  2  3  1  0  0  0
  3  4  2  0  0  0
  3  5  1  0  0  0
  5  6  1  0  0  0
  6  7  1  0  0  0
  7  8  2  0  0  0
  8  9  1  0  0  0
  9 10  2  0  0  0
 10 11  1  0  0  0
 11 12  2  0  0  0
 12 13  1  0  0  0
 13 14  1  0  0  0
 14 15  1  0  0  0
 15 16  2  0  0  0
 15 17  1  0  0  0
 33 28  1  0  0  0
 14  5  1  0  0  0
 12  7  1  0  0  0
 19 20  1  0  0  0
 24 25  1  0  0  0
 17 18  1  0  0  0
M  END
> <minimizedAffinity>
-9.01070

> <CNNscore>
0.6504687071

> <CNNaffinity>
6.9921860695

> <CNN_VS>
4.5481982231

> <CNNaffinity_variance>
0.2770855129

$$$$
[H]OC(=O)[C@@]1([H])N(C(=O)[C@@]([H])(N([H])[C@]([H])(C(=O)O[H])C([H])([H])C([H])([H])c2c([H])c([H])c([H])c([H])c2[H])C([H])([H])[H])C([H])([H])c2c([H])c([H])c([H])c([H])c2C1([H])[H]


 33 35  0  0  0  0  0  0  0  0999 V2000
   11.4044   24.8664   -1.9089 C   0  0  0  0  0  0  0  0  0  0  0  0
   12.5156   24.4553   -0.9299 C   0  0  0  0  0  0  0  0  0  0  0  0
   13.5740   23.8408   -1.7361 C   0  0  0  0  0  0  0  0  0  0  0  0
   14.2101   24.6249   -2.5233 O   0  0  0  0  0  0  0  0  0  0  0  0
   13.9639   22.4847   -1.7367 N   0  0  0  0  0  0  0  0  0  0  0  0
   15.0371   22.0827   -2.6757 C   0  0  0  0  0  0  0  0  0  0  0  0
   14.4347   21.0353   -3.5812 C   0  0  0  0  0  0  0  0  0  0  0  0
   14.5369   21.0602   -4.9461 C   0  0  0  0  0  0  0  0  0  0  0  0
   13.9118   20.0564   -5.7036 C   0  0  0  0  0  0  0  0  0  0  0  0
   13.2117   19.0741   -5.0362 C   0  0  0  0  0  0  0  0  0  0  0  0
   13.1261   19.0763   -3.6378 C   0  0  0  0  0  0  0  0  0  0  0  0
   13.7360   20.0555   -2.8871 C   0  0  0  0  0  0  0  0  0  0  0  0
   13.7161   20.0925   -1.4260 C   0  0  0  0  0  0  0  0  0  0  0  0
   13.4138   21.4581   -0.8975 C   0  0  0  0  0  0  0  0  0  0  0  0
   13.8790   21.6007    0.5129 C   0  0  0  0  0  0  0  0  0  0  0  0
   15.0928   21.5391    0.7651 O   0  0  0  0  0  0  0  0  0  0  0  0
   12.9607   21.7973    1.5034 O   0  0  0  0  0  0  0  0  0  0  0  0
   12.4251   22.6635    1.4818 H   0  0  0  0  0  0  0  0  0  0  0  0
   12.9444   25.7097   -0.3211 N   0  0  0  0  0  0  0  0  0  0  0  0
   13.1801   26.3531   -1.1192 H   0  0  0  0  0  0  0  0  0  0  0  0
   14.1707   25.4773    0.4063 C   0  0  0  0  0  0  0  0  0  0  0  0
   14.4426   26.5778    1.3770 C   0  0  0  0  0  0  0  0  0  0  0  0
   13.6036   27.4829    1.6118 O   0  0  0  0  0  0  0  0  0  0  0  0
   15.6423   26.6539    2.0709 O   0  0  0  0  0  0  0  0  0  0  0  0
   16.5466   26.4856    1.6546 H   0  0  0  0  0  0  0  0  0  0  0  0
   15.3426   25.2557   -0.5158 C   0  0  0  0  0  0  0  0  0  0  0  0
   16.1345   26.5223   -0.7396 C   0  0  0  0  0  0  0  0  0  0  0  0
   16.2505   26.8523   -2.1818 C   0  0  0  0  0  0  0  0  0  0  0  0
   17.3914   27.4443   -2.7091 C   0  0  0  0  0  0  0  0  0  0  0  0
   17.5295   27.7655   -4.0413 C   0  0  0  0  0  0  0  0  0  0  0  0
   16.4951   27.4949   -4.9157 C   0  0  0  0  0  0  0  0  0  0  0  0
   15.3369   26.9015   -4.4188 C   0  0  0  0  0  0  0  0  0  0  0  0
   15.2333   26.5941   -3.0821 C   0  0  0  0  0  0  0  0  0  0  0  0
  1  2  1  0  0  0
  2 19  1  0  0  0
 19 21  1  0  0  0
 21 26  1  0  0  0
 26 27  1  0  0  0
 27 28  1  0  0  0
 28 29  2  0  0  0
 29 30  1  0  0  0
 30 31  2  0  0  0
 31 32  1  0  0  0
 32 33  2  0  0  0
 21 22  1  0  0  0
 22 23  2  0  0  0
 22 24  1  0  0  0
  2  3  1  0  0  0
  3  4  2  0  0  0
  3  5  1  0  0  0
  5  6  1  0  0  0
  6  7  1  0  0  0
  7  8  2  0  0  0
  8  9  1  0  0  0
  9 10  2  0  0  0
 10 11  1  0  0  0
 11 12  2  0  0  0
 12 13  1  0  0  0
 13 14  1  0  0  0
 14 15  1  0  0  0
 15 16  2  0  0  0
 15 17  1  0  0  0
 33 28  1  0  0  0
 14  5  1  0  0  0
 12  7  1  0  0  0
 19 20  1  0  0  0
 24 25  1  0  0  0
 17 18  1  0  0  0
M  END
> <minimizedAffinity>
12.17763

> <CNNscore>
0.6014291048

> <CNNaffinity>
6.8983345032

> <CNN_VS>
4.1488590240

> <CNNaffinity_variance>
0.7533942461

$$$$
[H]OC(=O)[C@@]1([H])N(C(=O)[C@@]([H])(N([H])[C@]([H])(C(=O)O[H])C([H])([H])C([H])([H])c2c([H])c([H])c([H])c([H])c2[H])C([H])([H])[H])C([H])([H])c2c([H])c([H])c([H])c([H])c2C1([H])[H]


 33 35  0  0  0  0  0  0  0  0999 V2000
   13.2575   24.7502   -2.5231 C   0  0  0  0  0  0  0  0  0  0  0  0
   14.3716   23.7919   -2.9733 C   0  0  0  0  0  0  0  0  0  0  0  0
   15.1014   24.4762   -4.0442 C   0  0  0  0  0  0  0  0  0  0  0  0
   15.7659   23.7268   -4.8417 O   0  0  0  0  0  0  0  0  0  0  0  0
   15.1492   25.8652   -4.2880 N   0  0  0  0  0  0  0  0  0  0  0  0
   15.9955   26.3333   -5.4104 C   0  0  0  0  0  0  0  0  0  0  0  0
   17.0246   27.2579   -4.8055 C   0  0  0  0  0  0  0  0  0  0  0  0
   18.3670   27.1721   -5.0598 C   0  0  0  0  0  0  0  0  0  0  0  0
   19.2487   28.0588   -4.4207 C   0  0  0  0  0  0  0  0  0  0  0  0
   18.7227   28.9915   -3.5524 C   0  0  0  0  0  0  0  0  0  0  0  0
   17.3436   29.0541   -3.3138 C   0  0  0  0  0  0  0  0  0  0  0  0
   16.4717   28.1897   -3.9360 C   0  0  0  0  0  0  0  0  0  0  0  0
   15.0213   28.2283   -3.7589 C   0  0  0  0  0  0  0  0  0  0  0  0
   14.4399   26.8676   -3.5444 C   0  0  0  0  0  0  0  0  0  0  0  0
   12.9825   26.8525   -3.8634 C   0  0  0  0  0  0  0  0  0  0  0  0
   12.4240   25.7735   -4.1179 O   0  0  0  0  0  0  0  0  0  0  0  0
   12.2869   28.0268   -3.8695 O   0  0  0  0  0  0  0  0  0  0  0  0
   12.1951   28.5226   -2.9845 H   0  0  0  0  0  0  0  0  0  0  0  0
   15.1910   23.6034   -1.7811 N   0  0  0  0  0  0  0  0  0  0  0  0
   15.9074   22.8761   -2.0344 H   0  0  0  0  0  0  0  0  0  0  0  0
   14.3685   23.0363   -0.7376 C   0  0  0  0  0  0  0  0  0  0  0  0
   15.0087   23.1903    0.6017 C   0  0  0  0  0  0  0  0  0  0  0  0
   15.7958   22.3293    1.0680 O   0  0  0  0  0  0  0  0  0  0  0  0
   14.7639   24.2989    1.4004 O   0  0  0  0  0  0  0  0  0  0  0  0
   13.8503   24.7075    1.5336 H   0  0  0  0  0  0  0  0  0  0  0  0
   14.0140   21.5976   -1.0151 C   0  0  0  0  0  0  0  0  0  0  0  0
   12.5259   21.4039   -1.1866 C   0  0  0  0  0  0  0  0  0  0  0  0
   11.7611   21.9749   -0.0502 C   0  0  0  0  0  0  0  0  0  0  0  0
   11.9381   21.5253    1.2524 C   0  0  0  0  0  0  0  0  0  0  0  0
   11.2427   22.0317    2.3280 C   0  0  0  0  0  0  0  0  0  0  0  0
   10.3178   23.0375    2.1258 C   0  0  0  0  0  0  0  0  0  0  0  0
   10.1164   23.5109    0.8313 C   0  0  0  0  0  0  0  0  0  0  0  0
   10.8288   22.9818   -0.2197 C   0  0  0  0  0  0  0  0  0  0  0  0
  1  2  1  0  0  0
  2 19  1  0  0  0
 19 21  1  0  0  0
 21 26  1  0  0  0
 26 27  1  0  0  0
 27 28  1  0  0  0
 28 29  2  0  0  0
 29 30  1  0  0  0
 30 31  2  0  0  0
 31 32  1  0  0  0
 32 33  2  0  0  0
 21 22  1  0  0  0
 22 23  2  0  0  0
 22 24  1  0  0  0
  2  3  1  0  0  0
  3  4  2  0  0  0
  3  5  1  0  0  0
  5  6  1  0  0  0
  6  7  1  0  0  0
  7  8  2  0  0  0
  8  9  1  0  0  0
  9 10  2  0  0  0
 10 11  1  0  0  0
 11 12  2  0  0  0
 12 13  1  0  0  0
 13 14  1  0  0  0
 14 15  1  0  0  0
 15 16  2  0  0  0
 15 17  1  0  0  0
 33 28  1  0  0  0
 14  5  1  0  0  0
 12  7  1  0  0  0
 19 20  1  0  0  0
 24 25  1  0  0  0
 17 18  1  0  0  0
M  END
> <minimizedAffinity>
3.47600

> <CNNscore>
0.5012938976

> <CNNaffinity>
6.9006972313

> <CNN_VS>
3.4592773914

> <CNNaffinity_variance>
0.9976989627

$$$$
[H]OC(=O)[C@@]1([H])N(C(=O)[C@@]([H])(N([H])[C@]([H])(C(=O)O[H])C([H])([H])C([H])([H])c2c([H])c([H])c([H])c([H])c2[H])C([H])([H])[H])C([H])([H])c2c([H])c([H])c([H])c([H])c2C1([H])[H]


 33 35  0  0  0  0  0  0  0  0999 V2000
   12.1152   25.3497   -1.3664 C   0  0  0  0  0  0  0  0  0  0  0  0
   12.3782   24.1382   -0.4580 C   0  0  0  0  0  0  0  0  0  0  0  0
   11.0677   23.5647   -0.1395 C   0  0  0  0  0  0  0  0  0  0  0  0
   10.1039   23.8962   -0.9143 O   0  0  0  0  0  0  0  0  0  0  0  0
   10.7574   22.6912    0.9244 N   0  0  0  0  0  0  0  0  0  0  0  0
    9.3438   22.2745    1.0762 C   0  0  0  0  0  0  0  0  0  0  0  0
    8.9120   22.7390    2.4465 C   0  0  0  0  0  0  0  0  0  0  0  0
    7.7560   23.4324    2.6851 C   0  0  0  0  0  0  0  0  0  0  0  0
    7.4591   23.8504    3.9925 C   0  0  0  0  0  0  0  0  0  0  0  0
    8.3530   23.5430    4.9960 C   0  0  0  0  0  0  0  0  0  0  0  0
    9.5275   22.8312    4.7193 C   0  0  0  0  0  0  0  0  0  0  0  0
    9.8265   22.4169    3.4412 C   0  0  0  0  0  0  0  0  0  0  0  0
   11.0147   21.6394    3.0942 C   0  0  0  0  0  0  0  0  0  0  0  0
   11.6979   22.1633    1.8718 C   0  0  0  0  0  0  0  0  0  0  0  0
   12.5641   21.1175    1.2537 C   0  0  0  0  0  0  0  0  0  0  0  0
   12.2458   20.6301    0.1573 O   0  0  0  0  0  0  0  0  0  0  0  0
   13.6938   20.7141    1.9048 O   0  0  0  0  0  0  0  0  0  0  0  0
   14.4342   21.4023    2.0305 H   0  0  0  0  0  0  0  0  0  0  0  0
   13.1882   23.2416   -1.2755 N   0  0  0  0  0  0  0  0  0  0  0  0
   13.0693   22.2832   -0.8586 H   0  0  0  0  0  0  0  0  0  0  0  0
   14.5790   23.5982   -1.1169 C   0  0  0  0  0  0  0  0  0  0  0  0
   14.9789   23.5968    0.3210 C   0  0  0  0  0  0  0  0  0  0  0  0
   14.8199   24.6011    1.0588 O   0  0  0  0  0  0  0  0  0  0  0  0
   15.5486   22.4792    0.9151 O   0  0  0  0  0  0  0  0  0  0  0  0
   16.2572   21.9077    0.4786 H   0  0  0  0  0  0  0  0  0  0  0  0
   14.9049   24.9140   -1.7767 C   0  0  0  0  0  0  0  0  0  0  0  0
   16.0824   24.8003   -2.7159 C   0  0  0  0  0  0  0  0  0  0  0  0
   15.9235   25.6711   -3.9070 C   0  0  0  0  0  0  0  0  0  0  0  0
   15.4195   25.1867   -5.1076 C   0  0  0  0  0  0  0  0  0  0  0  0
   15.2623   25.9673   -6.2314 C   0  0  0  0  0  0  0  0  0  0  0  0
   15.6168   27.3015   -6.1862 C   0  0  0  0  0  0  0  0  0  0  0  0
   16.1256   27.8188   -4.9970 C   0  0  0  0  0  0  0  0  0  0  0  0
   16.2690   27.0100   -3.8938 C   0  0  0  0  0  0  0  0  0  0  0  0
  1  2  1  0  0  0
  2 19  1  0  0  0
 19 21  1  0  0  0
 21 26  1  0  0  0
 26 27  1  0  0  0
 27 28  1  0  0  0
 28 29  2  0  0  0
 29 30  1  0  0  0
 30 31  2  0  0  0
 31 32  1  0  0  0
 32 33  2  0  0  0
 21 22  1  0  0  0
 22 23  2  0  0  0
 22 24  1  0  0  0
  2  3  1  0  0  0
  3  4  2  0  0  0
  3  5  1  0  0  0
  5  6  1  0  0  0
  6  7  1  0  0  0
  7  8  2  0  0  0
  8  9  1  0  0  0
  9 10  2  0  0  0
 10 11  1  0  0  0
 11 12  2  0  0  0
 12 13  1  0  0  0
 13 14  1  0  0  0
 14 15  1  0  0  0
 15 16  2  0  0  0
 15 17  1  0  0  0
 33 28  1  0  0  0
 14  5  1  0  0  0
 12  7  1  0  0  0
 19 20  1  0  0  0
 24 25  1  0  0  0
 17 18  1  0  0  0
M  END
> <minimizedAffinity>
-9.16259

> <CNNscore>
0.4905413687

> <CNNaffinity>
6.9284105301

> <CNN_VS>
3.3986718655

> <CNNaffinity_variance>
0.6632184386

$$$$
[H]OC(=O)[C@@]1([H])N(C(=O)[C@@]([H])(N([H])[C@]([H])(C(=O)O[H])C([H])([H])C([H])([H])c2c([H])c([H])c([H])c([H])c2[H])C([H])([H])[H])C([H])([H])c2c([H])c([H])c([H])c([H])c2C1([H])[H]


 33 35  0  0  0  0  0  0  0  0999 V2000
   14.5560   24.4271   -0.7926 C   0  0  0  0  0  0  0  0  0  0  0  0
   14.1086   23.5111   -1.9428 C   0  0  0  0  0  0  0  0  0  0  0  0
   14.7199   24.0462   -3.1626 C   0  0  0  0  0  0  0  0  0  0  0  0
   15.4085   23.2201   -3.8572 O   0  0  0  0  0  0  0  0  0  0  0  0
   14.6305   25.3675   -3.6496 N   0  0  0  0  0  0  0  0  0  0  0  0
   15.3745   25.6906   -4.8894 C   0  0  0  0  0  0  0  0  0  0  0  0
   16.3451   26.7882   -4.5249 C   0  0  0  0  0  0  0  0  0  0  0  0
   17.6755   26.7648   -4.8468 C   0  0  0  0  0  0  0  0  0  0  0  0
   18.5047   27.8198   -4.4324 C   0  0  0  0  0  0  0  0  0  0  0  0
   17.9408   28.8493   -3.7095 C   0  0  0  0  0  0  0  0  0  0  0  0
   16.5753   28.8442   -3.3965 C   0  0  0  0  0  0  0  0  0  0  0  0
   15.7547   27.8150   -3.7989 C   0  0  0  0  0  0  0  0  0  0  0  0
   14.3173   27.7696   -3.5375 C   0  0  0  0  0  0  0  0  0  0  0  0
   13.8719   26.4283   -3.0495 C   0  0  0  0  0  0  0  0  0  0  0  0
   12.4077   26.2399   -3.2655 C   0  0  0  0  0  0  0  0  0  0  0  0
   11.7838   25.4357   -2.5549 O   0  0  0  0  0  0  0  0  0  0  0  0
   11.7779   26.9563   -4.2417 O   0  0  0  0  0  0  0  0  0  0  0  0
   11.7378   27.9680   -4.1298 H   0  0  0  0  0  0  0  0  0  0  0  0
   14.6407   22.1995   -1.5893 N   0  0  0  0  0  0  0  0  0  0  0  0
   14.3860   21.5600   -2.3846 H   0  0  0  0  0  0  0  0  0  0  0  0
   13.9424   21.7148   -0.4213 C   0  0  0  0  0  0  0  0  0  0  0  0
   14.8956   21.2095    0.6099 C   0  0  0  0  0  0  0  0  0  0  0  0
   15.7069   21.9679    1.1973 O   0  0  0  0  0  0  0  0  0  0  0  0
   14.9312   19.8699    0.9715 O   0  0  0  0  0  0  0  0  0  0  0  0
   14.8782   19.1063    0.3132 H   0  0  0  0  0  0  0  0  0  0  0  0
   12.9087   20.6746   -0.7708 C   0  0  0  0  0  0  0  0  0  0  0  0
   11.5422   21.2828   -0.9820 C   0  0  0  0  0  0  0  0  0  0  0  0
   11.1062   22.0796    0.1916 C   0  0  0  0  0  0  0  0  0  0  0  0
   10.8540   21.4913    1.4246 C   0  0  0  0  0  0  0  0  0  0  0  0
   10.4456   22.2016    2.5318 C   0  0  0  0  0  0  0  0  0  0  0  0
   10.2714   23.5684    2.4352 C   0  0  0  0  0  0  0  0  0  0  0  0
   10.5160   24.1893    1.2125 C   0  0  0  0  0  0  0  0  0  0  0  0
   10.9228   23.4486    0.1272 C   0  0  0  0  0  0  0  0  0  0  0  0
  1  2  1  0  0  0
  2 19  1  0  0  0
 19 21  1  0  0  0
 21 26  1  0  0  0
 26 27  1  0  0  0
 27 28  1  0  0  0
 28 29  2  0  0  0
 29 30  1  0  0  0
 30 31  2  0  0  0
 31 32  1  0  0  0
 32 33  2  0  0  0
 21 22  1  0  0  0
 22 23  2  0  0  0
 22 24  1  0  0  0
  2  3  1  0  0  0
  3  4  2  0  0  0
  3  5  1  0  0  0
  5  6  1  0  0  0
  6  7  1  0  0  0
  7  8  2  0  0  0
  8  9  1  0  0  0
  9 10  2  0  0  0
 10 11  1  0  0  0
 11 12  2  0  0  0
 12 13  1  0  0  0
 13 14  1  0  0  0
 14 15  1  0  0  0
 15 16  2  0  0  0
 15 17  1  0  0  0
 33 28  1  0  0  0
 14  5  1  0  0  0
 12  7  1  0  0  0
 19 20  1  0  0  0
 24 25  1  0  0  0
 17 18  1  0  0  0
M  END
> <minimizedAffinity>
-0.17646

> <CNNscore>
0.4597119093

> <CNNaffinity>
6.6411046982

> <CNN_VS>
3.0529949665

> <CNNaffinity_variance>
0.5570493340

$$$$
[H]OC(=O)[C@@]1([H])N(C(=O)[C@@]([H])(N([H])[C@]([H])(C(=O)O[H])C([H])([H])C([H])([H])c2c([H])c([H])c([H])c([H])c2[H])C([H])([H])[H])C([H])([H])c2c([H])c([H])c([H])c([H])c2C1([H])[H]


 33 35  0  0  0  0  0  0  0  0999 V2000
   10.7451   22.0856   -1.7353 C   0  0  0  0  0  0  0  0  0  0  0  0
   12.0422   21.7551   -0.9799 C   0  0  0  0  0  0  0  0  0  0  0  0
   13.0892   22.5994   -1.5619 C   0  0  0  0  0  0  0  0  0  0  0  0
   13.5294   22.2410   -2.7094 O   0  0  0  0  0  0  0  0  0  0  0  0
   13.6601   23.7586   -0.9948 N   0  0  0  0  0  0  0  0  0  0  0  0
   14.7434   24.4274   -1.7525 C   0  0  0  0  0  0  0  0  0  0  0  0
   15.9570   24.4134   -0.8541 C   0  0  0  0  0  0  0  0  0  0  0  0
   17.1992   24.0063   -1.2604 C   0  0  0  0  0  0  0  0  0  0  0  0
   18.2587   23.9981   -0.3387 C   0  0  0  0  0  0  0  0  0  0  0  0
   18.0041   24.4046    0.9538 C   0  0  0  0  0  0  0  0  0  0  0  0
   16.7213   24.8162    1.3383 C   0  0  0  0  0  0  0  0  0  0  0  0
   15.6770   24.8283    0.4417 C   0  0  0  0  0  0  0  0  0  0  0  0
   14.3268   25.2819    0.7702 C   0  0  0  0  0  0  0  0  0  0  0  0
   13.2754   24.3527    0.2541 C   0  0  0  0  0  0  0  0  0  0  0  0
   11.9577   25.0439    0.1449 C   0  0  0  0  0  0  0  0  0  0  0  0
   11.6579   25.6246   -0.9105 O   0  0  0  0  0  0  0  0  0  0  0  0
   11.1026   25.0256    1.2086 O   0  0  0  0  0  0  0  0  0  0  0  0
   10.7242   24.1231    1.4913 H   0  0  0  0  0  0  0  0  0  0  0  0
   11.7549   22.1096    0.4057 N   0  0  0  0  0  0  0  0  0  0  0  0
   12.6578   22.4728    0.8047 H   0  0  0  0  0  0  0  0  0  0  0  0
   11.4284   20.9060    1.1347 C   0  0  0  0  0  0  0  0  0  0  0  0
   10.2859   20.1824    0.5035 C   0  0  0  0  0  0  0  0  0  0  0  0
    9.1353   20.6822    0.4357 O   0  0  0  0  0  0  0  0  0  0  0  0
   10.4411   18.9157   -0.0422 O   0  0  0  0  0  0  0  0  0  0  0  0
   10.9703   18.1745    0.3937 H   0  0  0  0  0  0  0  0  0  0  0  0
   11.1661   21.1812    2.5935 C   0  0  0  0  0  0  0  0  0  0  0  0
    9.6892   21.2010    2.9094 C   0  0  0  0  0  0  0  0  0  0  0  0
    9.2054   22.5741    3.1972 C   0  0  0  0  0  0  0  0  0  0  0  0
    8.4390   23.2879    2.2843 C   0  0  0  0  0  0  0  0  0  0  0  0
    7.9772   24.5641    2.5194 C   0  0  0  0  0  0  0  0  0  0  0  0
    8.2784   25.1855    3.7155 C   0  0  0  0  0  0  0  0  0  0  0  0
    9.0452   24.4969    4.6528 C   0  0  0  0  0  0  0  0  0  0  0  0
    9.4898   23.2232    4.3845 C   0  0  0  0  0  0  0  0  0  0  0  0
  1  2  1  0  0  0
  2 19  1  0  0  0
 19 21  1  0  0  0
 21 26  1  0  0  0
 26 27  1  0  0  0
 27 28  1  0  0  0
 28 29  2  0  0  0
 29 30  1  0  0  0
 30 31  2  0  0  0
 31 32  1  0  0  0
 32 33  2  0  0  0
 21 22  1  0  0  0
 22 23  2  0  0  0
 22 24  1  0  0  0
  2  3  1  0  0  0
  3  4  2  0  0  0
  3  5  1  0  0  0
  5  6  1  0  0  0
  6  7  1  0  0  0
  7  8  2  0  0  0
  8  9  1  0  0  0
  9 10  2  0  0  0
 10 11  1  0  0  0
 11 12  2  0  0  0
 12 13  1  0  0  0
 13 14  1  0  0  0
 14 15  1  0  0  0
 15 16  2  0  0  0
 15 17  1  0  0  0
 33 28  1  0  0  0
 14  5  1  0  0  0
 12  7  1  0  0  0
 19 20  1  0  0  0
 24 25  1  0  0  0
 17 18  1  0  0  0
M  END
> <minimizedAffinity>
-0.84071

> <CNNscore>
0.3674846590

> <CNNaffinity>
6.0633039474

> <CNN_VS>
2.2281711102

> <CNNaffinity_variance>
0.6597799063

$$$$
[H]OC(=O)[C@@]1([H])N(C(=O)[C@@]([H])(N([H])[C@]([H])(C(=O)O[H])C([H])([H])C([H])([H])c2c([H])c([H])c([H])c([H])c2[H])C([H])([H])[H])C([H])([H])c2c([H])c([H])c([H])c([H])c2C1([H])[H]


 33 35  0  0  0  0  0  0  0  0999 V2000
   12.1541   26.9320   -3.9848 C   0  0  0  0  0  0  0  0  0  0  0  0
   13.3015   25.9315   -3.7734 C   0  0  0  0  0  0  0  0  0  0  0  0
   14.3702   26.3228   -4.6969 C   0  0  0  0  0  0  0  0  0  0  0  0
   14.6431   25.4888   -5.6291 O   0  0  0  0  0  0  0  0  0  0  0  0
   15.1256   27.5143   -4.6676 N   0  0  0  0  0  0  0  0  0  0  0  0
   16.1916   27.6726   -5.6842 C   0  0  0  0  0  0  0  0  0  0  0  0
   17.4839   27.8299   -4.9192 C   0  0  0  0  0  0  0  0  0  0  0  0
   18.6220   27.1208   -5.1949 C   0  0  0  0  0  0  0  0  0  0  0  0
   19.7651   27.3149   -4.4026 C   0  0  0  0  0  0  0  0  0  0  0  0
   19.6963   28.2216   -3.3665 C   0  0  0  0  0  0  0  0  0  0  0  0
   18.5164   28.9323   -3.1104 C   0  0  0  0  0  0  0  0  0  0  0  0
   17.3913   28.7493   -3.8819 C   0  0  0  0  0  0  0  0  0  0  0  0
   16.1436   29.4863   -3.6903 C   0  0  0  0  0  0  0  0  0  0  0  0
   14.9449   28.5940   -3.7390 C   0  0  0  0  0  0  0  0  0  0  0  0
   13.7101   29.3737   -4.0445 C   0  0  0  0  0  0  0  0  0  0  0  0
   12.6214   29.0010   -3.5789 O   0  0  0  0  0  0  0  0  0  0  0  0
   13.7985   30.4855   -4.8312 O   0  0  0  0  0  0  0  0  0  0  0  0
   14.3336   31.2740   -4.4713 H   0  0  0  0  0  0  0  0  0  0  0  0
   13.6861   26.1109   -2.3777 N   0  0  0  0  0  0  0  0  0  0  0  0
   14.6636   26.4987   -2.3944 H   0  0  0  0  0  0  0  0  0  0  0  0
   13.7603   24.8137   -1.7463 C   0  0  0  0  0  0  0  0  0  0  0  0
   12.4127   24.1800   -1.6485 C   0  0  0  0  0  0  0  0  0  0  0  0
   12.2481   22.9402   -1.7677 O   0  0  0  0  0  0  0  0  0  0  0  0
   11.2703   24.9345   -1.4196 O   0  0  0  0  0  0  0  0  0  0  0  0
   11.0775   25.8171   -1.8702 H   0  0  0  0  0  0  0  0  0  0  0  0
   14.4368   24.8770   -0.4006 C   0  0  0  0  0  0  0  0  0  0  0  0
   15.3852   23.7207   -0.1885 C   0  0  0  0  0  0  0  0  0  0  0  0
   14.6591   22.4442    0.0254 C   0  0  0  0  0  0  0  0  0  0  0  0
   13.7970   22.2621    1.0995 C   0  0  0  0  0  0  0  0  0  0  0  0
   13.1107   21.0900    1.3279 C   0  0  0  0  0  0  0  0  0  0  0  0
   13.2719   20.0286    0.4587 C   0  0  0  0  0  0  0  0  0  0  0  0
   14.1295   20.1786   -0.6288 C   0  0  0  0  0  0  0  0  0  0  0  0
   14.7990   21.3638   -0.8262 C   0  0  0  0  0  0  0  0  0  0  0  0
  1  2  1  0  0  0
  2 19  1  0  0  0
 19 21  1  0  0  0
 21 26  1  0  0  0
 26 27  1  0  0  0
 27 28  1  0  0  0
 28 29  2  0  0  0
 29 30  1  0  0  0
 30 31  2  0  0  0
 31 32  1  0  0  0
 32 33  2  0  0  0
 21 22  1  0  0  0
 22 23  2  0  0  0
 22 24  1  0  0  0
  2  3  1  0  0  0
  3  4  2  0  0  0
  3  5  1  0  0  0
  5  6  1  0  0  0
  6  7  1  0  0  0
  7  8  2  0  0  0
  8  9  1  0  0  0
  9 10  2  0  0  0
 10 11  1  0  0  0
 11 12  2  0  0  0
 12 13  1  0  0  0
 13 14  1  0  0  0
 14 15  1  0  0  0
 15 16  2  0  0  0
 15 17  1  0  0  0
 33 28  1  0  0  0
 14  5  1  0  0  0
 12  7  1  0  0  0
 19 20  1  0  0  0
 24 25  1  0  0  0
 17 18  1  0  0  0
M  END
> <minimizedAffinity>
17.70740

> <CNNscore>
0.3614605367

> <CNNaffinity>
6.1680593491

> <CNN_VS>
2.2295100689

> <CNNaffinity_variance>
0.3935824037

$$$$
[H]OC(=O)[C@@]1([H])N(C(=O)[C@@]([H])(N([H])[C@]([H])(C(=O)O[H])C([H])([H])C([H])([H])c2c([H])c([H])c([H])c([H])c2[H])C([H])([H])[H])C([H])([H])c2c([H])c([H])c([H])c([H])c2C1([H])[H]


 33 35  0  0  0  0  0  0  0  0999 V2000
   11.6744   23.4640   -1.0884 C   0  0  0  0  0  0  0  0  0  0  0  0
   12.9808   23.4278   -1.8971 C   0  0  0  0  0  0  0  0  0  0  0  0
   13.1042   24.7357   -2.5467 C   0  0  0  0  0  0  0  0  0  0  0  0
   12.0436   25.4521   -2.5777 O   0  0  0  0  0  0  0  0  0  0  0  0
   14.2612   25.2858   -3.1382 N   0  0  0  0  0  0  0  0  0  0  0  0
   14.1348   26.6157   -3.7787 C   0  0  0  0  0  0  0  0  0  0  0  0
   14.5104   26.4229   -5.2285 C   0  0  0  0  0  0  0  0  0  0  0  0
   13.7608   26.8856   -6.2763 C   0  0  0  0  0  0  0  0  0  0  0  0
   14.1783   26.6255   -7.5917 C   0  0  0  0  0  0  0  0  0  0  0  0
   15.3394   25.9064   -7.7790 C   0  0  0  0  0  0  0  0  0  0  0  0
   16.0848   25.4471   -6.6853 C   0  0  0  0  0  0  0  0  0  0  0  0
   15.6839   25.6978   -5.3926 C   0  0  0  0  0  0  0  0  0  0  0  0
   16.4360   25.2795   -4.2111 C   0  0  0  0  0  0  0  0  0  0  0  0
   15.5573   24.6693   -3.1665 C   0  0  0  0  0  0  0  0  0  0  0  0
   16.2105   24.7136   -1.8258 C   0  0  0  0  0  0  0  0  0  0  0  0
   15.9205   25.6251   -1.0347 O   0  0  0  0  0  0  0  0  0  0  0  0
   17.1168   23.7494   -1.4911 O   0  0  0  0  0  0  0  0  0  0  0  0
   16.7762   22.7929   -1.4100 H   0  0  0  0  0  0  0  0  0  0  0  0
   14.0201   23.2090   -0.8969 N   0  0  0  0  0  0  0  0  0  0  0  0
   14.8486   23.7753   -1.2118 H   0  0  0  0  0  0  0  0  0  0  0  0
   14.4200   21.8215   -0.9391 C   0  0  0  0  0  0  0  0  0  0  0  0
   13.4476   21.0000   -1.7182 C   0  0  0  0  0  0  0  0  0  0  0  0
   12.6340   20.2219   -1.1605 O   0  0  0  0  0  0  0  0  0  0  0  0
   13.3951   21.0572   -3.1040 O   0  0  0  0  0  0  0  0  0  0  0  0
   14.2105   21.0746   -3.6992 H   0  0  0  0  0  0  0  0  0  0  0  0
   14.6387   21.2532    0.4399 C   0  0  0  0  0  0  0  0  0  0  0  0
   14.7176   22.3342    1.4920 C   0  0  0  0  0  0  0  0  0  0  0  0
   13.6609   23.3599    1.3087 C   0  0  0  0  0  0  0  0  0  0  0  0
   13.9671   24.6954    1.0791 C   0  0  0  0  0  0  0  0  0  0  0  0
   13.0108   25.6717    0.9078 C   0  0  0  0  0  0  0  0  0  0  0  0
   11.6738   25.3295    0.9630 C   0  0  0  0  0  0  0  0  0  0  0  0
   11.3327   23.9983    1.1918 C   0  0  0  0  0  0  0  0  0  0  0  0
   12.3144   23.0493    1.3584 C   0  0  0  0  0  0  0  0  0  0  0  0
  1  2  1  0  0  0
  2 19  1  0  0  0
 19 21  1  0  0  0
 21 26  1  0  0  0
 26 27  1  0  0  0
 27 28  1  0  0  0
 28 29  2  0  0  0
 29 30  1  0  0  0
 30 31  2  0  0  0
 31 32  1  0  0  0
 32 33  2  0  0  0
 21 22  1  0  0  0
 22 23  2  0  0  0
 22 24  1  0  0  0
  2  3  1  0  0  0
  3  4  2  0  0  0
  3  5  1  0  0  0
  5  6  1  0  0  0
  6  7  1  0  0  0
  7  8  2  0  0  0
  8  9  1  0  0  0
  9 10  2  0  0  0
 10 11  1  0  0  0
 11 12  2  0  0  0
 12 13  1  0  0  0
 13 14  1  0  0  0
 14 15  1  0  0  0
 15 16  2  0  0  0
 15 17  1  0  0  0
 33 28  1  0  0  0
 14  5  1  0  0  0
 12  7  1  0  0  0
 19 20  1  0  0  0
 24 25  1  0  0  0
 17 18  1  0  0  0
M  END
> <minimizedAffinity>
1.27194

> <CNNscore>
0.3489049673

> <CNNaffinity>
6.3537087440

> <CNN_VS>
2.2168405056

> <CNNaffinity_variance>
0.2155281603

$$$$
[H]OC(=O)[C@@]1([H])N(C(=O)[C@@]([H])(N([H])[C@]([H])(C(=O)O[H])C([H])([H])C([H])([H])c2c([H])c([H])c([H])c([H])c2[H])C([H])([H])[H])C([H])([H])c2c([H])c([H])c([H])c([H])c2C1([H])[H]


 33 35  0  0  0  0  0  0  0  0999 V2000
   13.9653   24.0911   -0.8867 C   0  0  0  0  0  0  0  0  0  0  0  0
   12.8497   24.8966   -1.5714 C   0  0  0  0  0  0  0  0  0  0  0  0
   11.7419   23.9641   -1.7973 C   0  0  0  0  0  0  0  0  0  0  0  0
   10.7108   24.4453   -2.3841 O   0  0  0  0  0  0  0  0  0  0  0  0
   11.6915   22.6003   -1.4386 N   0  0  0  0  0  0  0  0  0  0  0  0
   10.4401   21.8628   -1.7302 C   0  0  0  0  0  0  0  0  0  0  0  0
    9.9268   21.3615   -0.4016 C   0  0  0  0  0  0  0  0  0  0  0  0
    8.6339   21.5154    0.0212 C   0  0  0  0  0  0  0  0  0  0  0  0
    8.2618   21.0431    1.2903 C   0  0  0  0  0  0  0  0  0  0  0  0
    9.2233   20.4364    2.0699 C   0  0  0  0  0  0  0  0  0  0  0  0
   10.5382   20.2936    1.6080 C   0  0  0  0  0  0  0  0  0  0  0  0
   10.9120   20.7527    0.3654 C   0  0  0  0  0  0  0  0  0  0  0  0
   12.2561   20.6004   -0.1887 C   0  0  0  0  0  0  0  0  0  0  0  0
   12.7550   21.8605   -0.8201 C   0  0  0  0  0  0  0  0  0  0  0  0
   13.8539   21.5749   -1.7879 C   0  0  0  0  0  0  0  0  0  0  0  0
   13.8548   22.1369   -2.8947 O   0  0  0  0  0  0  0  0  0  0  0  0
   14.8416   20.6996   -1.4393 O   0  0  0  0  0  0  0  0  0  0  0  0
   15.4495   20.9619   -0.6652 H   0  0  0  0  0  0  0  0  0  0  0  0
   12.5077   25.9352   -0.6057 N   0  0  0  0  0  0  0  0  0  0  0  0
   13.3602   26.5458   -0.5232 H   0  0  0  0  0  0  0  0  0  0  0  0
   12.3060   25.3199    0.6857 C   0  0  0  0  0  0  0  0  0  0  0  0
   13.5169   24.5644    1.1218 C   0  0  0  0  0  0  0  0  0  0  0  0
   13.4575   23.3659    1.4937 O   0  0  0  0  0  0  0  0  0  0  0  0
   14.7738   25.1532    1.1369 O   0  0  0  0  0  0  0  0  0  0  0  0
   14.9544   26.0891    1.4695 H   0  0  0  0  0  0  0  0  0  0  0  0
   11.0758   24.4490    0.7119 C   0  0  0  0  0  0  0  0  0  0  0  0
    9.9288   25.1108    1.4386 C   0  0  0  0  0  0  0  0  0  0  0  0
    9.4343   24.2775    2.5626 C   0  0  0  0  0  0  0  0  0  0  0  0
    8.0824   24.1889    2.8703 C   0  0  0  0  0  0  0  0  0  0  0  0
    7.5915   23.4274    3.9077 C   0  0  0  0  0  0  0  0  0  0  0  0
    8.4683   22.7071    4.6952 C   0  0  0  0  0  0  0  0  0  0  0  0
    9.8308   22.7743    4.4132 C   0  0  0  0  0  0  0  0  0  0  0  0
   10.2861   23.5452    3.3690 C   0  0  0  0  0  0  0  0  0  0  0  0
  1  2  1  0  0  0
  2 19  1  0  0  0
 19 21  1  0  0  0
 21 26  1  0  0  0
 26 27  1  0  0  0
 27 28  1  0  0  0
 28 29  2  0  0  0
 29 30  1  0  0  0
 30 31  2  0  0  0
 31 32  1  0  0  0
 32 33  2  0  0  0
 21 22  1  0  0  0
 22 23  2  0  0  0
 22 24  1  0  0  0
  2  3  1  0  0  0
  3  4  2  0  0  0
  3  5  1  0  0  0
  5  6  1  0  0  0
  6  7  1  0  0  0
  7  8  2  0  0  0
  8  9  1  0  0  0
  9 10  2  0  0  0
 10 11  1  0  0  0
 11 12  2  0  0  0
 12 13  1  0  0  0
 13 14  1  0  0  0
 14 15  1  0  0  0
 15 16  2  0  0  0
 15 17  1  0  0  0
 33 28  1  0  0  0
 14  5  1  0  0  0
 12  7  1  0  0  0
 19 20  1  0  0  0
 24 25  1  0  0  0
 17 18  1  0  0  0
M  END
> <minimizedAffinity>
-1.92760

> <CNNscore>
0.3252108693

> <CNNaffinity>
5.8727235794

> <CNN_VS>
1.9098734856

> <CNNaffinity_variance>
0.5690491796

$$$$
[H]OC(=O)[C@@]1([H])N(c2nc(C#N)nc([H])c2[H])C([H])([H])[C@@]([H])(S(=O)(=O)c2c([H])c([H])c([H])c([H])c2C(F)(F)F)C1([H])[H]


 30 32  0  0  0  0  0  0  0  0999 V2000
   13.1267   22.7742   -0.4074 N   0  0  0  0  0  0  0  0  0  0  0  0
   13.9166   23.5871   -1.3072 C   0  0  0  0  0  0  0  0  0  0  0  0
   13.8907   22.6859   -2.5727 C   0  0  0  0  0  0  0  0  0  0  0  0
   14.2364   21.3870   -1.9729 C   0  0  0  0  0  0  0  0  0  0  0  0
   13.5406   21.4227   -0.5985 C   0  0  0  0  0  0  0  0  0  0  0  0
   10.5793   22.9594    2.2161 C   0  0  0  0  0  0  0  0  0  0  0  0
   10.2276   24.2571    2.1873 N   0  0  0  0  0  0  0  0  0  0  0  0
   10.8002   25.1274    1.3172 C   0  0  0  0  0  0  0  0  0  0  0  0
   11.7565   24.6038    0.4719 C   0  0  0  0  0  0  0  0  0  0  0  0
   12.1376   23.2784    0.4784 C   0  0  0  0  0  0  0  0  0  0  0  0
   11.5164   22.4826    1.3766 N   0  0  0  0  0  0  0  0  0  0  0  0
    9.4098   21.3866    3.9353 N   0  0  0  0  0  0  0  0  0  0  0  0
    9.9382   22.0887    3.1583 C   0  0  0  0  0  0  0  0  0  0  0  0
   14.4403   20.9206    0.4504 C   0  0  0  0  0  0  0  0  0  0  0  0
   15.6143   20.6102    0.1657 O   0  0  0  0  0  0  0  0  0  0  0  0
   14.0004   20.7884    1.7489 O   0  0  0  0  0  0  0  0  0  0  0  0
   14.0703   19.9268    2.2842 H   0  0  0  0  0  0  0  0  0  0  0  0
   15.1369   23.3266   -3.7170 S   0  0  0  0  0  0  0  0  0  0  0  0
   16.1666   22.2378   -3.7909 O   0  0  0  0  0  0  0  0  0  0  0  0
   14.3953   23.4719   -4.9999 O   0  0  0  0  0  0  0  0  0  0  0  0
   15.8346   24.7853   -3.0968 C   0  0  0  0  0  0  0  0  0  0  0  0
   16.4276   24.7296   -1.8666 C   0  0  0  0  0  0  0  0  0  0  0  0
   17.0146   25.8620   -1.3452 C   0  0  0  0  0  0  0  0  0  0  0  0
   17.0191   27.0482   -2.0334 C   0  0  0  0  0  0  0  0  0  0  0  0
   16.4141   27.0623   -3.2646 C   0  0  0  0  0  0  0  0  0  0  0  0
   15.8019   25.9399   -3.8418 C   0  0  0  0  0  0  0  0  0  0  0  0
   15.1837   26.0678   -5.1614 C   0  0  0  0  0  0  0  0  0  0  0  0
   13.8094   26.1332   -5.1770 F   0  0  0  0  0  0  0  0  0  0  0  0
   15.6772   25.1883   -6.1037 F   0  0  0  0  0  0  0  0  0  0  0  0
   15.5624   27.3184   -5.6800 F   0  0  0  0  0  0  0  0  0  0  0  0
 12 13  3  0  0  0
 13  6  1  0  0  0
  6  7  2  0  0  0
  7  8  1  0  0  0
  8  9  2  0  0  0
  9 10  1  0  0  0
 10  1  1  0  0  0
  1  2  1  0  0  0
  2  3  1  0  0  0
  3 18  1  0  0  0
 18 19  2  0  0  0
 18 20  2  0  0  0
 18 21  1  0  0  0
 21 22  2  0  0  0
 22 23  1  0  0  0
 23 24  2  0  0  0
 24 25  1  0  0  0
 25 26  2  0  0  0
 26 27  1  0  0  0
 27 28  1  0  0  0
 27 29  1  0  0  0
 27 30  1  0  0  0
  3  4  1  0  0  0
  4  5  1  0  0  0
  5 14  1  0  0  0
 14 15  2  0  0  0
 14 16  1  0  0  0
 10 11  2  0  0  0
 11  6  1  0  0  0
  5  1  1  0  0  0
 26 21  1  0  0  0
 16 17  1  0  0  0
M  END
> <minimizedAffinity>
-4.40832

> <CNNscore>
0.4981952608

> <CNNaffinity>
6.9962358475

> <CNN_VS>
3.4854915142

> <CNNaffinity_variance>
0.9753257632

$$$$
[H]OC(=O)[C@@]1([H])N(c2nc(C#N)nc([H])c2[H])C([H])([H])[C@@]([H])(S(=O)(=O)c2c([H])c([H])c([H])c([H])c2C(F)(F)F)C1([H])[H]


 30 32  0  0  0  0  0  0  0  0999 V2000
   13.3929   23.5375   -0.8059 N   0  0  0  0  0  0  0  0  0  0  0  0
   13.1927   24.5219   -1.8476 C   0  0  0  0  0  0  0  0  0  0  0  0
   14.2322   24.0230   -2.8891 C   0  0  0  0  0  0  0  0  0  0  0  0
   15.4044   23.8398   -2.0180 C   0  0  0  0  0  0  0  0  0  0  0  0
   14.8000   23.3324   -0.6945 C   0  0  0  0  0  0  0  0  0  0  0  0
   10.6948   23.0008    1.6104 C   0  0  0  0  0  0  0  0  0  0  0  0
   10.3333   21.7293    1.3633 N   0  0  0  0  0  0  0  0  0  0  0  0
   10.9478   20.9915    0.4038 C   0  0  0  0  0  0  0  0  0  0  0  0
   11.9567   21.6205   -0.2959 C   0  0  0  0  0  0  0  0  0  0  0  0
   12.3490   22.9223   -0.0650 C   0  0  0  0  0  0  0  0  0  0  0  0
   11.6838   23.5830    0.9082 N   0  0  0  0  0  0  0  0  0  0  0  0
    9.4550   24.3215    3.4854 N   0  0  0  0  0  0  0  0  0  0  0  0
   10.0079   23.7293    2.6373 C   0  0  0  0  0  0  0  0  0  0  0  0
   15.4139   24.0188    0.4517 C   0  0  0  0  0  0  0  0  0  0  0  0
   16.2759   23.4336    1.1374 O   0  0  0  0  0  0  0  0  0  0  0  0
   15.0470   25.3055    0.7786 O   0  0  0  0  0  0  0  0  0  0  0  0
   14.7298   25.5849    1.7033 H   0  0  0  0  0  0  0  0  0  0  0  0
   14.4271   25.3294   -4.1254 S   0  0  0  0  0  0  0  0  0  0  0  0
   14.6771   24.5915   -5.4077 O   0  0  0  0  0  0  0  0  0  0  0  0
   13.1029   26.0100   -4.1303 O   0  0  0  0  0  0  0  0  0  0  0  0
   15.7766   26.3401   -3.7299 C   0  0  0  0  0  0  0  0  0  0  0  0
   16.3227   26.2072   -2.4839 C   0  0  0  0  0  0  0  0  0  0  0  0
   17.4117   26.9763   -2.1356 C   0  0  0  0  0  0  0  0  0  0  0  0
   17.9638   27.8749   -3.0122 C   0  0  0  0  0  0  0  0  0  0  0  0
   17.3870   27.9778   -4.2527 C   0  0  0  0  0  0  0  0  0  0  0  0
   16.2783   27.2204   -4.6587 C   0  0  0  0  0  0  0  0  0  0  0  0
   15.7416   27.4124   -6.0058 C   0  0  0  0  0  0  0  0  0  0  0  0
   15.9968   26.4015   -6.9037 F   0  0  0  0  0  0  0  0  0  0  0  0
   15.9879   28.6615   -6.5390 F   0  0  0  0  0  0  0  0  0  0  0  0
   14.3397   27.3930   -5.9031 F   0  0  0  0  0  0  0  0  0  0  0  0
 12 13  3  0  0  0
 13  6  1  0  0  0
  6  7  2  0  0  0
  7  8  1  0  0  0
  8  9  2  0  0  0
  9 10  1  0  0  0
 10  1  1  0  0  0
  1  2  1  0  0  0
  2  3  1  0  0  0
  3 18  1  0  0  0
 18 19  2  0  0  0
 18 20  2  0  0  0
 18 21  1  0  0  0
 21 22  2  0  0  0
 22 23  1  0  0  0
 23 24  2  0  0  0
 24 25  1  0  0  0
 25 26  2  0  0  0
 26 27  1  0  0  0
 27 28  1  0  0  0
 27 29  1  0  0  0
 27 30  1  0  0  0
  3  4  1  0  0  0
  4  5  1  0  0  0
  5 14  1  0  0  0
 14 15  2  0  0  0
 14 16  1  0  0  0
 10 11  2  0  0  0
 11  6  1  0  0  0
  5  1  1  0  0  0
 26 21  1  0  0  0
 16 17  1  0  0  0
M  END
> <minimizedAffinity>
-6.31575

> <CNNscore>
0.4191426337

> <CNNaffinity>
6.9099740982

> <CNN_VS>
2.8962647915

> <CNNaffinity_variance>
0.4629229009

$$$$
[H]OC(=O)[C@@]1([H])N(c2nc(C#N)nc([H])c2[H])C([H])([H])[C@@]([H])(S(=O)(=O)c2c([H])c([H])c([H])c([H])c2C(F)(F)F)C1([H])[H]


 30 32  0  0  0  0  0  0  0  0999 V2000
   13.0281   23.1175   -0.8225 N   0  0  0  0  0  0  0  0  0  0  0  0
   13.8609   24.2961   -0.9304 C   0  0  0  0  0  0  0  0  0  0  0  0
   14.4476   24.0785   -2.3526 C   0  0  0  0  0  0  0  0  0  0  0  0
   14.8652   22.6710   -2.2480 C   0  0  0  0  0  0  0  0  0  0  0  0
   13.7749   22.0311   -1.3670 C   0  0  0  0  0  0  0  0  0  0  0  0
   10.1195   23.9252    1.2498 C   0  0  0  0  0  0  0  0  0  0  0  0
    9.1912   23.0657    0.7937 N   0  0  0  0  0  0  0  0  0  0  0  0
    9.4675   22.1879   -0.2042 C   0  0  0  0  0  0  0  0  0  0  0  0
   10.7473   22.2314   -0.7171 C   0  0  0  0  0  0  0  0  0  0  0  0
   11.7197   23.1011   -0.2701 C   0  0  0  0  0  0  0  0  0  0  0  0
   11.3587   23.9400    0.7259 N   0  0  0  0  0  0  0  0  0  0  0  0
    9.4891   25.5632    3.1775 N   0  0  0  0  0  0  0  0  0  0  0  0
    9.7674   24.8287    2.3064 C   0  0  0  0  0  0  0  0  0  0  0  0
   14.3777   21.1541   -0.3526 C   0  0  0  0  0  0  0  0  0  0  0  0
   15.1121   20.2096   -0.7051 O   0  0  0  0  0  0  0  0  0  0  0  0
   14.1401   21.3638    0.9879 O   0  0  0  0  0  0  0  0  0  0  0  0
   13.7899   20.6473    1.6185 H   0  0  0  0  0  0  0  0  0  0  0  0
   15.8175   25.2428   -2.5551 S   0  0  0  0  0  0  0  0  0  0  0  0
   15.6919   26.1701   -1.3823 O   0  0  0  0  0  0  0  0  0  0  0  0
   17.0286   24.3830   -2.4507 O   0  0  0  0  0  0  0  0  0  0  0  0
   15.6555   26.1146   -4.0426 C   0  0  0  0  0  0  0  0  0  0  0  0
   14.6972   25.6935   -4.9215 C   0  0  0  0  0  0  0  0  0  0  0  0
   14.5195   26.3725   -6.1073 C   0  0  0  0  0  0  0  0  0  0  0  0
   15.2833   27.4653   -6.4283 C   0  0  0  0  0  0  0  0  0  0  0  0
   16.2336   27.8564   -5.5194 C   0  0  0  0  0  0  0  0  0  0  0  0
   16.4567   27.2016   -4.2990 C   0  0  0  0  0  0  0  0  0  0  0  0
   17.4995   27.7029   -3.4041 C   0  0  0  0  0  0  0  0  0  0  0  0
   18.6001   28.2579   -4.0158 F   0  0  0  0  0  0  0  0  0  0  0  0
   17.8467   26.8273   -2.3952 F   0  0  0  0  0  0  0  0  0  0  0  0
   16.9551   28.7881   -2.6956 F   0  0  0  0  0  0  0  0  0  0  0  0
 12 13  3  0  0  0
 13  6  1  0  0  0
  6  7  2  0  0  0
  7  8  1  0  0  0
  8  9  2  0  0  0
  9 10  1  0  0  0
 10  1  1  0  0  0
  1  2  1  0  0  0
  2  3  1  0  0  0
  3 18  1  0  0  0
 18 19  2  0  0  0
 18 20  2  0  0  0
 18 21  1  0  0  0
 21 22  2  0  0  0
 22 23  1  0  0  0
 23 24  2  0  0  0
 24 25  1  0  0  0
 25 26  2  0  0  0
 26 27  1  0  0  0
 27 28  1  0  0  0
 27 29  1  0  0  0
 27 30  1  0  0  0
  3  4  1  0  0  0
  4  5  1  0  0  0
  5 14  1  0  0  0
 14 15  2  0  0  0
 14 16  1  0  0  0
 10 11  2  0  0  0
 11  6  1  0  0  0
  5  1  1  0  0  0
 26 21  1  0  0  0
 16 17  1  0  0  0
M  END
> <minimizedAffinity>
-7.73418

> <CNNscore>
0.3605442643

> <CNNaffinity>
6.8463058472

> <CNN_VS>
2.4683961868

> <CNNaffinity_variance>
0.4896191061

$$$$
[H]OC(=O)[C@@]1([H])N(c2nc(C#N)nc([H])c2[H])C([H])([H])[C@@]([H])(S(=O)(=O)c2c([H])c([H])c([H])c([H])c2C(F)(F)F)C1([H])[H]


 30 32  0  0  0  0  0  0  0  0999 V2000
   13.8078   24.1986   -1.1804 N   0  0  0  0  0  0  0  0  0  0  0  0
   13.8449   22.8187   -0.7457 C   0  0  0  0  0  0  0  0  0  0  0  0
   12.5017   22.3152   -1.3425 C   0  0  0  0  0  0  0  0  0  0  0  0
   11.6006   23.3900   -0.8961 C   0  0  0  0  0  0  0  0  0  0  0  0
   12.4713   24.6580   -0.9877 C   0  0  0  0  0  0  0  0  0  0  0  0
   15.8791   26.3579   -3.2908 C   0  0  0  0  0  0  0  0  0  0  0  0
   17.0777   26.2919   -2.6846 N   0  0  0  0  0  0  0  0  0  0  0  0
   17.2664   25.5453   -1.5668 C   0  0  0  0  0  0  0  0  0  0  0  0
   16.1631   24.8648   -1.0950 C   0  0  0  0  0  0  0  0  0  0  0  0
   14.9222   24.9133   -1.6948 C   0  0  0  0  0  0  0  0  0  0  0  0
   14.8239   25.6806   -2.8028 N   0  0  0  0  0  0  0  0  0  0  0  0
   15.6175   27.8224   -5.4317 N   0  0  0  0  0  0  0  0  0  0  0  0
   15.7421   27.1640   -4.4691 C   0  0  0  0  0  0  0  0  0  0  0  0
   12.2948   25.4947    0.2082 C   0  0  0  0  0  0  0  0  0  0  0  0
   12.9836   26.5243    0.3533 O   0  0  0  0  0  0  0  0  0  0  0  0
   11.3740   25.1539    1.1742 O   0  0  0  0  0  0  0  0  0  0  0  0
   11.6002   25.0551    2.1606 H   0  0  0  0  0  0  0  0  0  0  0  0
   12.1525   20.7024   -0.6007 S   0  0  0  0  0  0  0  0  0  0  0  0
   12.3148   19.7311   -1.7328 O   0  0  0  0  0  0  0  0  0  0  0  0
   13.2255   20.5442    0.4193 O   0  0  0  0  0  0  0  0  0  0  0  0
   10.5344   20.6572    0.0149 C   0  0  0  0  0  0  0  0  0  0  0  0
    9.5306   20.3644   -0.8654 C   0  0  0  0  0  0  0  0  0  0  0  0
    8.2309   20.2963   -0.4131 C   0  0  0  0  0  0  0  0  0  0  0  0
    7.9184   20.5154    0.9041 C   0  0  0  0  0  0  0  0  0  0  0  0
    8.9543   20.8058    1.7555 C   0  0  0  0  0  0  0  0  0  0  0  0
   10.2942   20.8880    1.3484 C   0  0  0  0  0  0  0  0  0  0  0  0
   11.3200   21.2070    2.3411 C   0  0  0  0  0  0  0  0  0  0  0  0
   12.1692   22.2399    2.0167 F   0  0  0  0  0  0  0  0  0  0  0  0
   11.9957   20.1065    2.8285 F   0  0  0  0  0  0  0  0  0  0  0  0
   10.6590   21.6924    3.4829 F   0  0  0  0  0  0  0  0  0  0  0  0
 12 13  3  0  0  0
 13  6  1  0  0  0
  6  7  2  0  0  0
  7  8  1  0  0  0
  8  9  2  0  0  0
  9 10  1  0  0  0
 10  1  1  0  0  0
  1  2  1  0  0  0
  2  3  1  0  0  0
  3 18  1  0  0  0
 18 19  2  0  0  0
 18 20  2  0  0  0
 18 21  1  0  0  0
 21 22  2  0  0  0
 22 23  1  0  0  0
 23 24  2  0  0  0
 24 25  1  0  0  0
 25 26  2  0  0  0
 26 27  1  0  0  0
 27 28  1  0  0  0
 27 29  1  0  0  0
 27 30  1  0  0  0
  3  4  1  0  0  0
  4  5  1  0  0  0
  5 14  1  0  0  0
 14 15  2  0  0  0
 14 16  1  0  0  0
 10 11  2  0  0  0
 11  6  1  0  0  0
  5  1  1  0  0  0
 26 21  1  0  0  0
 16 17  1  0  0  0
M  END
> <minimizedAffinity>
-4.52205

> <CNNscore>
0.3341166377

> <CNNaffinity>
6.5104079247

> <CNN_VS>
2.1752355099

> <CNNaffinity_variance>
0.7893693447

$$$$
[H]OC(=O)[C@@]1([H])N(c2nc(C#N)nc([H])c2[H])C([H])([H])[C@@]([H])(S(=O)(=O)c2c([H])c([H])c([H])c([H])c2C(F)(F)F)C1([H])[H]


 30 32  0  0  0  0  0  0  0  0999 V2000
   11.1487   22.9521    1.1580 N   0  0  0  0  0  0  0  0  0  0  0  0
   12.2562   23.8098    0.7945 C   0  0  0  0  0  0  0  0  0  0  0  0
   12.5912   23.2324   -0.6085 C   0  0  0  0  0  0  0  0  0  0  0  0
   12.6131   21.7938   -0.2981 C   0  0  0  0  0  0  0  0  0  0  0  0
   11.4982   21.6299    0.7528 C   0  0  0  0  0  0  0  0  0  0  0  0
    8.7571   25.0256    2.9983 C   0  0  0  0  0  0  0  0  0  0  0  0
    7.6611   24.2469    3.0279 N   0  0  0  0  0  0  0  0  0  0  0  0
    7.6498   23.0172    2.4533 C   0  0  0  0  0  0  0  0  0  0  0  0
    8.8210   22.6190    1.8426 C   0  0  0  0  0  0  0  0  0  0  0  0
    9.9599   23.3953    1.7963 C   0  0  0  0  0  0  0  0  0  0  0  0
    9.8829   24.6051    2.3935 N   0  0  0  0  0  0  0  0  0  0  0  0
    8.6736   27.3752    4.1249 N   0  0  0  0  0  0  0  0  0  0  0  0
    8.7074   26.3155    3.6234 C   0  0  0  0  0  0  0  0  0  0  0  0
   11.9487   20.7678    1.8553 C   0  0  0  0  0  0  0  0  0  0  0  0
   11.1190   20.0865    2.4900 O   0  0  0  0  0  0  0  0  0  0  0  0
   13.2815   20.7033    2.1968 O   0  0  0  0  0  0  0  0  0  0  0  0
   13.6321   20.8635    3.1377 H   0  0  0  0  0  0  0  0  0  0  0  0
   14.1963   23.9069   -1.1004 S   0  0  0  0  0  0  0  0  0  0  0  0
   14.7602   24.4819    0.1655 O   0  0  0  0  0  0  0  0  0  0  0  0
   14.9588   22.7094   -1.5494 O   0  0  0  0  0  0  0  0  0  0  0  0
   13.9921   25.1442   -2.2948 C   0  0  0  0  0  0  0  0  0  0  0  0
   12.7143   25.4865   -2.6390 C   0  0  0  0  0  0  0  0  0  0  0  0
   12.5064   26.4817   -3.5690 C   0  0  0  0  0  0  0  0  0  0  0  0
   13.5542   27.1403   -4.1598 C   0  0  0  0  0  0  0  0  0  0  0  0
   14.8208   26.7677   -3.7869 C   0  0  0  0  0  0  0  0  0  0  0  0
   15.0890   25.7620   -2.8465 C   0  0  0  0  0  0  0  0  0  0  0  0
   16.4798   25.4433   -2.5242 C   0  0  0  0  0  0  0  0  0  0  0  0
   16.7311   25.1084   -1.2135 F   0  0  0  0  0  0  0  0  0  0  0  0
   17.3959   26.3500   -3.0182 F   0  0  0  0  0  0  0  0  0  0  0  0
   16.8092   24.2652   -3.2168 F   0  0  0  0  0  0  0  0  0  0  0  0
 12 13  3  0  0  0
 13  6  1  0  0  0
  6  7  2  0  0  0
  7  8  1  0  0  0
  8  9  2  0  0  0
  9 10  1  0  0  0
 10  1  1  0  0  0
  1  2  1  0  0  0
  2  3  1  0  0  0
  3 18  1  0  0  0
 18 19  2  0  0  0
 18 20  2  0  0  0
 18 21  1  0  0  0
 21 22  2  0  0  0
 22 23  1  0  0  0
 23 24  2  0  0  0
 24 25  1  0  0  0
 25 26  2  0  0  0
 26 27  1  0  0  0
 27 28  1  0  0  0
 27 29  1  0  0  0
 27 30  1  0  0  0
  3  4  1  0  0  0
  4  5  1  0  0  0
  5 14  1  0  0  0
 14 15  2  0  0  0
 14 16  1  0  0  0
 10 11  2  0  0  0
 11  6  1  0  0  0
  5  1  1  0  0  0
 26 21  1  0  0  0
 16 17  1  0  0  0
M  END
> <minimizedAffinity>
-8.60329

> <CNNscore>
0.3339582086

> <CNNaffinity>
6.4816346169

> <CNN_VS>
2.1645951271

> <CNNaffinity_variance>
0.2586445510

$$$$
[H]OC(=O)[C@@]1([H])N(c2nc(C#N)nc([H])c2[H])C([H])([H])[C@@]([H])(S(=O)(=O)c2c([H])c([H])c([H])c([H])c2C(F)(F)F)C1([H])[H]


 30 32  0  0  0  0  0  0  0  0999 V2000
   11.1068   22.2841    1.3356 N   0  0  0  0  0  0  0  0  0  0  0  0
   12.4472   22.7142    0.9997 C   0  0  0  0  0  0  0  0  0  0  0  0
   12.8037   21.6561   -0.0807 C   0  0  0  0  0  0  0  0  0  0  0  0
   12.3851   20.4269    0.6123 C   0  0  0  0  0  0  0  0  0  0  0  0
   11.1322   20.8594    1.3982 C   0  0  0  0  0  0  0  0  0  0  0  0
    9.0367   25.0093    2.6375 C   0  0  0  0  0  0  0  0  0  0  0  0
    7.8843   24.8447    1.9643 N   0  0  0  0  0  0  0  0  0  0  0  0
    7.7283   23.8443    1.0601 C   0  0  0  0  0  0  0  0  0  0  0  0
    8.8148   23.0144    0.8759 C   0  0  0  0  0  0  0  0  0  0  0  0
   10.0085   23.1585    1.5512 C   0  0  0  0  0  0  0  0  0  0  0  0
   10.0767   24.1805    2.4326 N   0  0  0  0  0  0  0  0  0  0  0  0
    9.2141   26.9625    4.3550 N   0  0  0  0  0  0  0  0  0  0  0  0
    9.1408   26.0851    3.5802 C   0  0  0  0  0  0  0  0  0  0  0  0
   11.1687   20.3231    2.7666 C   0  0  0  0  0  0  0  0  0  0  0  0
   12.1936   19.7450    3.1802 O   0  0  0  0  0  0  0  0  0  0  0  0
   10.0803   20.4520    3.6008 O   0  0  0  0  0  0  0  0  0  0  0  0
    9.6390   19.6706    4.0787 H   0  0  0  0  0  0  0  0  0  0  0  0
   14.5849   21.7670   -0.3777 S   0  0  0  0  0  0  0  0  0  0  0  0
   15.1676   22.0650    0.9725 O   0  0  0  0  0  0  0  0  0  0  0  0
   14.9495   20.4016   -0.8462 O   0  0  0  0  0  0  0  0  0  0  0  0
   14.9342   23.0482   -1.4893 C   0  0  0  0  0  0  0  0  0  0  0  0
   14.6937   22.8185   -2.8151 C   0  0  0  0  0  0  0  0  0  0  0  0
   14.9367   23.8186   -3.7312 C   0  0  0  0  0  0  0  0  0  0  0  0
   15.4151   25.0441   -3.3439 C   0  0  0  0  0  0  0  0  0  0  0  0
   15.6428   25.2348   -2.0046 C   0  0  0  0  0  0  0  0  0  0  0  0
   15.4134   24.2519   -1.0303 C   0  0  0  0  0  0  0  0  0  0  0  0
   15.6931   24.5622    0.3715 C   0  0  0  0  0  0  0  0  0  0  0  0
   16.6693   23.8008    0.9720 F   0  0  0  0  0  0  0  0  0  0  0  0
   14.5658   24.6846    1.1586 F   0  0  0  0  0  0  0  0  0  0  0  0
   16.2380   25.8575    0.4114 F   0  0  0  0  0  0  0  0  0  0  0  0
 12 13  3  0  0  0
 13  6  1  0  0  0
  6  7  2  0  0  0
  7  8  1  0  0  0
  8  9  2  0  0  0
  9 10  1  0  0  0
 10  1  1  0  0  0
  1  2  1  0  0  0
  2  3  1  0  0  0
  3 18  1  0  0  0
 18 19  2  0  0  0
 18 20  2  0  0  0
 18 21  1  0  0  0
 21 22  2  0  0  0
 22 23  1  0  0  0
 23 24  2  0  0  0
 24 25  1  0  0  0
 25 26  2  0  0  0
 26 27  1  0  0  0
 27 28  1  0  0  0
 27 29  1  0  0  0
 27 30  1  0  0  0
  3  4  1  0  0  0
  4  5  1  0  0  0
  5 14  1  0  0  0
 14 15  2  0  0  0
 14 16  1  0  0  0
 10 11  2  0  0  0
 11  6  1  0  0  0
  5  1  1  0  0  0
 26 21  1  0  0  0
 16 17  1  0  0  0
M  END
> <minimizedAffinity>
-7.09248

> <CNNscore>
0.3337202370

> <CNNaffinity>
6.5836105347

> <CNN_VS>
2.1970839500

> <CNNaffinity_variance>
0.3430022001

$$$$
[H]OC(=O)[C@@]1([H])N(c2nc(C#N)nc([H])c2[H])C([H])([H])[C@@]([H])(S(=O)(=O)c2c([H])c([H])c([H])c([H])c2C(F)(F)F)C1([H])[H]


 30 32  0  0  0  0  0  0  0  0999 V2000
   13.2335   23.3104   -0.7619 N   0  0  0  0  0  0  0  0  0  0  0  0
   14.3864   24.1771   -0.6430 C   0  0  0  0  0  0  0  0  0  0  0  0
   14.7886   24.2924   -2.1393 C   0  0  0  0  0  0  0  0  0  0  0  0
   14.7483   22.8735   -2.5286 C   0  0  0  0  0  0  0  0  0  0  0  0
   13.5671   22.3059   -1.7180 C   0  0  0  0  0  0  0  0  0  0  0  0
    9.9161   22.6763    0.6521 C   0  0  0  0  0  0  0  0  0  0  0  0
    9.6832   23.7968    1.3583 N   0  0  0  0  0  0  0  0  0  0  0  0
   10.5903   24.8054    1.4068 C   0  0  0  0  0  0  0  0  0  0  0  0
   11.7553   24.6122    0.6935 C   0  0  0  0  0  0  0  0  0  0  0  0
   12.0219   23.4747   -0.0392 C   0  0  0  0  0  0  0  0  0  0  0  0
   11.0641   22.5215   -0.0322 N   0  0  0  0  0  0  0  0  0  0  0  0
    8.0973   20.8086    0.6383 N   0  0  0  0  0  0  0  0  0  0  0  0
    8.9190   21.6456    0.6395 C   0  0  0  0  0  0  0  0  0  0  0  0
   13.9235   21.0101   -1.1219 C   0  0  0  0  0  0  0  0  0  0  0  0
   14.8467   20.9436   -0.2859 O   0  0  0  0  0  0  0  0  0  0  0  0
   13.2473   19.8639   -1.4770 O   0  0  0  0  0  0  0  0  0  0  0  0
   13.7037   19.0195   -1.8124 H   0  0  0  0  0  0  0  0  0  0  0  0
   16.4402   25.0285   -2.1990 S   0  0  0  0  0  0  0  0  0  0  0  0
   16.7350   25.3928   -0.7737 O   0  0  0  0  0  0  0  0  0  0  0  0
   17.3056   23.9136   -2.6733 O   0  0  0  0  0  0  0  0  0  0  0  0
   16.4372   26.4405   -3.2017 C   0  0  0  0  0  0  0  0  0  0  0  0
   17.1026   27.5431   -2.7436 C   0  0  0  0  0  0  0  0  0  0  0  0
   17.1441   28.6808   -3.5199 C   0  0  0  0  0  0  0  0  0  0  0  0
   16.5322   28.7340   -4.7460 C   0  0  0  0  0  0  0  0  0  0  0  0
   15.8756   27.6065   -5.1699 C   0  0  0  0  0  0  0  0  0  0  0  0
   15.8019   26.4230   -4.4205 C   0  0  0  0  0  0  0  0  0  0  0  0
   15.0725   25.2795   -4.9682 C   0  0  0  0  0  0  0  0  0  0  0  0
   13.8157   25.0650   -4.4508 F   0  0  0  0  0  0  0  0  0  0  0  0
   15.8148   24.1180   -5.0401 F   0  0  0  0  0  0  0  0  0  0  0  0
   14.8102   25.5608   -6.3204 F   0  0  0  0  0  0  0  0  0  0  0  0
 12 13  3  0  0  0
 13  6  1  0  0  0
  6  7  2  0  0  0
  7  8  1  0  0  0
  8  9  2  0  0  0
  9 10  1  0  0  0
 10  1  1  0  0  0
  1  2  1  0  0  0
  2  3  1  0  0  0
  3 18  1  0  0  0
 18 19  2  0  0  0
 18 20  2  0  0  0
 18 21  1  0  0  0
 21 22  2  0  0  0
 22 23  1  0  0  0
 23 24  2  0  0  0
 24 25  1  0  0  0
 25 26  2  0  0  0
 26 27  1  0  0  0
 27 28  1  0  0  0
 27 29  1  0  0  0
 27 30  1  0  0  0
  3  4  1  0  0  0
  4  5  1  0  0  0
  5 14  1  0  0  0
 14 15  2  0  0  0
 14 16  1  0  0  0
 10 11  2  0  0  0
 11  6  1  0  0  0
  5  1  1  0  0  0
 26 21  1  0  0  0
 16 17  1  0  0  0
M  END
> <minimizedAffinity>
-6.77288

> <CNNscore>
0.2677501142

> <CNNaffinity>
6.6883134842

> <CNN_VS>
1.7907967567

> <CNNaffinity_variance>
0.4949354529

$$$$
[H]OC(=O)[C@@]1([H])N(c2nc(C#N)nc([H])c2[H])C([H])([H])[C@@]([H])(S(=O)(=O)c2c([H])c([H])c([H])c([H])c2C(F)(F)F)C1([H])[H]


 30 32  0  0  0  0  0  0  0  0999 V2000
   13.0930   23.3079   -0.6730 N   0  0  0  0  0  0  0  0  0  0  0  0
   14.0064   24.4208   -0.8193 C   0  0  0  0  0  0  0  0  0  0  0  0
   14.4531   24.2072   -2.2920 C   0  0  0  0  0  0  0  0  0  0  0  0
   14.7628   22.7685   -2.2628 C   0  0  0  0  0  0  0  0  0  0  0  0
   13.7015   22.1859   -1.3096 C   0  0  0  0  0  0  0  0  0  0  0  0
    9.7298   22.4545    0.4963 C   0  0  0  0  0  0  0  0  0  0  0  0
    9.4158   23.5088    1.2697 N   0  0  0  0  0  0  0  0  0  0  0  0
   10.2795   24.5410    1.4455 C   0  0  0  0  0  0  0  0  0  0  0  0
   11.4884   24.4429    0.7881 C   0  0  0  0  0  0  0  0  0  0  0  0
   11.8382   23.3748   -0.0111 C   0  0  0  0  0  0  0  0  0  0  0  0
   10.9187   22.3918   -0.1305 N   0  0  0  0  0  0  0  0  0  0  0  0
    7.9948   20.5288    0.2164 N   0  0  0  0  0  0  0  0  0  0  0  0
    8.7751   21.3943    0.3492 C   0  0  0  0  0  0  0  0  0  0  0  0
   14.3138   21.2298   -0.3755 C   0  0  0  0  0  0  0  0  0  0  0  0
   14.9021   20.2216   -0.8150 O   0  0  0  0  0  0  0  0  0  0  0  0
   14.2455   21.4351    0.9848 O   0  0  0  0  0  0  0  0  0  0  0  0
   13.8913   20.7459    1.6431 H   0  0  0  0  0  0  0  0  0  0  0  0
   15.8911   25.2670   -2.5789 S   0  0  0  0  0  0  0  0  0  0  0  0
   15.8824   26.2238   -1.4232 O   0  0  0  0  0  0  0  0  0  0  0  0
   17.0423   24.3256   -2.5065 O   0  0  0  0  0  0  0  0  0  0  0  0
   15.7253   26.1187   -4.0776 C   0  0  0  0  0  0  0  0  0  0  0  0
   14.8196   25.6382   -4.9816 C   0  0  0  0  0  0  0  0  0  0  0  0
   14.6400   26.2984   -6.1776 C   0  0  0  0  0  0  0  0  0  0  0  0
   15.3501   27.4308   -6.4843 C   0  0  0  0  0  0  0  0  0  0  0  0
   16.2486   27.8811   -5.5504 C   0  0  0  0  0  0  0  0  0  0  0  0
   16.4710   27.2479   -4.3186 C   0  0  0  0  0  0  0  0  0  0  0  0
   17.4561   27.8134   -3.3968 C   0  0  0  0  0  0  0  0  0  0  0  0
   18.2219   26.9040   -2.7042 F   0  0  0  0  0  0  0  0  0  0  0  0
   16.9590   28.8093   -2.5805 F   0  0  0  0  0  0  0  0  0  0  0  0
   18.4082   28.4979   -4.1721 F   0  0  0  0  0  0  0  0  0  0  0  0
 12 13  3  0  0  0
 13  6  1  0  0  0
  6  7  2  0  0  0
  7  8  1  0  0  0
  8  9  2  0  0  0
  9 10  1  0  0  0
 10  1  1  0  0  0
  1  2  1  0  0  0
  2  3  1  0  0  0
  3 18  1  0  0  0
 18 19  2  0  0  0
 18 20  2  0  0  0
 18 21  1  0  0  0
 21 22  2  0  0  0
 22 23  1  0  0  0
 23 24  2  0  0  0
 24 25  1  0  0  0
 25 26  2  0  0  0
 26 27  1  0  0  0
 27 28  1  0  0  0
 27 29  1  0  0  0
 27 30  1  0  0  0
  3  4  1  0  0  0
  4  5  1  0  0  0
  5 14  1  0  0  0
 14 15  2  0  0  0
 14 16  1  0  0  0
 10 11  2  0  0  0
 11  6  1  0  0  0
  5  1  1  0  0  0
 26 21  1  0  0  0
 16 17  1  0  0  0
M  END
> <minimizedAffinity>
-7.76183

> <CNNscore>
0.2659727931

> <CNNaffinity>
6.7718596458

> <CNN_VS>
1.8011304140

> <CNNaffinity_variance>
0.6496816874

$$$$
[H]OC(=O)[C@@]1([H])N(c2nc(C#N)nc([H])c2[H])C([H])([H])[C@@]([H])(S(=O)(=O)c2c([H])c([H])c([H])c([H])c2C(F)(F)F)C1([H])[H]


 30 32  0  0  0  0  0  0  0  0999 V2000
   11.4855   22.0592    0.2368 N   0  0  0  0  0  0  0  0  0  0  0  0
   11.9400   23.4312    0.1628 C   0  0  0  0  0  0  0  0  0  0  0  0
   12.8809   23.3340   -1.0698 C   0  0  0  0  0  0  0  0  0  0  0  0
   13.6536   22.1334   -0.7121 C   0  0  0  0  0  0  0  0  0  0  0  0
   12.6221   21.2324   -0.0059 C   0  0  0  0  0  0  0  0  0  0  0  0
    8.3248   21.4442    1.9799 C   0  0  0  0  0  0  0  0  0  0  0  0
    7.5618   20.9029    1.0139 N   0  0  0  0  0  0  0  0  0  0  0  0
    8.0381   20.7139   -0.2430 C   0  0  0  0  0  0  0  0  0  0  0  0
    9.3412   21.1077   -0.4666 C   0  0  0  0  0  0  0  0  0  0  0  0
   10.1472   21.6653    0.5036 C   0  0  0  0  0  0  0  0  0  0  0  0
    9.5924   21.8171    1.7264 N   0  0  0  0  0  0  0  0  0  0  0  0
    7.3154   21.7528    4.3638 N   0  0  0  0  0  0  0  0  0  0  0  0
    7.7650   21.6186    3.2888 C   0  0  0  0  0  0  0  0  0  0  0  0
   13.1988   20.6395    1.2096 C   0  0  0  0  0  0  0  0  0  0  0  0
   12.4843   19.9487    1.9631 O   0  0  0  0  0  0  0  0  0  0  0  0
   14.5241   20.8386    1.5274 O   0  0  0  0  0  0  0  0  0  0  0  0
   14.8422   21.2007    2.4227 H   0  0  0  0  0  0  0  0  0  0  0  0
   13.8601   24.8545   -1.1225 S   0  0  0  0  0  0  0  0  0  0  0  0
   13.1556   25.7816   -0.1763 O   0  0  0  0  0  0  0  0  0  0  0  0
   15.1889   24.4359   -0.5971 O   0  0  0  0  0  0  0  0  0  0  0  0
   13.8718   25.5112   -2.7249 C   0  0  0  0  0  0  0  0  0  0  0  0
   13.0030   26.5306   -2.9972 C   0  0  0  0  0  0  0  0  0  0  0  0
   12.9949   27.0970   -4.2532 C   0  0  0  0  0  0  0  0  0  0  0  0
   13.8410   26.6617   -5.2408 C   0  0  0  0  0  0  0  0  0  0  0  0
   14.6979   25.6372   -4.9273 C   0  0  0  0  0  0  0  0  0  0  0  0
   14.7475   25.0249   -3.6662 C   0  0  0  0  0  0  0  0  0  0  0  0
   15.6999   23.9377   -3.4413 C   0  0  0  0  0  0  0  0  0  0  0  0
   15.1529   22.7175   -3.1173 F   0  0  0  0  0  0  0  0  0  0  0  0
   16.7562   24.2735   -2.6187 F   0  0  0  0  0  0  0  0  0  0  0  0
   16.3357   23.6796   -4.6683 F   0  0  0  0  0  0  0  0  0  0  0  0
 12 13  3  0  0  0
 13  6  1  0  0  0
  6  7  2  0  0  0
  7  8  1  0  0  0
  8  9  2  0  0  0
  9 10  1  0  0  0
 10  1  1  0  0  0
  1  2  1  0  0  0
  2  3  1  0  0  0
  3 18  1  0  0  0
 18 19  2  0  0  0
 18 20  2  0  0  0
 18 21  1  0  0  0
 21 22  2  0  0  0
 22 23  1  0  0  0
 23 24  2  0  0  0
 24 25  1  0  0  0
 25 26  2  0  0  0
 26 27  1  0  0  0
 27 28  1  0  0  0
 27 29  1  0  0  0
 27 30  1  0  0  0
  3  4  1  0  0  0
  4  5  1  0  0  0
  5 14  1  0  0  0
 14 15  2  0  0  0
 14 16  1  0  0  0
 10 11  2  0  0  0
 11  6  1  0  0  0
  5  1  1  0  0  0
 26 21  1  0  0  0
 16 17  1  0  0  0
M  END
> <minimizedAffinity>
-7.62956

> <CNNscore>
0.2308739871

> <CNNaffinity>
6.4944238663

> <CNN_VS>
1.4993935823

> <CNNaffinity_variance>
0.6115332842

$$$$
[H]c1c([H])c([H])c(C([H])([H])n2c([H])nc(-c3c([H])c([H])c(F)c([H])c3[H])c2-c2nn3c([H])c(N([H])C(=O)C(C([H])([H])[H])(C([H])([H])[H])C([H])([H])[H])nc3c([H])c2[H])c([H])c1[H]


 36 40  0  0  0  0  0  0  0  0999 V2000
   14.0211   21.9813   -0.3360 C   0  0  0  0  0  0  0  0  0  0  0  0
   12.9618   21.1486   -0.0455 C   0  0  0  0  0  0  0  0  0  0  0  0
   13.3697   20.3813    1.0078 N   0  0  0  0  0  0  0  0  0  0  0  0
   14.5967   20.6976    1.3652 C   0  0  0  0  0  0  0  0  0  0  0  0
   14.9943   21.6967    0.5207 N   0  0  0  0  0  0  0  0  0  0  0  0
   12.8663   26.7366   -3.6586 C   0  0  0  0  0  0  0  0  0  0  0  0
   12.5488   26.1603   -2.4498 C   0  0  0  0  0  0  0  0  0  0  0  0
   13.2314   24.9820   -2.3267 N   0  0  0  0  0  0  0  0  0  0  0  0
   13.2529   24.0890   -1.3607 N   0  0  0  0  0  0  0  0  0  0  0  0
   13.9946   22.9701   -1.4104 C   0  0  0  0  0  0  0  0  0  0  0  0
   14.7499   22.7958   -2.5462 C   0  0  0  0  0  0  0  0  0  0  0  0
   14.7427   23.7273   -3.5805 C   0  0  0  0  0  0  0  0  0  0  0  0
   13.9573   24.8347   -3.4411 C   0  0  0  0  0  0  0  0  0  0  0  0
   13.7379   25.8879   -4.2401 N   0  0  0  0  0  0  0  0  0  0  0  0
   12.2081   29.0913   -3.3489 C   0  0  0  0  0  0  0  0  0  0  0  0
   12.5018   28.9890   -2.1093 O   0  0  0  0  0  0  0  0  0  0  0  0
   12.3842   27.9538   -4.1759 N   0  0  0  0  0  0  0  0  0  0  0  0
   12.1497   28.0275   -5.1798 H   0  0  0  0  0  0  0  0  0  0  0  0
   11.4390   31.2430   -2.6053 C   0  0  0  0  0  0  0  0  0  0  0  0
   11.7088   30.3835   -3.8227 C   0  0  0  0  0  0  0  0  0  0  0  0
   12.7522   31.0647   -4.6557 C   0  0  0  0  0  0  0  0  0  0  0  0
   10.4012   30.2498   -4.5719 C   0  0  0  0  0  0  0  0  0  0  0  0
   11.6518   21.0055   -0.6491 C   0  0  0  0  0  0  0  0  0  0  0  0
   10.7843   20.0481   -0.1801 C   0  0  0  0  0  0  0  0  0  0  0  0
    9.5131   19.8765   -0.7242 C   0  0  0  0  0  0  0  0  0  0  0  0
    9.0905   20.6793   -1.7645 C   0  0  0  0  0  0  0  0  0  0  0  0
    7.8474   20.5091   -2.2943 F   0  0  0  0  0  0  0  0  0  0  0  0
    9.9521   21.6390   -2.2390 C   0  0  0  0  0  0  0  0  0  0  0  0
   11.2155   21.7956   -1.6844 C   0  0  0  0  0  0  0  0  0  0  0  0
   16.3010   22.3315    0.5830 C   0  0  0  0  0  0  0  0  0  0  0  0
   16.2460   23.7456    0.1737 C   0  0  0  0  0  0  0  0  0  0  0  0
   16.9463   24.2355   -0.8980 C   0  0  0  0  0  0  0  0  0  0  0  0
   16.9053   25.5450   -1.2958 C   0  0  0  0  0  0  0  0  0  0  0  0
   16.1140   26.4193   -0.5761 C   0  0  0  0  0  0  0  0  0  0  0  0
   15.3966   25.9521    0.5102 C   0  0  0  0  0  0  0  0  0  0  0  0
   15.4533   24.6382    0.8894 C   0  0  0  0  0  0  0  0  0  0  0  0
 19 20  1  0  0  0
 20 21  1  0  0  0
 20 22  1  0  0  0
 20 15  1  0  0  0
 15 16  2  0  0  0
 15 17  1  0  0  0
 17  6  1  0  0  0
  6  7  2  0  0  0
  7  8  1  0  0  0
  8  9  1  0  0  0
  9 10  2  0  0  0
 10  1  1  0  0  0
  1  2  2  0  0  0
  2 23  1  0  0  0
 23 24  2  0  0  0
 24 25  1  0  0  0
 25 26  2  0  0  0
 26 27  1  0  0  0
 26 28  1  0  0  0
 28 29  2  0  0  0
  2  3  1  0  0  0
  3  4  2  0  0  0
  4  5  1  0  0  0
  5 30  1  0  0  0
 30 31  1  0  0  0
 31 32  2  0  0  0
 32 33  1  0  0  0
 33 34  2  0  0  0
 34 35  1  0  0  0
 35 36  2  0  0  0
 10 11  1  0  0  0
 11 12  2  0  0  0
 12 13  1  0  0  0
 13 14  2  0  0  0
 14  6  1  0  0  0
 13  8  1  0  0  0
  5  1  1  0  0  0
 36 31  1  0  0  0
 29 23  1  0  0  0
 17 18  1  0  0  0
M  END
> <minimizedAffinity>
14.74235

> <CNNscore>
0.4960051775

> <CNNaffinity>
7.6042962074

> <CNN_VS>
3.7717702389

> <CNNaffinity_variance>
0.6660077572

$$$$
[H]c1c([H])c([H])c(C([H])([H])n2c([H])nc(-c3c([H])c([H])c(F)c([H])c3[H])c2-c2nn3c([H])c(N([H])C(=O)C(C([H])([H])[H])(C([H])([H])[H])C([H])([H])[H])nc3c([H])c2[H])c([H])c1[H]


 36 40  0  0  0  0  0  0  0  0999 V2000
   15.0801   24.9270   -3.4262 C   0  0  0  0  0  0  0  0  0  0  0  0
   15.1394   23.8934   -4.3361 C   0  0  0  0  0  0  0  0  0  0  0  0
   15.7596   24.4046   -5.4399 N   0  0  0  0  0  0  0  0  0  0  0  0
   16.0736   25.6693   -5.2523 C   0  0  0  0  0  0  0  0  0  0  0  0
   15.6454   25.9859   -3.9930 N   0  0  0  0  0  0  0  0  0  0  0  0
   11.2719   24.4109    1.0702 C   0  0  0  0  0  0  0  0  0  0  0  0
   11.3156   24.5295   -0.3003 C   0  0  0  0  0  0  0  0  0  0  0  0
   12.6216   24.6094   -0.6975 N   0  0  0  0  0  0  0  0  0  0  0  0
   13.1587   24.7311   -1.8924 N   0  0  0  0  0  0  0  0  0  0  0  0
   14.4844   24.7961   -2.0992 C   0  0  0  0  0  0  0  0  0  0  0  0
   15.2752   24.7280   -0.9763 C   0  0  0  0  0  0  0  0  0  0  0  0
   14.7287   24.5991    0.2974 C   0  0  0  0  0  0  0  0  0  0  0  0
   13.3698   24.5411    0.4097 C   0  0  0  0  0  0  0  0  0  0  0  0
   12.5594   24.4220    1.4702 N   0  0  0  0  0  0  0  0  0  0  0  0
    9.9419   23.2002    2.7552 C   0  0  0  0  0  0  0  0  0  0  0  0
   10.8496   22.3014    2.7960 O   0  0  0  0  0  0  0  0  0  0  0  0
   10.1260   24.2999    1.8804 N   0  0  0  0  0  0  0  0  0  0  0  0
    9.3973   25.0318    1.8411 H   0  0  0  0  0  0  0  0  0  0  0  0
    8.9387   23.9528    4.8049 C   0  0  0  0  0  0  0  0  0  0  0  0
    8.7740   23.0237    3.6204 C   0  0  0  0  0  0  0  0  0  0  0  0
    7.5265   23.4147    2.8876 C   0  0  0  0  0  0  0  0  0  0  0  0
    8.6776   21.6167    4.1682 C   0  0  0  0  0  0  0  0  0  0  0  0
   14.6767   22.5212   -4.2710 C   0  0  0  0  0  0  0  0  0  0  0  0
   14.6917   21.7407   -5.4022 C   0  0  0  0  0  0  0  0  0  0  0  0
   14.2624   20.4153   -5.3878 C   0  0  0  0  0  0  0  0  0  0  0  0
   13.8047   19.8478   -4.2156 C   0  0  0  0  0  0  0  0  0  0  0  0
   13.3856   18.5520   -4.2048 F   0  0  0  0  0  0  0  0  0  0  0  0
   13.7866   20.6217   -3.0802 C   0  0  0  0  0  0  0  0  0  0  0  0
   14.2184   21.9412   -3.1134 C   0  0  0  0  0  0  0  0  0  0  0  0
   15.8045   27.3018   -3.3953 C   0  0  0  0  0  0  0  0  0  0  0  0
   17.1784   27.8118   -3.5451 C   0  0  0  0  0  0  0  0  0  0  0  0
   17.4701   28.9724   -4.2136 C   0  0  0  0  0  0  0  0  0  0  0  0
   18.7394   29.4643   -4.3603 C   0  0  0  0  0  0  0  0  0  0  0  0
   19.7826   28.7500   -3.8031 C   0  0  0  0  0  0  0  0  0  0  0  0
   19.5170   27.5752   -3.1231 C   0  0  0  0  0  0  0  0  0  0  0  0
   18.2394   27.1029   -2.9893 C   0  0  0  0  0  0  0  0  0  0  0  0
 19 20  1  0  0  0
 20 21  1  0  0  0
 20 22  1  0  0  0
 20 15  1  0  0  0
 15 16  2  0  0  0
 15 17  1  0  0  0
 17  6  1  0  0  0
  6  7  2  0  0  0
  7  8  1  0  0  0
  8  9  1  0  0  0
  9 10  2  0  0  0
 10  1  1  0  0  0
  1  2  2  0  0  0
  2 23  1  0  0  0
 23 24  2  0  0  0
 24 25  1  0  0  0
 25 26  2  0  0  0
 26 27  1  0  0  0
 26 28  1  0  0  0
 28 29  2  0  0  0
  2  3  1  0  0  0
  3  4  2  0  0  0
  4  5  1  0  0  0
  5 30  1  0  0  0
 30 31  1  0  0  0
 31 32  2  0  0  0
 32 33  1  0  0  0
 33 34  2  0  0  0
 34 35  1  0  0  0
 35 36  2  0  0  0
 10 11  1  0  0  0
 11 12  2  0  0  0
 12 13  1  0  0  0
 13 14  2  0  0  0
 14  6  1  0  0  0
 13  8  1  0  0  0
  5  1  1  0  0  0
 36 31  1  0  0  0
 29 23  1  0  0  0
 17 18  1  0  0  0
M  END
> <minimizedAffinity>
13.14655

> <CNNscore>
0.4903733432

> <CNNaffinity>
7.6853818893

> <CNN_VS>
3.7687063217

> <CNNaffinity_variance>
0.9721953273

$$$$
[H]c1c([H])c([H])c(C([H])([H])n2c([H])nc(-c3c([H])c([H])c(F)c([H])c3[H])c2-c2nn3c([H])c(N([H])C(=O)C(C([H])([H])[H])(C([H])([H])[H])C([H])([H])[H])nc3c([H])c2[H])c([H])c1[H]


 36 40  0  0  0  0  0  0  0  0999 V2000
   15.6112   24.5786   -1.2251 C   0  0  0  0  0  0  0  0  0  0  0  0
   16.1502   25.1554   -2.3551 C   0  0  0  0  0  0  0  0  0  0  0  0
   17.4999   25.1836   -2.1507 N   0  0  0  0  0  0  0  0  0  0  0  0
   17.8033   24.6648   -0.9794 C   0  0  0  0  0  0  0  0  0  0  0  0
   16.6181   24.2905   -0.4096 N   0  0  0  0  0  0  0  0  0  0  0  0
   10.1209   24.4331    0.9706 C   0  0  0  0  0  0  0  0  0  0  0  0
   11.3981   24.8411    1.2810 C   0  0  0  0  0  0  0  0  0  0  0  0
   12.2273   24.5377    0.2369 N   0  0  0  0  0  0  0  0  0  0  0  0
   13.5181   24.7302    0.0704 N   0  0  0  0  0  0  0  0  0  0  0  0
   14.1791   24.3609   -1.0392 C   0  0  0  0  0  0  0  0  0  0  0  0
   13.4260   23.7569   -2.0184 C   0  0  0  0  0  0  0  0  0  0  0  0
   12.0593   23.5434   -1.8638 C   0  0  0  0  0  0  0  0  0  0  0  0
   11.4735   23.9524   -0.7010 C   0  0  0  0  0  0  0  0  0  0  0  0
   10.2096   23.8898   -0.2603 N   0  0  0  0  0  0  0  0  0  0  0  0
    8.9363   24.0815    3.1029 C   0  0  0  0  0  0  0  0  0  0  0  0
    9.9893   23.5311    3.5736 O   0  0  0  0  0  0  0  0  0  0  0  0
    8.9680   24.5583    1.7686 N   0  0  0  0  0  0  0  0  0  0  0  0
    8.1212   25.0053    1.3798 H   0  0  0  0  0  0  0  0  0  0  0  0
    6.9362   25.3497    3.5101 C   0  0  0  0  0  0  0  0  0  0  0  0
    7.7705   24.1778    3.9835 C   0  0  0  0  0  0  0  0  0  0  0  0
    6.9388   22.9357    3.8744 C   0  0  0  0  0  0  0  0  0  0  0  0
    8.1609   24.4598    5.4177 C   0  0  0  0  0  0  0  0  0  0  0  0
   15.5366   25.6721   -3.5624 C   0  0  0  0  0  0  0  0  0  0  0  0
   15.8813   25.1441   -4.7838 C   0  0  0  0  0  0  0  0  0  0  0  0
   15.3147   25.6037   -5.9708 C   0  0  0  0  0  0  0  0  0  0  0  0
   14.3781   26.6175   -5.9446 C   0  0  0  0  0  0  0  0  0  0  0  0
   13.8263   27.0647   -7.1067 F   0  0  0  0  0  0  0  0  0  0  0  0
   14.0283   27.1506   -4.7273 C   0  0  0  0  0  0  0  0  0  0  0  0
   14.6035   26.6799   -3.5543 C   0  0  0  0  0  0  0  0  0  0  0  0
   16.5154   23.6690    0.9009 C   0  0  0  0  0  0  0  0  0  0  0  0
   15.7073   22.4378    0.8644 C   0  0  0  0  0  0  0  0  0  0  0  0
   16.2093   21.2331    0.4452 C   0  0  0  0  0  0  0  0  0  0  0  0
   15.4754   20.0778    0.4075 C   0  0  0  0  0  0  0  0  0  0  0  0
   14.1562   20.1312    0.8147 C   0  0  0  0  0  0  0  0  0  0  0  0
   13.6236   21.3339    1.2424 C   0  0  0  0  0  0  0  0  0  0  0  0
   14.3768   22.4763    1.2714 C   0  0  0  0  0  0  0  0  0  0  0  0
 19 20  1  0  0  0
 20 21  1  0  0  0
 20 22  1  0  0  0
 20 15  1  0  0  0
 15 16  2  0  0  0
 15 17  1  0  0  0
 17  6  1  0  0  0
  6  7  2  0  0  0
  7  8  1  0  0  0
  8  9  1  0  0  0
  9 10  2  0  0  0
 10  1  1  0  0  0
  1  2  2  0  0  0
  2 23  1  0  0  0
 23 24  2  0  0  0
 24 25  1  0  0  0
 25 26  2  0  0  0
 26 27  1  0  0  0
 26 28  1  0  0  0
 28 29  2  0  0  0
  2  3  1  0  0  0
  3  4  2  0  0  0
  4  5  1  0  0  0
  5 30  1  0  0  0
 30 31  1  0  0  0
 31 32  2  0  0  0
 32 33  1  0  0  0
 33 34  2  0  0  0
 34 35  1  0  0  0
 35 36  2  0  0  0
 10 11  1  0  0  0
 11 12  2  0  0  0
 12 13  1  0  0  0
 13 14  2  0  0  0
 14  6  1  0  0  0
 13  8  1  0  0  0
  5  1  1  0  0  0
 36 31  1  0  0  0
 29 23  1  0  0  0
 17 18  1  0  0  0
M  END
> <minimizedAffinity>
-2.68418

> <CNNscore>
0.4578677118

> <CNNaffinity>
7.7032074928

> <CNN_VS>
3.5270500183

> <CNNaffinity_variance>
0.2226428986

$$$$
[H]c1c([H])c([H])c(C([H])([H])n2c([H])nc(-c3c([H])c([H])c(F)c([H])c3[H])c2-c2nn3c([H])c(N([H])C(=O)C(C([H])([H])[H])(C([H])([H])[H])C([H])([H])[H])nc3c([H])c2[H])c([H])c1[H]


 36 40  0  0  0  0  0  0  0  0999 V2000
   14.0903   23.2876   -1.2624 C   0  0  0  0  0  0  0  0  0  0  0  0
   13.1987   22.6133   -0.4560 C   0  0  0  0  0  0  0  0  0  0  0  0
   13.8476   21.4836   -0.0473 N   0  0  0  0  0  0  0  0  0  0  0  0
   15.0622   21.4369   -0.5531 C   0  0  0  0  0  0  0  0  0  0  0  0
   15.2039   22.5668   -1.3099 N   0  0  0  0  0  0  0  0  0  0  0  0
   11.4579   27.6471   -4.2710 C   0  0  0  0  0  0  0  0  0  0  0  0
   11.2679   26.3452   -3.8674 C   0  0  0  0  0  0  0  0  0  0  0  0
   12.3621   25.9365   -3.1565 N   0  0  0  0  0  0  0  0  0  0  0  0
   12.6402   24.7889   -2.5760 N   0  0  0  0  0  0  0  0  0  0  0  0
   13.7841   24.5603   -1.9100 C   0  0  0  0  0  0  0  0  0  0  0  0
   14.6745   25.6070   -1.8612 C   0  0  0  0  0  0  0  0  0  0  0  0
   14.4013   26.8297   -2.4679 C   0  0  0  0  0  0  0  0  0  0  0  0
   13.2121   26.9694   -3.1229 C   0  0  0  0  0  0  0  0  0  0  0  0
   12.6691   27.9957   -3.7918 N   0  0  0  0  0  0  0  0  0  0  0  0
    9.9091   29.5559   -4.4477 C   0  0  0  0  0  0  0  0  0  0  0  0
   10.1322   29.8244   -3.2183 O   0  0  0  0  0  0  0  0  0  0  0  0
   10.5743   28.4444   -5.0228 N   0  0  0  0  0  0  0  0  0  0  0  0
   10.4003   28.2201   -6.0165 H   0  0  0  0  0  0  0  0  0  0  0  0
    9.7605   31.6176   -5.6731 C   0  0  0  0  0  0  0  0  0  0  0  0
    8.9772   30.4222   -5.1722 C   0  0  0  0  0  0  0  0  0  0  0  0
    8.4175   29.6977   -6.3590 C   0  0  0  0  0  0  0  0  0  0  0  0
    7.8787   30.9528   -4.2775 C   0  0  0  0  0  0  0  0  0  0  0  0
   11.8392   22.9162   -0.0545 C   0  0  0  0  0  0  0  0  0  0  0  0
   11.5715   24.0784    0.6287 C   0  0  0  0  0  0  0  0  0  0  0  0
   10.2806   24.4154    1.0304 C   0  0  0  0  0  0  0  0  0  0  0  0
    9.2242   23.5738    0.7454 C   0  0  0  0  0  0  0  0  0  0  0  0
    7.9636   23.9060    1.1396 F   0  0  0  0  0  0  0  0  0  0  0  0
    9.4838   22.4099    0.0626 C   0  0  0  0  0  0  0  0  0  0  0  0
   10.7769   22.0903   -0.3299 C   0  0  0  0  0  0  0  0  0  0  0  0
   16.4141   22.8973   -2.0449 C   0  0  0  0  0  0  0  0  0  0  0  0
   16.1231   23.6669   -3.2669 C   0  0  0  0  0  0  0  0  0  0  0  0
   15.4009   23.1534   -4.3126 C   0  0  0  0  0  0  0  0  0  0  0  0
   15.1172   23.8538   -5.4544 C   0  0  0  0  0  0  0  0  0  0  0  0
   15.5856   25.1496   -5.5562 C   0  0  0  0  0  0  0  0  0  0  0  0
   16.3173   25.6931   -4.5159 C   0  0  0  0  0  0  0  0  0  0  0  0
   16.5886   24.9735   -3.3838 C   0  0  0  0  0  0  0  0  0  0  0  0
 19 20  1  0  0  0
 20 21  1  0  0  0
 20 22  1  0  0  0
 20 15  1  0  0  0
 15 16  2  0  0  0
 15 17  1  0  0  0
 17  6  1  0  0  0
  6  7  2  0  0  0
  7  8  1  0  0  0
  8  9  1  0  0  0
  9 10  2  0  0  0
 10  1  1  0  0  0
  1  2  2  0  0  0
  2 23  1  0  0  0
 23 24  2  0  0  0
 24 25  1  0  0  0
 25 26  2  0  0  0
 26 27  1  0  0  0
 26 28  1  0  0  0
 28 29  2  0  0  0
  2  3  1  0  0  0
  3  4  2  0  0  0
  4  5  1  0  0  0
  5 30  1  0  0  0
 30 31  1  0  0  0
 31 32  2  0  0  0
 32 33  1  0  0  0
 33 34  2  0  0  0
 34 35  1  0  0  0
 35 36  2  0  0  0
 10 11  1  0  0  0
 11 12  2  0  0  0
 12 13  1  0  0  0
 13 14  2  0  0  0
 14  6  1  0  0  0
 13  8  1  0  0  0
  5  1  1  0  0  0
 36 31  1  0  0  0
 29 23  1  0  0  0
 17 18  1  0  0  0
M  END
> <minimizedAffinity>
20.55525

> <CNNscore>
0.4323903024

> <CNNaffinity>
7.2830176353

> <CNN_VS>
3.1491062641

> <CNNaffinity_variance>
0.8249902725

$$$$
[H]c1c([H])c([H])c(C([H])([H])n2c([H])nc(-c3c([H])c([H])c(F)c([H])c3[H])c2-c2nn3c([H])c(N([H])C(=O)C(C([H])([H])[H])(C([H])([H])[H])C([H])([H])[H])nc3c([H])c2[H])c([H])c1[H]


 36 40  0  0  0  0  0  0  0  0999 V2000
   12.3122   21.5976    0.5737 C   0  0  0  0  0  0  0  0  0  0  0  0
   12.1817   20.5432   -0.3045 C   0  0  0  0  0  0  0  0  0  0  0  0
   11.3994   19.6231    0.3325 N   0  0  0  0  0  0  0  0  0  0  0  0
   11.0549   20.0542    1.5278 C   0  0  0  0  0  0  0  0  0  0  0  0
   11.6295   21.2869    1.6688 N   0  0  0  0  0  0  0  0  0  0  0  0
   14.9503   26.1214   -2.1761 C   0  0  0  0  0  0  0  0  0  0  0  0
   14.1698   25.0148   -2.4217 C   0  0  0  0  0  0  0  0  0  0  0  0
   13.9168   24.3784   -1.2382 N   0  0  0  0  0  0  0  0  0  0  0  0
   13.2265   23.2913   -0.9683 N   0  0  0  0  0  0  0  0  0  0  0  0
   13.0820   22.8020    0.2744 C   0  0  0  0  0  0  0  0  0  0  0  0
   13.7045   23.5070    1.2776 C   0  0  0  0  0  0  0  0  0  0  0  0
   14.4397   24.6595    1.0152 C   0  0  0  0  0  0  0  0  0  0  0  0
   14.5312   25.0812   -0.2795 C   0  0  0  0  0  0  0  0  0  0  0  0
   15.1513   26.1271   -0.8429 N   0  0  0  0  0  0  0  0  0  0  0  0
   16.8232   27.2399   -3.3230 C   0  0  0  0  0  0  0  0  0  0  0  0
   17.6382   26.5410   -2.6297 O   0  0  0  0  0  0  0  0  0  0  0  0
   15.4338   27.0498   -3.1174 N   0  0  0  0  0  0  0  0  0  0  0  0
   14.7673   27.6103   -3.6740 H   0  0  0  0  0  0  0  0  0  0  0  0
   16.8674   29.5654   -3.9265 C   0  0  0  0  0  0  0  0  0  0  0  0
   17.3906   28.1895   -4.2821 C   0  0  0  0  0  0  0  0  0  0  0  0
   18.8846   28.2107   -4.1633 C   0  0  0  0  0  0  0  0  0  0  0  0
   16.9511   27.8989   -5.7003 C   0  0  0  0  0  0  0  0  0  0  0  0
   12.7115   20.3236   -1.6358 C   0  0  0  0  0  0  0  0  0  0  0  0
   13.6844   21.1591   -2.1303 C   0  0  0  0  0  0  0  0  0  0  0  0
   14.2281   20.9847   -3.4013 C   0  0  0  0  0  0  0  0  0  0  0  0
   13.7931   19.9502   -4.2050 C   0  0  0  0  0  0  0  0  0  0  0  0
   14.3264   19.7825   -5.4470 F   0  0  0  0  0  0  0  0  0  0  0  0
   12.8206   19.1105   -3.7177 C   0  0  0  0  0  0  0  0  0  0  0  0
   12.2901   19.2996   -2.4484 C   0  0  0  0  0  0  0  0  0  0  0  0
   11.4898   22.1090    2.8600 C   0  0  0  0  0  0  0  0  0  0  0  0
   10.1919   22.8048    2.8994 C   0  0  0  0  0  0  0  0  0  0  0  0
    9.1016   22.3041    3.5623 C   0  0  0  0  0  0  0  0  0  0  0  0
    7.8887   22.9374    3.6133 C   0  0  0  0  0  0  0  0  0  0  0  0
    7.7585   24.1477    2.9598 C   0  0  0  0  0  0  0  0  0  0  0  0
    8.8426   24.6762    2.2828 C   0  0  0  0  0  0  0  0  0  0  0  0
   10.0457   24.0248    2.2456 C   0  0  0  0  0  0  0  0  0  0  0  0
 19 20  1  0  0  0
 20 21  1  0  0  0
 20 22  1  0  0  0
 20 15  1  0  0  0
 15 16  2  0  0  0
 15 17  1  0  0  0
 17  6  1  0  0  0
  6  7  2  0  0  0
  7  8  1  0  0  0
  8  9  1  0  0  0
  9 10  2  0  0  0
 10  1  1  0  0  0
  1  2  2  0  0  0
  2 23  1  0  0  0
 23 24  2  0  0  0
 24 25  1  0  0  0
 25 26  2  0  0  0
 26 27  1  0  0  0
 26 28  1  0  0  0
 28 29  2  0  0  0
  2  3  1  0  0  0
  3  4  2  0  0  0
  4  5  1  0  0  0
  5 30  1  0  0  0
 30 31  1  0  0  0
 31 32  2  0  0  0
 32 33  1  0  0  0
 33 34  2  0  0  0
 34 35  1  0  0  0
 35 36  2  0  0  0
 10 11  1  0  0  0
 11 12  2  0  0  0
 12 13  1  0  0  0
 13 14  2  0  0  0
 14  6  1  0  0  0
 13  8  1  0  0  0
  5  1  1  0  0  0
 36 31  1  0  0  0
 29 23  1  0  0  0
 17 18  1  0  0  0
M  END
> <minimizedAffinity>
13.68361

> <CNNscore>
0.4163605869

> <CNNaffinity>
7.4870352745

> <CNN_VS>
3.1173064709

> <CNNaffinity_variance>
1.1467022896

$$$$
[H]c1c([H])c([H])c(C([H])([H])n2c([H])nc(-c3c([H])c([H])c(F)c([H])c3[H])c2-c2nn3c([H])c(N([H])C(=O)C(C([H])([H])[H])(C([H])([H])[H])C([H])([H])[H])nc3c([H])c2[H])c([H])c1[H]


 36 40  0  0  0  0  0  0  0  0999 V2000
   12.8441   21.3792    0.3140 C   0  0  0  0  0  0  0  0  0  0  0  0
   12.6345   20.4021   -0.6354 C   0  0  0  0  0  0  0  0  0  0  0  0
   11.9203   19.4215   -0.0087 N   0  0  0  0  0  0  0  0  0  0  0  0
   11.6898   19.7449    1.2465 C   0  0  0  0  0  0  0  0  0  0  0  0
   12.2702   20.9679    1.4381 N   0  0  0  0  0  0  0  0  0  0  0  0
   15.1628   26.1707   -2.2651 C   0  0  0  0  0  0  0  0  0  0  0  0
   14.3583   25.0853   -2.5273 C   0  0  0  0  0  0  0  0  0  0  0  0
   14.2388   24.3360   -1.3897 N   0  0  0  0  0  0  0  0  0  0  0  0
   13.5818   23.2215   -1.1503 N   0  0  0  0  0  0  0  0  0  0  0  0
   13.5769   22.6141    0.0478 C   0  0  0  0  0  0  0  0  0  0  0  0
   14.3089   23.2256    1.0384 C   0  0  0  0  0  0  0  0  0  0  0  0
   15.0114   24.4049    0.8077 C   0  0  0  0  0  0  0  0  0  0  0  0
   14.9578   24.9496   -0.4425 C   0  0  0  0  0  0  0  0  0  0  0  0
   15.5120   26.0505   -0.9683 N   0  0  0  0  0  0  0  0  0  0  0  0
   16.8797   27.3342   -3.5963 C   0  0  0  0  0  0  0  0  0  0  0  0
   17.7509   26.5092   -3.1560 O   0  0  0  0  0  0  0  0  0  0  0  0
   15.5388   27.1895   -3.1607 N   0  0  0  0  0  0  0  0  0  0  0  0
   14.8275   27.8519   -3.5120 H   0  0  0  0  0  0  0  0  0  0  0  0
   18.1942   29.3409   -3.7354 C   0  0  0  0  0  0  0  0  0  0  0  0
   17.3366   28.3721   -4.5224 C   0  0  0  0  0  0  0  0  0  0  0  0
   18.1832   27.7646   -5.5997 C   0  0  0  0  0  0  0  0  0  0  0  0
   16.1862   29.1655   -5.1022 C   0  0  0  0  0  0  0  0  0  0  0  0
   13.0357   20.3033   -2.0248 C   0  0  0  0  0  0  0  0  0  0  0  0
   14.0634   21.0847   -2.4964 C   0  0  0  0  0  0  0  0  0  0  0  0
   14.4882   21.0210   -3.8218 C   0  0  0  0  0  0  0  0  0  0  0  0
   13.8746   20.1559   -4.7053 C   0  0  0  0  0  0  0  0  0  0  0  0
   14.2920   20.0961   -6.0004 F   0  0  0  0  0  0  0  0  0  0  0  0
   12.8462   19.3713   -4.2415 C   0  0  0  0  0  0  0  0  0  0  0  0
   12.4361   19.4483   -2.9169 C   0  0  0  0  0  0  0  0  0  0  0  0
   12.2416   21.6836    2.7034 C   0  0  0  0  0  0  0  0  0  0  0  0
   11.0394   21.3606    3.4913 C   0  0  0  0  0  0  0  0  0  0  0  0
    9.8402   21.9994    3.3105 C   0  0  0  0  0  0  0  0  0  0  0  0
    8.7116   21.7110    4.0301 C   0  0  0  0  0  0  0  0  0  0  0  0
    8.7876   20.7213    4.9910 C   0  0  0  0  0  0  0  0  0  0  0  0
    9.9854   20.0604    5.1947 C   0  0  0  0  0  0  0  0  0  0  0  0
   11.1010   20.3660    4.4631 C   0  0  0  0  0  0  0  0  0  0  0  0
 19 20  1  0  0  0
 20 21  1  0  0  0
 20 22  1  0  0  0
 20 15  1  0  0  0
 15 16  2  0  0  0
 15 17  1  0  0  0
 17  6  1  0  0  0
  6  7  2  0  0  0
  7  8  1  0  0  0
  8  9  1  0  0  0
  9 10  2  0  0  0
 10  1  1  0  0  0
  1  2  2  0  0  0
  2 23  1  0  0  0
 23 24  2  0  0  0
 24 25  1  0  0  0
 25 26  2  0  0  0
 26 27  1  0  0  0
 26 28  1  0  0  0
 28 29  2  0  0  0
  2  3  1  0  0  0
  3  4  2  0  0  0
  4  5  1  0  0  0
  5 30  1  0  0  0
 30 31  1  0  0  0
 31 32  2  0  0  0
 32 33  1  0  0  0
 33 34  2  0  0  0
 34 35  1  0  0  0
 35 36  2  0  0  0
 10 11  1  0  0  0
 11 12  2  0  0  0
 12 13  1  0  0  0
 13 14  2  0  0  0
 14  6  1  0  0  0
 13  8  1  0  0  0
  5  1  1  0  0  0
 36 31  1  0  0  0
 29 23  1  0  0  0
 17 18  1  0  0  0
M  END
> <minimizedAffinity>
17.47761

> <CNNscore>
0.3960977793

> <CNNaffinity>
7.2948288918

> <CNN_VS>
2.8894655704

> <CNNaffinity_variance>
0.5988262892

$$$$
[H]c1c([H])c([H])c(C([H])([H])n2c([H])nc(-c3c([H])c([H])c(F)c([H])c3[H])c2-c2nn3c([H])c(N([H])C(=O)C(C([H])([H])[H])(C([H])([H])[H])C([H])([H])[H])nc3c([H])c2[H])c([H])c1[H]


 36 40  0  0  0  0  0  0  0  0999 V2000
   15.1833   24.0583   -2.8912 C   0  0  0  0  0  0  0  0  0  0  0  0
   15.4293   23.0857   -3.8365 C   0  0  0  0  0  0  0  0  0  0  0  0
   16.6207   23.4204   -4.4134 N   0  0  0  0  0  0  0  0  0  0  0  0
   17.1019   24.5233   -3.8792 C   0  0  0  0  0  0  0  0  0  0  0  0
   16.1977   24.9135   -2.9306 N   0  0  0  0  0  0  0  0  0  0  0  0
   11.3334   23.1772    1.5119 C   0  0  0  0  0  0  0  0  0  0  0  0
   12.6143   22.8638    1.1180 C   0  0  0  0  0  0  0  0  0  0  0  0
   12.8610   23.4462   -0.0943 N   0  0  0  0  0  0  0  0  0  0  0  0
   13.9296   23.4321   -0.8618 N   0  0  0  0  0  0  0  0  0  0  0  0
   13.9955   24.0709   -2.0416 C   0  0  0  0  0  0  0  0  0  0  0  0
   12.8663   24.7579   -2.4209 C   0  0  0  0  0  0  0  0  0  0  0  0
   11.7247   24.7865   -1.6248 C   0  0  0  0  0  0  0  0  0  0  0  0
   11.7505   24.1072   -0.4414 C   0  0  0  0  0  0  0  0  0  0  0  0
   10.8341   23.9454    0.5228 N   0  0  0  0  0  0  0  0  0  0  0  0
   10.0826   21.5032    2.8186 C   0  0  0  0  0  0  0  0  0  0  0  0
   10.1438   20.7080    1.8199 O   0  0  0  0  0  0  0  0  0  0  0  0
   10.6844   22.7805    2.6965 N   0  0  0  0  0  0  0  0  0  0  0  0
   10.6402   23.4301    3.4993 H   0  0  0  0  0  0  0  0  0  0  0  0
    9.3742   22.1719    5.0152 C   0  0  0  0  0  0  0  0  0  0  0  0
    9.3908   21.0310    4.0195 C   0  0  0  0  0  0  0  0  0  0  0  0
    7.9725   20.6753    3.6904 C   0  0  0  0  0  0  0  0  0  0  0  0
   10.1139   19.8764    4.6773 C   0  0  0  0  0  0  0  0  0  0  0  0
   14.6721   21.9174   -4.2400 C   0  0  0  0  0  0  0  0  0  0  0  0
   14.7671   21.4539   -5.5305 C   0  0  0  0  0  0  0  0  0  0  0  0
   14.0633   20.3320   -5.9634 C   0  0  0  0  0  0  0  0  0  0  0  0
   13.2409   19.6499   -5.0893 C   0  0  0  0  0  0  0  0  0  0  0  0
   12.5542   18.5537   -5.5155 F   0  0  0  0  0  0  0  0  0  0  0  0
   13.1406   20.1072   -3.7972 C   0  0  0  0  0  0  0  0  0  0  0  0
   13.8496   21.2272   -3.3834 C   0  0  0  0  0  0  0  0  0  0  0  0
   16.3587   26.0988   -2.1039 C   0  0  0  0  0  0  0  0  0  0  0  0
   16.0542   25.8279   -0.6883 C   0  0  0  0  0  0  0  0  0  0  0  0
   16.7575   24.9214    0.0617 C   0  0  0  0  0  0  0  0  0  0  0  0
   16.4919   24.6586    1.3789 C   0  0  0  0  0  0  0  0  0  0  0  0
   15.4574   25.3461    1.9839 C   0  0  0  0  0  0  0  0  0  0  0  0
   14.7308   26.2667    1.2507 C   0  0  0  0  0  0  0  0  0  0  0  0
   15.0147   26.5128   -0.0654 C   0  0  0  0  0  0  0  0  0  0  0  0
 19 20  1  0  0  0
 20 21  1  0  0  0
 20 22  1  0  0  0
 20 15  1  0  0  0
 15 16  2  0  0  0
 15 17  1  0  0  0
 17  6  1  0  0  0
  6  7  2  0  0  0
  7  8  1  0  0  0
  8  9  1  0  0  0
  9 10  2  0  0  0
 10  1  1  0  0  0
  1  2  2  0  0  0
  2 23  1  0  0  0
 23 24  2  0  0  0
 24 25  1  0  0  0
 25 26  2  0  0  0
 26 27  1  0  0  0
 26 28  1  0  0  0
 28 29  2  0  0  0
  2  3  1  0  0  0
  3  4  2  0  0  0
  4  5  1  0  0  0
  5 30  1  0  0  0
 30 31  1  0  0  0
 31 32  2  0  0  0
 32 33  1  0  0  0
 33 34  2  0  0  0
 34 35  1  0  0  0
 35 36  2  0  0  0
 10 11  1  0  0  0
 11 12  2  0  0  0
 12 13  1  0  0  0
 13 14  2  0  0  0
 14  6  1  0  0  0
 13  8  1  0  0  0
  5  1  1  0  0  0
 36 31  1  0  0  0
 29 23  1  0  0  0
 17 18  1  0  0  0
M  END
> <minimizedAffinity>
17.81763

> <CNNscore>
0.3715123236

> <CNNaffinity>
7.5169916153

> <CNN_VS>
2.7926549911

> <CNNaffinity_variance>
2.1858098507

$$$$
[H]c1c([H])c([H])c(C([H])([H])n2c([H])nc(-c3c([H])c([H])c(F)c([H])c3[H])c2-c2nn3c([H])c(N([H])C(=O)C(C([H])([H])[H])(C([H])([H])[H])C([H])([H])[H])nc3c([H])c2[H])c([H])c1[H]


 36 40  0  0  0  0  0  0  0  0999 V2000
   11.7994   21.9779    0.5991 C   0  0  0  0  0  0  0  0  0  0  0  0
   12.9466   21.5550    1.2356 C   0  0  0  0  0  0  0  0  0  0  0  0
   12.5610   20.5372    2.0600 N   0  0  0  0  0  0  0  0  0  0  0  0
   11.2657   20.3239    1.9601 C   0  0  0  0  0  0  0  0  0  0  0  0
   10.7997   21.2279    1.0463 N   0  0  0  0  0  0  0  0  0  0  0  0
   13.3333   26.1141   -3.3411 C   0  0  0  0  0  0  0  0  0  0  0  0
   13.8729   25.1429   -2.5288 C   0  0  0  0  0  0  0  0  0  0  0  0
   12.8633   24.5266   -1.8428 N   0  0  0  0  0  0  0  0  0  0  0  0
   12.8839   23.5511   -0.9602 N   0  0  0  0  0  0  0  0  0  0  0  0
   11.7761   23.0635   -0.3775 C   0  0  0  0  0  0  0  0  0  0  0  0
   10.5887   23.6453   -0.7551 C   0  0  0  0  0  0  0  0  0  0  0  0
   10.5432   24.6783   -1.6870 C   0  0  0  0  0  0  0  0  0  0  0  0
   11.7208   25.1084   -2.2261 C   0  0  0  0  0  0  0  0  0  0  0  0
   12.0034   26.0609   -3.1252 N   0  0  0  0  0  0  0  0  0  0  0  0
   15.4220   26.8619   -4.4143 C   0  0  0  0  0  0  0  0  0  0  0  0
   16.0504   25.9454   -3.7830 O   0  0  0  0  0  0  0  0  0  0  0  0
   14.0239   26.9773   -4.2127 N   0  0  0  0  0  0  0  0  0  0  0  0
   13.5075   27.7153   -4.7194 H   0  0  0  0  0  0  0  0  0  0  0  0
   15.4989   29.0694   -5.3604 C   0  0  0  0  0  0  0  0  0  0  0  0
   16.1994   27.7280   -5.3027 C   0  0  0  0  0  0  0  0  0  0  0  0
   17.5733   27.9402   -4.7423 C   0  0  0  0  0  0  0  0  0  0  0  0
   16.2537   27.1929   -6.7168 C   0  0  0  0  0  0  0  0  0  0  0  0
   14.3211   22.0074    1.1509 C   0  0  0  0  0  0  0  0  0  0  0  0
   14.5919   23.3478    1.0128 C   0  0  0  0  0  0  0  0  0  0  0  0
   15.8963   23.8309    0.9329 C   0  0  0  0  0  0  0  0  0  0  0  0
   16.9636   22.9575    0.9920 C   0  0  0  0  0  0  0  0  0  0  0  0
   18.2375   23.4328    0.9134 F   0  0  0  0  0  0  0  0  0  0  0  0
   16.7011   21.6157    1.1300 C   0  0  0  0  0  0  0  0  0  0  0  0
   15.3944   21.1522    1.2080 C   0  0  0  0  0  0  0  0  0  0  0  0
    9.4048   21.3233    0.6470 C   0  0  0  0  0  0  0  0  0  0  0  0
    8.5800   21.9741    1.6796 C   0  0  0  0  0  0  0  0  0  0  0  0
    8.4950   23.3358    1.8118 C   0  0  0  0  0  0  0  0  0  0  0  0
    7.7316   23.9590    2.7624 C   0  0  0  0  0  0  0  0  0  0  0  0
    7.0077   23.1702    3.6355 C   0  0  0  0  0  0  0  0  0  0  0  0
    7.0750   21.7931    3.5250 C   0  0  0  0  0  0  0  0  0  0  0  0
    7.8454   21.1924    2.5665 C   0  0  0  0  0  0  0  0  0  0  0  0
 19 20  1  0  0  0
 20 21  1  0  0  0
 20 22  1  0  0  0
 20 15  1  0  0  0
 15 16  2  0  0  0
 15 17  1  0  0  0
 17  6  1  0  0  0
  6  7  2  0  0  0
  7  8  1  0  0  0
  8  9  1  0  0  0
  9 10  2  0  0  0
 10  1  1  0  0  0
  1  2  2  0  0  0
  2 23  1  0  0  0
 23 24  2  0  0  0
 24 25  1  0  0  0
 25 26  2  0  0  0
 26 27  1  0  0  0
 26 28  1  0  0  0
 28 29  2  0  0  0
  2  3  1  0  0  0
  3  4  2  0  0  0
  4  5  1  0  0  0
  5 30  1  0  0  0
 30 31  1  0  0  0
 31 32  2  0  0  0
 32 33  1  0  0  0
 33 34  2  0  0  0
 34 35  1  0  0  0
 35 36  2  0  0  0
 10 11  1  0  0  0
 11 12  2  0  0  0
 12 13  1  0  0  0
 13 14  2  0  0  0
 14  6  1  0  0  0
 13  8  1  0  0  0
  5  1  1  0  0  0
 36 31  1  0  0  0
 29 23  1  0  0  0
 17 18  1  0  0  0
M  END
> <minimizedAffinity>
-2.12819

> <CNNscore>
0.3379267454

> <CNNaffinity>
7.5014486313

> <CNN_VS>
2.5349400043

> <CNNaffinity_variance>
0.5720741153

$$$$
[H]c1c([H])c([H])c(C([H])([H])n2c([H])nc(-c3c([H])c([H])c(F)c([H])c3[H])c2-c2nn3c([H])c(N([H])C(=O)C(C([H])([H])[H])(C([H])([H])[H])C([H])([H])[H])nc3c([H])c2[H])c([H])c1[H]


 36 40  0  0  0  0  0  0  0  0999 V2000
   14.8291   22.9916   -2.8623 C   0  0  0  0  0  0  0  0  0  0  0  0
   16.1675   23.1064   -3.1713 C   0  0  0  0  0  0  0  0  0  0  0  0
   16.4189   22.1389   -4.1014 N   0  0  0  0  0  0  0  0  0  0  0  0
   15.3256   21.4559   -4.3684 C   0  0  0  0  0  0  0  0  0  0  0  0
   14.3393   21.9954   -3.5901 N   0  0  0  0  0  0  0  0  0  0  0  0
   10.8061   25.5000    0.6746 C   0  0  0  0  0  0  0  0  0  0  0  0
   10.9544   24.4866   -0.2447 C   0  0  0  0  0  0  0  0  0  0  0  0
   12.2453   24.4814   -0.6955 N   0  0  0  0  0  0  0  0  0  0  0  0
   12.8558   23.7095   -1.5687 N   0  0  0  0  0  0  0  0  0  0  0  0
   14.1509   23.8513   -1.8960 C   0  0  0  0  0  0  0  0  0  0  0  0
   14.8271   24.8662   -1.2606 C   0  0  0  0  0  0  0  0  0  0  0  0
   14.2015   25.6947   -0.3334 C   0  0  0  0  0  0  0  0  0  0  0  0
   12.8817   25.4750   -0.0645 C   0  0  0  0  0  0  0  0  0  0  0  0
   12.0176   26.0860    0.7576 N   0  0  0  0  0  0  0  0  0  0  0  0
    9.2092   25.1119    2.5112 C   0  0  0  0  0  0  0  0  0  0  0  0
    9.9144   24.1141    2.8861 O   0  0  0  0  0  0  0  0  0  0  0  0
    9.6381   25.8484    1.3788 N   0  0  0  0  0  0  0  0  0  0  0  0
    9.0742   26.6572    1.0687 H   0  0  0  0  0  0  0  0  0  0  0  0
    7.2209   24.1327    3.4397 C   0  0  0  0  0  0  0  0  0  0  0  0
    8.0047   25.4193    3.2847 C   0  0  0  0  0  0  0  0  0  0  0  0
    8.3807   25.9068    4.6512 C   0  0  0  0  0  0  0  0  0  0  0  0
    7.1054   26.4053    2.5719 C   0  0  0  0  0  0  0  0  0  0  0  0
   17.1977   24.0028   -2.6851 C   0  0  0  0  0  0  0  0  0  0  0  0
   17.6624   25.0121   -3.4940 C   0  0  0  0  0  0  0  0  0  0  0  0
   18.6472   25.9016   -3.0692 C   0  0  0  0  0  0  0  0  0  0  0  0
   19.1864   25.7857   -1.8038 C   0  0  0  0  0  0  0  0  0  0  0  0
   20.1489   26.6566   -1.3915 F   0  0  0  0  0  0  0  0  0  0  0  0
   18.7270   24.7790   -0.9890 C   0  0  0  0  0  0  0  0  0  0  0  0
   17.7449   23.9016   -1.4294 C   0  0  0  0  0  0  0  0  0  0  0  0
   12.9649   21.5207   -3.5879 C   0  0  0  0  0  0  0  0  0  0  0  0
   12.6101   20.8680   -2.3157 C   0  0  0  0  0  0  0  0  0  0  0  0
   11.4825   21.1899   -1.6060 C   0  0  0  0  0  0  0  0  0  0  0  0
   11.1342   20.5924   -0.4243 C   0  0  0  0  0  0  0  0  0  0  0  0
   11.9665   19.6112    0.0790 C   0  0  0  0  0  0  0  0  0  0  0  0
   13.1112   19.2665   -0.6166 C   0  0  0  0  0  0  0  0  0  0  0  0
   13.4391   19.8778   -1.7963 C   0  0  0  0  0  0  0  0  0  0  0  0
 19 20  1  0  0  0
 20 21  1  0  0  0
 20 22  1  0  0  0
 20 15  1  0  0  0
 15 16  2  0  0  0
 15 17  1  0  0  0
 17  6  1  0  0  0
  6  7  2  0  0  0
  7  8  1  0  0  0
  8  9  1  0  0  0
  9 10  2  0  0  0
 10  1  1  0  0  0
  1  2  2  0  0  0
  2 23  1  0  0  0
 23 24  2  0  0  0
 24 25  1  0  0  0
 25 26  2  0  0  0
 26 27  1  0  0  0
 26 28  1  0  0  0
 28 29  2  0  0  0
  2  3  1  0  0  0
  3  4  2  0  0  0
  4  5  1  0  0  0
  5 30  1  0  0  0
 30 31  1  0  0  0
 31 32  2  0  0  0
 32 33  1  0  0  0
 33 34  2  0  0  0
 34 35  1  0  0  0
 35 36  2  0  0  0
 10 11  1  0  0  0
 11 12  2  0  0  0
 12 13  1  0  0  0
 13 14  2  0  0  0
 14  6  1  0  0  0
 13  8  1  0  0  0
  5  1  1  0  0  0
 36 31  1  0  0  0
 29 23  1  0  0  0
 17 18  1  0  0  0
M  END
> <minimizedAffinity>
40.64585

> <CNNscore>
0.3348319530

> <CNNaffinity>
7.0828180313

> <CNN_VS>
2.3715538979

> <CNNaffinity_variance>
1.4091088772

$$$$
[H]c1nc(N([H])[H])c(OC([H])([H])C([H])([H])[H])c(N2C([H])([H])C([H])([H])N(C([H])(c3c([H])c([H])c(C(F)(F)F)c([H])c3[H])C([H])([H])N([H])[H])C([H])([H])C2([H])[H])n1


 33 35  0  0  0  0  0  0  0  0999 V2000
   14.6353   24.7639   -2.1132 N   0  0  0  0  0  0  0  0  0  0  0  0
   13.2573   25.1970   -2.1742 C   0  0  0  0  0  0  0  0  0  0  0  0
   13.3123   26.4545   -3.0076 C   0  0  0  0  0  0  0  0  0  0  0  0
   13.3211   26.0639   -4.4415 N   0  0  0  0  0  0  0  0  0  0  0  0
   14.2323   24.9183   -4.5194 C   0  0  0  0  0  0  0  0  0  0  0  0
   15.2842   24.9034   -3.4672 C   0  0  0  0  0  0  0  0  0  0  0  0
   15.2148   23.1651   -0.2743 C   0  0  0  0  0  0  0  0  0  0  0  0
   16.0655   22.8653    0.8118 C   0  0  0  0  0  0  0  0  0  0  0  0
   15.8349   21.7272    1.6190 N   0  0  0  0  0  0  0  0  0  0  0  0
   17.0923   23.6552    1.0831 N   0  0  0  0  0  0  0  0  0  0  0  0
   17.3013   24.7365    0.3034 C   0  0  0  0  0  0  0  0  0  0  0  0
   16.4978   25.0228   -0.7203 N   0  0  0  0  0  0  0  0  0  0  0  0
   15.3996   24.2443   -1.0649 C   0  0  0  0  0  0  0  0  0  0  0  0
   16.6567   21.1195    1.8810 H   0  0  0  0  0  0  0  0  0  0  0  0
   14.8784   21.4611    1.9792 H   0  0  0  0  0  0  0  0  0  0  0  0
   14.1828   22.2572   -0.4541 O   0  0  0  0  0  0  0  0  0  0  0  0
   13.1704   20.1931   -1.1186 C   0  0  0  0  0  0  0  0  0  0  0  0
   14.3334   21.1391   -1.3169 C   0  0  0  0  0  0  0  0  0  0  0  0
   13.9017   27.1534   -5.2013 C   0  0  0  0  0  0  0  0  0  0  0  0
   15.2583   27.4962   -4.7424 C   0  0  0  0  0  0  0  0  0  0  0  0
   16.1247   28.1152   -5.6236 C   0  0  0  0  0  0  0  0  0  0  0  0
   17.4479   28.3621   -5.2857 C   0  0  0  0  0  0  0  0  0  0  0  0
   17.9291   27.9847   -4.0517 C   0  0  0  0  0  0  0  0  0  0  0  0
   17.0955   27.3712   -3.1482 C   0  0  0  0  0  0  0  0  0  0  0  0
   15.7695   27.1440   -3.5278 C   0  0  0  0  0  0  0  0  0  0  0  0
   19.3583   28.1949   -3.7144 C   0  0  0  0  0  0  0  0  0  0  0  0
   20.1055   27.6446   -4.7808 F   0  0  0  0  0  0  0  0  0  0  0  0
   19.7547   27.5356   -2.5769 F   0  0  0  0  0  0  0  0  0  0  0  0
   19.6870   29.5295   -3.6948 F   0  0  0  0  0  0  0  0  0  0  0  0
   14.0964   26.6258   -6.6404 C   0  0  0  0  0  0  0  0  0  0  0  0
   15.3056   25.9052   -6.8231 N   0  0  0  0  0  0  0  0  0  0  0  0
   16.0519   26.4885   -7.2184 H   0  0  0  0  0  0  0  0  0  0  0  0
   15.1884   24.9756   -7.2402 H   0  0  0  0  0  0  0  0  0  0  0  0
 17 18  1  0  0  0
 18 16  1  0  0  0
 16  7  1  0  0  0
  7  8  2  0  0  0
  8  9  1  0  0  0
  8 10  1  0  0  0
 10 11  2  0  0  0
 11 12  1  0  0  0
 12 13  2  0  0  0
 13  1  1  0  0  0
  1  2  1  0  0  0
  2  3  1  0  0  0
  3  4  1  0  0  0
  4 19  1  0  0  0
 19 30  1  0  0  0
 30 31  1  0  0  0
 19 20  1  0  0  0
 20 21  2  0  0  0
 21 22  1  0  0  0
 22 23  2  0  0  0
 23 26  1  0  0  0
 26 27  1  0  0  0
 26 28  1  0  0  0
 26 29  1  0  0  0
 23 24  1  0  0  0
 24 25  2  0  0  0
  4  5  1  0  0  0
  5  6  1  0  0  0
 13  7  1  0  0  0
  6  1  1  0  0  0
 25 20  1  0  0  0
  9 14  1  0  0  0
  9 15  1  0  0  0
 31 32  1  0  0  0
 31 33  1  0  0  0
M  END
> <minimizedAffinity>
0.83369

> <CNNscore>
0.4686116576

> <CNNaffinity>
7.3875885010

> <CNN_VS>
3.4619100094

> <CNNaffinity_variance>
0.3754617274

$$$$
[H]c1nc(N([H])[H])c(OC([H])([H])C([H])([H])[H])c(N2C([H])([H])C([H])([H])N(C([H])(c3c([H])c([H])c(C(F)(F)F)c([H])c3[H])C([H])([H])N([H])[H])C([H])([H])C2([H])[H])n1


 33 35  0  0  0  0  0  0  0  0999 V2000
   13.4449   22.9607   -1.2063 N   0  0  0  0  0  0  0  0  0  0  0  0
   12.4104   23.2607   -2.1707 C   0  0  0  0  0  0  0  0  0  0  0  0
   12.4036   24.7691   -2.2330 C   0  0  0  0  0  0  0  0  0  0  0  0
   13.4828   25.2026   -3.1584 N   0  0  0  0  0  0  0  0  0  0  0  0
   14.6262   24.3420   -2.8411 C   0  0  0  0  0  0  0  0  0  0  0  0
   14.6443   23.8446   -1.4389 C   0  0  0  0  0  0  0  0  0  0  0  0
   12.6743   21.7660    0.8558 C   0  0  0  0  0  0  0  0  0  0  0  0
   12.9759   20.8226    1.8620 C   0  0  0  0  0  0  0  0  0  0  0  0
   12.0771   20.5901    2.9288 N   0  0  0  0  0  0  0  0  0  0  0  0
   14.1118   20.1452    1.8120 N   0  0  0  0  0  0  0  0  0  0  0  0
   14.9590   20.3760    0.7873 C   0  0  0  0  0  0  0  0  0  0  0  0
   14.6776   21.2681   -0.1616 N   0  0  0  0  0  0  0  0  0  0  0  0
   13.5084   22.0190   -0.1757 C   0  0  0  0  0  0  0  0  0  0  0  0
   11.8781   19.5936    3.2129 H   0  0  0  0  0  0  0  0  0  0  0  0
   11.6012   21.3686    3.4607 H   0  0  0  0  0  0  0  0  0  0  0  0
   11.4536   22.4016    1.0215 O   0  0  0  0  0  0  0  0  0  0  0  0
   10.4543   20.5851   -0.1738 C   0  0  0  0  0  0  0  0  0  0  0  0
   10.3246   22.0331    0.2425 C   0  0  0  0  0  0  0  0  0  0  0  0
   13.8403   26.5673   -2.8250 C   0  0  0  0  0  0  0  0  0  0  0  0
   15.2202   26.8974   -3.2190 C   0  0  0  0  0  0  0  0  0  0  0  0
   16.2421   26.6859   -2.3128 C   0  0  0  0  0  0  0  0  0  0  0  0
   17.5447   27.0798   -2.5847 C   0  0  0  0  0  0  0  0  0  0  0  0
   17.8454   27.7018   -3.7761 C   0  0  0  0  0  0  0  0  0  0  0  0
   16.8559   27.9245   -4.7029 C   0  0  0  0  0  0  0  0  0  0  0  0
   15.5582   27.5094   -4.3903 C   0  0  0  0  0  0  0  0  0  0  0  0
   19.2258   28.1761   -4.0401 C   0  0  0  0  0  0  0  0  0  0  0  0
   19.9910   27.8321   -2.9022 F   0  0  0  0  0  0  0  0  0  0  0  0
   19.3192   29.5392   -4.1776 F   0  0  0  0  0  0  0  0  0  0  0  0
   19.8076   27.4973   -5.0844 F   0  0  0  0  0  0  0  0  0  0  0  0
   12.9533   27.4772   -3.7040 C   0  0  0  0  0  0  0  0  0  0  0  0
   12.8406   27.0345   -5.0479 N   0  0  0  0  0  0  0  0  0  0  0  0
   13.4964   27.5155   -5.6739 H   0  0  0  0  0  0  0  0  0  0  0  0
   11.8768   26.9417   -5.3863 H   0  0  0  0  0  0  0  0  0  0  0  0
 17 18  1  0  0  0
 18 16  1  0  0  0
 16  7  1  0  0  0
  7  8  2  0  0  0
  8  9  1  0  0  0
  8 10  1  0  0  0
 10 11  2  0  0  0
 11 12  1  0  0  0
 12 13  2  0  0  0
 13  1  1  0  0  0
  1  2  1  0  0  0
  2  3  1  0  0  0
  3  4  1  0  0  0
  4 19  1  0  0  0
 19 30  1  0  0  0
 30 31  1  0  0  0
 19 20  1  0  0  0
 20 21  2  0  0  0
 21 22  1  0  0  0
 22 23  2  0  0  0
 23 26  1  0  0  0
 26 27  1  0  0  0
 26 28  1  0  0  0
 26 29  1  0  0  0
 23 24  1  0  0  0
 24 25  2  0  0  0
  4  5  1  0  0  0
  5  6  1  0  0  0
 13  7  1  0  0  0
  6  1  1  0  0  0
 25 20  1  0  0  0
  9 14  1  0  0  0
  9 15  1  0  0  0
 31 32  1  0  0  0
 31 33  1  0  0  0
M  END
> <minimizedAffinity>
-0.26897

> <CNNscore>
0.4420870841

> <CNNaffinity>
7.2243461609

> <CNN_VS>
3.1937901974

> <CNNaffinity_variance>
0.9002407789

$$$$
[H]c1nc(N([H])[H])c(OC([H])([H])C([H])([H])[H])c(N2C([H])([H])C([H])([H])N(C([H])(c3c([H])c([H])c(C(F)(F)F)c([H])c3[H])C([H])([H])N([H])[H])C([H])([H])C2([H])[H])n1


 33 35  0  0  0  0  0  0  0  0999 V2000
   15.2671   23.2684   -1.5480 N   0  0  0  0  0  0  0  0  0  0  0  0
   15.2802   23.0312   -2.9742 C   0  0  0  0  0  0  0  0  0  0  0  0
   14.0277   23.7170   -3.4640 C   0  0  0  0  0  0  0  0  0  0  0  0
   14.3246   25.1631   -3.6361 N   0  0  0  0  0  0  0  0  0  0  0  0
   15.1259   25.5302   -2.4648 C   0  0  0  0  0  0  0  0  0  0  0  0
   14.8662   24.6937   -1.2620 C   0  0  0  0  0  0  0  0  0  0  0  0
   15.0208   21.2846   -0.0389 C   0  0  0  0  0  0  0  0  0  0  0  0
   15.4216   20.6460    1.1547 C   0  0  0  0  0  0  0  0  0  0  0  0
   14.8120   19.4394    1.5698 N   0  0  0  0  0  0  0  0  0  0  0  0
   16.3783   21.1783    1.8985 N   0  0  0  0  0  0  0  0  0  0  0  0
   16.9524   22.3289    1.4892 C   0  0  0  0  0  0  0  0  0  0  0  0
   16.5735   22.9347    0.3646 N   0  0  0  0  0  0  0  0  0  0  0  0
   15.5757   22.4394   -0.4662 C   0  0  0  0  0  0  0  0  0  0  0  0
   15.4274   18.6580    1.9219 H   0  0  0  0  0  0  0  0  0  0  0  0
   13.7671   19.2864    1.5516 H   0  0  0  0  0  0  0  0  0  0  0  0
   14.0159   20.6225   -0.7268 O   0  0  0  0  0  0  0  0  0  0  0  0
   11.7067   20.5120   -0.1083 C   0  0  0  0  0  0  0  0  0  0  0  0
   12.7491   21.2298   -0.9359 C   0  0  0  0  0  0  0  0  0  0  0  0
   13.0724   25.8905   -3.5709 C   0  0  0  0  0  0  0  0  0  0  0  0
   12.2879   25.5496   -2.3723 C   0  0  0  0  0  0  0  0  0  0  0  0
   12.6813   26.0594   -1.1494 C   0  0  0  0  0  0  0  0  0  0  0  0
   12.0499   25.6856    0.0286 C   0  0  0  0  0  0  0  0  0  0  0  0
   11.0095   24.7837    0.0001 C   0  0  0  0  0  0  0  0  0  0  0  0
   10.5881   24.2595   -1.1980 C   0  0  0  0  0  0  0  0  0  0  0  0
   11.2496   24.6650   -2.3608 C   0  0  0  0  0  0  0  0  0  0  0  0
   10.3751   24.3395    1.2653 C   0  0  0  0  0  0  0  0  0  0  0  0
    9.0802   23.8857    0.9251 F   0  0  0  0  0  0  0  0  0  0  0  0
   10.2084   25.3513    2.1785 F   0  0  0  0  0  0  0  0  0  0  0  0
   11.0124   23.2444    1.7985 F   0  0  0  0  0  0  0  0  0  0  0  0
   13.4424   27.3793   -3.3868 C   0  0  0  0  0  0  0  0  0  0  0  0
   14.3849   27.8526   -4.3368 N   0  0  0  0  0  0  0  0  0  0  0  0
   15.3447   27.8420   -3.9734 H   0  0  0  0  0  0  0  0  0  0  0  0
   14.0982   28.7026   -4.8340 H   0  0  0  0  0  0  0  0  0  0  0  0
 17 18  1  0  0  0
 18 16  1  0  0  0
 16  7  1  0  0  0
  7  8  2  0  0  0
  8  9  1  0  0  0
  8 10  1  0  0  0
 10 11  2  0  0  0
 11 12  1  0  0  0
 12 13  2  0  0  0
 13  1  1  0  0  0
  1  2  1  0  0  0
  2  3  1  0  0  0
  3  4  1  0  0  0
  4 19  1  0  0  0
 19 30  1  0  0  0
 30 31  1  0  0  0
 19 20  1  0  0  0
 20 21  2  0  0  0
 21 22  1  0  0  0
 22 23  2  0  0  0
 23 26  1  0  0  0
 26 27  1  0  0  0
 26 28  1  0  0  0
 26 29  1  0  0  0
 23 24  1  0  0  0
 24 25  2  0  0  0
  4  5  1  0  0  0
  5  6  1  0  0  0
 13  7  1  0  0  0
  6  1  1  0  0  0
 25 20  1  0  0  0
  9 14  1  0  0  0
  9 15  1  0  0  0
 31 32  1  0  0  0
 31 33  1  0  0  0
M  END
> <minimizedAffinity>
2.64498

> <CNNscore>
0.3707528412

> <CNNaffinity>
7.1675033569

> <CNN_VS>
2.6573722363

> <CNNaffinity_variance>
0.6577142477

$$$$
[H]c1nc(N([H])[H])c(OC([H])([H])C([H])([H])[H])c(N2C([H])([H])C([H])([H])N(C([H])(c3c([H])c([H])c(C(F)(F)F)c([H])c3[H])C([H])([H])N([H])[H])C([H])([H])C2([H])[H])n1


 33 35  0  0  0  0  0  0  0  0999 V2000
   14.4962   24.6141   -3.1524 N   0  0  0  0  0  0  0  0  0  0  0  0
   14.6135   23.1799   -3.2924 C   0  0  0  0  0  0  0  0  0  0  0  0
   14.6246   22.6796   -1.8681 C   0  0  0  0  0  0  0  0  0  0  0  0
   13.2186   22.5840   -1.3961 N   0  0  0  0  0  0  0  0  0  0  0  0
   12.5651   23.7974   -1.8954 C   0  0  0  0  0  0  0  0  0  0  0  0
   13.4852   24.9511   -2.0855 C   0  0  0  0  0  0  0  0  0  0  0  0
   16.0584   26.5513   -3.4359 C   0  0  0  0  0  0  0  0  0  0  0  0
   16.4860   27.6198   -4.2538 C   0  0  0  0  0  0  0  0  0  0  0  0
   17.4715   28.5276   -3.8018 N   0  0  0  0  0  0  0  0  0  0  0  0
   15.9614   27.7792   -5.4585 N   0  0  0  0  0  0  0  0  0  0  0  0
   15.0232   26.9043   -5.8773 C   0  0  0  0  0  0  0  0  0  0  0  0
   14.6163   25.8971   -5.1058 N   0  0  0  0  0  0  0  0  0  0  0  0
   15.1170   25.6668   -3.8301 C   0  0  0  0  0  0  0  0  0  0  0  0
   18.2461   28.8023   -4.4636 H   0  0  0  0  0  0  0  0  0  0  0  0
   17.4643   28.9505   -2.8340 H   0  0  0  0  0  0  0  0  0  0  0  0
   16.6893   26.4929   -2.2030 O   0  0  0  0  0  0  0  0  0  0  0  0
   16.5807   25.0760   -0.2774 C   0  0  0  0  0  0  0  0  0  0  0  0
   17.1419   25.2567   -1.6700 C   0  0  0  0  0  0  0  0  0  0  0  0
   13.2253   22.6397    0.0524 C   0  0  0  0  0  0  0  0  0  0  0  0
   11.8813   22.8640    0.6109 C   0  0  0  0  0  0  0  0  0  0  0  0
   11.5187   24.1442    0.9847 C   0  0  0  0  0  0  0  0  0  0  0  0
   10.3104   24.3993    1.6180 C   0  0  0  0  0  0  0  0  0  0  0  0
    9.4420   23.3667    1.8937 C   0  0  0  0  0  0  0  0  0  0  0  0
    9.7670   22.0815    1.5325 C   0  0  0  0  0  0  0  0  0  0  0  0
   10.9922   21.8691    0.8941 C   0  0  0  0  0  0  0  0  0  0  0  0
    8.1784   23.6321    2.6240 C   0  0  0  0  0  0  0  0  0  0  0  0
    8.5064   23.6432    3.9990 F   0  0  0  0  0  0  0  0  0  0  0  0
    7.2321   22.6515    2.4547 F   0  0  0  0  0  0  0  0  0  0  0  0
    7.6908   24.8899    2.3595 F   0  0  0  0  0  0  0  0  0  0  0  0
   13.6223   21.2287    0.5409 C   0  0  0  0  0  0  0  0  0  0  0  0
   14.8067   21.2102    1.3230 N   0  0  0  0  0  0  0  0  0  0  0  0
   15.6359   20.9643    0.7704 H   0  0  0  0  0  0  0  0  0  0  0  0
   14.7109   20.7404    2.2297 H   0  0  0  0  0  0  0  0  0  0  0  0
 17 18  1  0  0  0
 18 16  1  0  0  0
 16  7  1  0  0  0
  7  8  2  0  0  0
  8  9  1  0  0  0
  8 10  1  0  0  0
 10 11  2  0  0  0
 11 12  1  0  0  0
 12 13  2  0  0  0
 13  1  1  0  0  0
  1  2  1  0  0  0
  2  3  1  0  0  0
  3  4  1  0  0  0
  4 19  1  0  0  0
 19 30  1  0  0  0
 30 31  1  0  0  0
 19 20  1  0  0  0
 20 21  2  0  0  0
 21 22  1  0  0  0
 22 23  2  0  0  0
 23 26  1  0  0  0
 26 27  1  0  0  0
 26 28  1  0  0  0
 26 29  1  0  0  0
 23 24  1  0  0  0
 24 25  2  0  0  0
  4  5  1  0  0  0
  5  6  1  0  0  0
 13  7  1  0  0  0
  6  1  1  0  0  0
 25 20  1  0  0  0
  9 14  1  0  0  0
  9 15  1  0  0  0
 31 32  1  0  0  0
 31 33  1  0  0  0
M  END
> <minimizedAffinity>
-7.63563

> <CNNscore>
0.3551501930

> <CNNaffinity>
7.4465436935

> <CNN_VS>
2.6446413994

> <CNNaffinity_variance>
0.1634220779

$$$$
[H]c1nc(N([H])[H])c(OC([H])([H])C([H])([H])[H])c(N2C([H])([H])C([H])([H])N(C([H])(c3c([H])c([H])c(C(F)(F)F)c([H])c3[H])C([H])([H])N([H])[H])C([H])([H])C2([H])[H])n1


 33 35  0  0  0  0  0  0  0  0999 V2000
   14.5308   24.5810   -3.1758 N   0  0  0  0  0  0  0  0  0  0  0  0
   14.6286   23.1486   -3.3460 C   0  0  0  0  0  0  0  0  0  0  0  0
   14.6759   22.6211   -1.9323 C   0  0  0  0  0  0  0  0  0  0  0  0
   13.2833   22.5308   -1.4212 N   0  0  0  0  0  0  0  0  0  0  0  0
   12.6285   23.7600   -1.8783 C   0  0  0  0  0  0  0  0  0  0  0  0
   13.5549   24.9078   -2.0736 C   0  0  0  0  0  0  0  0  0  0  0  0
   16.0666   26.5403   -3.4514 C   0  0  0  0  0  0  0  0  0  0  0  0
   16.4866   27.6116   -4.2693 C   0  0  0  0  0  0  0  0  0  0  0  0
   17.4537   28.5361   -3.8110 N   0  0  0  0  0  0  0  0  0  0  0  0
   15.9724   27.7581   -5.4801 N   0  0  0  0  0  0  0  0  0  0  0  0
   15.0519   26.8675   -5.9049 C   0  0  0  0  0  0  0  0  0  0  0  0
   14.6521   25.8574   -5.1333 N   0  0  0  0  0  0  0  0  0  0  0  0
   15.1428   25.6401   -3.8515 C   0  0  0  0  0  0  0  0  0  0  0  0
   18.2309   28.8197   -4.4659 H   0  0  0  0  0  0  0  0  0  0  0  0
   17.4299   28.9628   -2.8452 H   0  0  0  0  0  0  0  0  0  0  0  0
   16.6853   26.4966   -2.2117 O   0  0  0  0  0  0  0  0  0  0  0  0
   16.5788   25.0741   -0.2902 C   0  0  0  0  0  0  0  0  0  0  0  0
   17.1591   25.2709   -1.6727 C   0  0  0  0  0  0  0  0  0  0  0  0
   13.3327   22.5589    0.0273 C   0  0  0  0  0  0  0  0  0  0  0  0
   11.9916   22.5268    0.6346 C   0  0  0  0  0  0  0  0  0  0  0  0
   11.2362   21.3746    0.5247 C   0  0  0  0  0  0  0  0  0  0  0  0
    9.9258   21.3212    0.9786 C   0  0  0  0  0  0  0  0  0  0  0  0
    9.3452   22.4320    1.5494 C   0  0  0  0  0  0  0  0  0  0  0  0
   10.0674   23.5936    1.6794 C   0  0  0  0  0  0  0  0  0  0  0  0
   11.3847   23.6034    1.2118 C   0  0  0  0  0  0  0  0  0  0  0  0
    7.9261   22.3918    1.9792 C   0  0  0  0  0  0  0  0  0  0  0  0
    7.1538   22.2938    0.7992 F   0  0  0  0  0  0  0  0  0  0  0  0
    7.5164   23.5341    2.6219 F   0  0  0  0  0  0  0  0  0  0  0  0
    7.6411   21.2517    2.6923 F   0  0  0  0  0  0  0  0  0  0  0  0
   13.9937   21.2332    0.4665 C   0  0  0  0  0  0  0  0  0  0  0  0
   15.1230   21.4123    1.3075 N   0  0  0  0  0  0  0  0  0  0  0  0
   16.0071   21.3744    0.7876 H   0  0  0  0  0  0  0  0  0  0  0  0
   15.0898   20.8806    2.1840 H   0  0  0  0  0  0  0  0  0  0  0  0
 17 18  1  0  0  0
 18 16  1  0  0  0
 16  7  1  0  0  0
  7  8  2  0  0  0
  8  9  1  0  0  0
  8 10  1  0  0  0
 10 11  2  0  0  0
 11 12  1  0  0  0
 12 13  2  0  0  0
 13  1  1  0  0  0
  1  2  1  0  0  0
  2  3  1  0  0  0
  3  4  1  0  0  0
  4 19  1  0  0  0
 19 30  1  0  0  0
 30 31  1  0  0  0
 19 20  1  0  0  0
 20 21  2  0  0  0
 21 22  1  0  0  0
 22 23  2  0  0  0
 23 26  1  0  0  0
 26 27  1  0  0  0
 26 28  1  0  0  0
 26 29  1  0  0  0
 23 24  1  0  0  0
 24 25  2  0  0  0
  4  5  1  0  0  0
  5  6  1  0  0  0
 13  7  1  0  0  0
  6  1  1  0  0  0
 25 20  1  0  0  0
  9 14  1  0  0  0
  9 15  1  0  0  0
 31 32  1  0  0  0
 31 33  1  0  0  0
M  END
> <minimizedAffinity>
-7.42389

> <CNNscore>
0.2990748286

> <CNNaffinity>
7.3674340248

> <CNN_VS>
2.2034139633

> <CNNaffinity_variance>
0.1760036647

$$$$
[H]c1nc(N([H])[H])c(OC([H])([H])C([H])([H])[H])c(N2C([H])([H])C([H])([H])N(C([H])(c3c([H])c([H])c(C(F)(F)F)c([H])c3[H])C([H])([H])N([H])[H])C([H])([H])C2([H])[H])n1


 33 35  0  0  0  0  0  0  0  0999 V2000
   14.9212   24.8922   -2.8860 N   0  0  0  0  0  0  0  0  0  0  0  0
   14.9854   23.5252   -3.3524 C   0  0  0  0  0  0  0  0  0  0  0  0
   14.8601   22.7082   -2.0891 C   0  0  0  0  0  0  0  0  0  0  0  0
   13.4179   22.5931   -1.7490 N   0  0  0  0  0  0  0  0  0  0  0  0
   12.8612   23.9274   -1.9906 C   0  0  0  0  0  0  0  0  0  0  0  0
   13.8439   25.0344   -1.8404 C   0  0  0  0  0  0  0  0  0  0  0  0
   15.4600   26.9187   -4.2558 C   0  0  0  0  0  0  0  0  0  0  0  0
   16.3728   27.9630   -4.5197 C   0  0  0  0  0  0  0  0  0  0  0  0
   16.1497   28.8675   -5.5835 N   0  0  0  0  0  0  0  0  0  0  0  0
   17.4522   28.1017   -3.7663 N   0  0  0  0  0  0  0  0  0  0  0  0
   17.6513   27.2324   -2.7536 C   0  0  0  0  0  0  0  0  0  0  0  0
   16.7926   26.2444   -2.5048 N   0  0  0  0  0  0  0  0  0  0  0  0
   15.6405   26.0329   -3.2525 C   0  0  0  0  0  0  0  0  0  0  0  0
   16.2989   29.8975   -5.4099 H   0  0  0  0  0  0  0  0  0  0  0  0
   15.8482   28.5593   -6.5477 H   0  0  0  0  0  0  0  0  0  0  0  0
   14.3706   26.8875   -5.1123 O   0  0  0  0  0  0  0  0  0  0  0  0
   15.4671   25.4792   -6.7064 C   0  0  0  0  0  0  0  0  0  0  0  0
   14.5393   26.6560   -6.5034 C   0  0  0  0  0  0  0  0  0  0  0  0
   13.3109   22.3106   -0.3312 C   0  0  0  0  0  0  0  0  0  0  0  0
   11.9336   21.9812    0.0723 C   0  0  0  0  0  0  0  0  0  0  0  0
   11.2477   21.0066   -0.6276 C   0  0  0  0  0  0  0  0  0  0  0  0
    9.9129   20.7308   -0.3664 C   0  0  0  0  0  0  0  0  0  0  0  0
    9.2375   21.4366    0.6043 C   0  0  0  0  0  0  0  0  0  0  0  0
    9.8883   22.4097    1.3235 C   0  0  0  0  0  0  0  0  0  0  0  0
   11.2332   22.6535    1.0305 C   0  0  0  0  0  0  0  0  0  0  0  0
    7.7953   21.1824    0.8411 C   0  0  0  0  0  0  0  0  0  0  0  0
    7.1027   22.3031    0.3285 F   0  0  0  0  0  0  0  0  0  0  0  0
    7.4666   21.0935    2.1715 F   0  0  0  0  0  0  0  0  0  0  0  0
    7.3392   20.1113    0.1101 F   0  0  0  0  0  0  0  0  0  0  0  0
   14.1128   21.0133   -0.0838 C   0  0  0  0  0  0  0  0  0  0  0  0
   14.6307   20.9076    1.2336 N   0  0  0  0  0  0  0  0  0  0  0  0
   15.6094   21.2108    1.2940 H   0  0  0  0  0  0  0  0  0  0  0  0
   14.3974   20.0319    1.7139 H   0  0  0  0  0  0  0  0  0  0  0  0
 17 18  1  0  0  0
 18 16  1  0  0  0
 16  7  1  0  0  0
  7  8  2  0  0  0
  8  9  1  0  0  0
  8 10  1  0  0  0
 10 11  2  0  0  0
 11 12  1  0  0  0
 12 13  2  0  0  0
 13  1  1  0  0  0
  1  2  1  0  0  0
  2  3  1  0  0  0
  3  4  1  0  0  0
  4 19  1  0  0  0
 19 30  1  0  0  0
 30 31  1  0  0  0
 19 20  1  0  0  0
 20 21  2  0  0  0
 21 22  1  0  0  0
 22 23  2  0  0  0
 23 26  1  0  0  0
 26 27  1  0  0  0
 26 28  1  0  0  0
 26 29  1  0  0  0
 23 24  1  0  0  0
 24 25  2  0  0  0
  4  5  1  0  0  0
  5  6  1  0  0  0
 13  7  1  0  0  0
  6  1  1  0  0  0
 25 20  1  0  0  0
  9 14  1  0  0  0
  9 15  1  0  0  0
 31 32  1  0  0  0
 31 33  1  0  0  0
M  END
> <minimizedAffinity>
-7.79786

> <CNNscore>
0.2381297499

> <CNNaffinity>
7.0691957474

> <CNN_VS>
1.6833858490

> <CNNaffinity_variance>
0.1623136103

$$$$
[H]c1nc(N([H])[H])c(OC([H])([H])C([H])([H])[H])c(N2C([H])([H])C([H])([H])N(C([H])(c3c([H])c([H])c(C(F)(F)F)c([H])c3[H])C([H])([H])N([H])[H])C([H])([H])C2([H])[H])n1


 33 35  0  0  0  0  0  0  0  0999 V2000
   12.7740   22.9051   -1.1361 N   0  0  0  0  0  0  0  0  0  0  0  0
   14.2124   22.7891   -1.2244 C   0  0  0  0  0  0  0  0  0  0  0  0
   14.5237   23.2409   -2.6308 C   0  0  0  0  0  0  0  0  0  0  0  0
   14.5775   24.7261   -2.6426 N   0  0  0  0  0  0  0  0  0  0  0  0
   13.4485   25.1554   -1.8121 C   0  0  0  0  0  0  0  0  0  0  0  0
   12.3160   24.1910   -1.7770 C   0  0  0  0  0  0  0  0  0  0  0  0
   10.7105   22.3547    0.1725 C   0  0  0  0  0  0  0  0  0  0  0  0
    9.9092   21.3488    0.7552 C   0  0  0  0  0  0  0  0  0  0  0  0
    8.7685   21.6851    1.5205 N   0  0  0  0  0  0  0  0  0  0  0  0
   10.2245   20.0744    0.5871 N   0  0  0  0  0  0  0  0  0  0  0  0
   11.3145   19.7683   -0.1470 C   0  0  0  0  0  0  0  0  0  0  0  0
   12.0737   20.7162   -0.6952 N   0  0  0  0  0  0  0  0  0  0  0  0
   11.8092   22.0737   -0.5608 C   0  0  0  0  0  0  0  0  0  0  0  0
    7.8766   21.1443    1.3613 H   0  0  0  0  0  0  0  0  0  0  0  0
    8.7697   22.4480    2.2509 H   0  0  0  0  0  0  0  0  0  0  0  0
   10.2689   23.6454    0.4187 O   0  0  0  0  0  0  0  0  0  0  0  0
    9.7979   24.7168    2.5061 C   0  0  0  0  0  0  0  0  0  0  0  0
   10.8443   24.4314    1.4523 C   0  0  0  0  0  0  0  0  0  0  0  0
   14.3344   25.1745   -3.9995 C   0  0  0  0  0  0  0  0  0  0  0  0
   13.7275   26.5153   -4.0465 C   0  0  0  0  0  0  0  0  0  0  0  0
   14.5490   27.6234   -3.9612 C   0  0  0  0  0  0  0  0  0  0  0  0
   14.0282   28.9077   -3.8884 C   0  0  0  0  0  0  0  0  0  0  0  0
   12.6649   29.1031   -3.8946 C   0  0  0  0  0  0  0  0  0  0  0  0
   11.8174   28.0253   -3.9829 C   0  0  0  0  0  0  0  0  0  0  0  0
   12.3837   26.7494   -4.0573 C   0  0  0  0  0  0  0  0  0  0  0  0
   12.1088   30.4713   -3.7563 C   0  0  0  0  0  0  0  0  0  0  0  0
   10.7950   30.4230   -4.2761 F   0  0  0  0  0  0  0  0  0  0  0  0
   12.7860   31.4140   -4.4900 F   0  0  0  0  0  0  0  0  0  0  0  0
   11.9618   30.8315   -2.4378 F   0  0  0  0  0  0  0  0  0  0  0  0
   15.7222   25.3491   -4.6559 C   0  0  0  0  0  0  0  0  0  0  0  0
   15.6834   25.3545   -6.0748 N   0  0  0  0  0  0  0  0  0  0  0  0
   15.9026   24.4352   -6.4750 H   0  0  0  0  0  0  0  0  0  0  0  0
   16.1454   26.1599   -6.5103 H   0  0  0  0  0  0  0  0  0  0  0  0
 17 18  1  0  0  0
 18 16  1  0  0  0
 16  7  1  0  0  0
  7  8  2  0  0  0
  8  9  1  0  0  0
  8 10  1  0  0  0
 10 11  2  0  0  0
 11 12  1  0  0  0
 12 13  2  0  0  0
 13  1  1  0  0  0
  1  2  1  0  0  0
  2  3  1  0  0  0
  3  4  1  0  0  0
  4 19  1  0  0  0
 19 30  1  0  0  0
 30 31  1  0  0  0
 19 20  1  0  0  0
 20 21  2  0  0  0
 21 22  1  0  0  0
 22 23  2  0  0  0
 23 26  1  0  0  0
 26 27  1  0  0  0
 26 28  1  0  0  0
 26 29  1  0  0  0
 23 24  1  0  0  0
 24 25  2  0  0  0
  4  5  1  0  0  0
  5  6  1  0  0  0
 13  7  1  0  0  0
  6  1  1  0  0  0
 25 20  1  0  0  0
  9 14  1  0  0  0
  9 15  1  0  0  0
 31 32  1  0  0  0
 31 33  1  0  0  0
M  END
> <minimizedAffinity>
4.31168

> <CNNscore>
0.2164740711

> <CNNaffinity>
6.5239515305

> <CNN_VS>
1.4122663736

> <CNNaffinity_variance>
0.4634989798

$$$$
[H]c1nc(N([H])[H])c(OC([H])([H])C([H])([H])[H])c(N2C([H])([H])C([H])([H])N(C([H])(c3c([H])c([H])c(C(F)(F)F)c([H])c3[H])C([H])([H])N([H])[H])C([H])([H])C2([H])[H])n1


 33 35  0  0  0  0  0  0  0  0999 V2000
   13.4161   24.0706   -1.9770 N   0  0  0  0  0  0  0  0  0  0  0  0
   13.3116   22.6311   -2.0621 C   0  0  0  0  0  0  0  0  0  0  0  0
   13.2519   22.1892   -0.6198 C   0  0  0  0  0  0  0  0  0  0  0  0
   11.8498   22.3282   -0.1469 N   0  0  0  0  0  0  0  0  0  0  0  0
   11.3879   23.6077   -0.6931 C   0  0  0  0  0  0  0  0  0  0  0  0
   12.4731   24.5987   -0.9253 C   0  0  0  0  0  0  0  0  0  0  0  0
   15.4548   25.4225   -2.5151 C   0  0  0  0  0  0  0  0  0  0  0  0
   16.0242   26.4472   -3.3020 C   0  0  0  0  0  0  0  0  0  0  0  0
   17.3536   26.8756   -3.0805 N   0  0  0  0  0  0  0  0  0  0  0  0
   15.3102   27.0177   -4.2593 N   0  0  0  0  0  0  0  0  0  0  0  0
   14.0437   26.5976   -4.4606 C   0  0  0  0  0  0  0  0  0  0  0  0
   13.5035   25.6328   -3.7171 N   0  0  0  0  0  0  0  0  0  0  0  0
   14.1881   24.9893   -2.6931 C   0  0  0  0  0  0  0  0  0  0  0  0
   17.9819   27.0233   -3.9152 H   0  0  0  0  0  0  0  0  0  0  0  0
   17.7453   27.0628   -2.1177 H   0  0  0  0  0  0  0  0  0  0  0  0
   16.3082   24.9054   -1.5529 O   0  0  0  0  0  0  0  0  0  0  0  0
   16.0961   23.8050    0.5617 C   0  0  0  0  0  0  0  0  0  0  0  0
   16.0731   25.1283   -0.1700 C   0  0  0  0  0  0  0  0  0  0  0  0
   11.8709   22.4370    1.2984 C   0  0  0  0  0  0  0  0  0  0  0  0
   10.6727   23.1098    1.8275 C   0  0  0  0  0  0  0  0  0  0  0  0
   10.6973   24.4812    1.9977 C   0  0  0  0  0  0  0  0  0  0  0  0
    9.6417   25.1563    2.5944 C   0  0  0  0  0  0  0  0  0  0  0  0
    8.5384   24.4618    3.0383 C   0  0  0  0  0  0  0  0  0  0  0  0
    8.4770   23.0982    2.8817 C   0  0  0  0  0  0  0  0  0  0  0  0
    9.5604   22.4580    2.2731 C   0  0  0  0  0  0  0  0  0  0  0  0
    7.4379   25.1767    3.7297 C   0  0  0  0  0  0  0  0  0  0  0  0
    6.9439   26.1323    2.8124 F   0  0  0  0  0  0  0  0  0  0  0  0
    7.8499   25.8743    4.8384 F   0  0  0  0  0  0  0  0  0  0  0  0
    6.3748   24.3455    3.9917 F   0  0  0  0  0  0  0  0  0  0  0  0
   11.7842   20.9946    1.8453 C   0  0  0  0  0  0  0  0  0  0  0  0
   12.9411   20.5868    2.5594 N   0  0  0  0  0  0  0  0  0  0  0  0
   13.5892   20.0451    1.9765 H   0  0  0  0  0  0  0  0  0  0  0  0
   12.7537   20.2128    3.4959 H   0  0  0  0  0  0  0  0  0  0  0  0
 17 18  1  0  0  0
 18 16  1  0  0  0
 16  7  1  0  0  0
  7  8  2  0  0  0
  8  9  1  0  0  0
  8 10  1  0  0  0
 10 11  2  0  0  0
 11 12  1  0  0  0
 12 13  2  0  0  0
 13  1  1  0  0  0
  1  2  1  0  0  0
  2  3  1  0  0  0
  3  4  1  0  0  0
  4 19  1  0  0  0
 19 30  1  0  0  0
 30 31  1  0  0  0
 19 20  1  0  0  0
 20 21  2  0  0  0
 21 22  1  0  0  0
 22 23  2  0  0  0
 23 26  1  0  0  0
 26 27  1  0  0  0
 26 28  1  0  0  0
 26 29  1  0  0  0
 23 24  1  0  0  0
 24 25  2  0  0  0
  4  5  1  0  0  0
  5  6  1  0  0  0
 13  7  1  0  0  0
  6  1  1  0  0  0
 25 20  1  0  0  0
  9 14  1  0  0  0
  9 15  1  0  0  0
 31 32  1  0  0  0
 31 33  1  0  0  0
M  END
> <minimizedAffinity>
-6.77340

> <CNNscore>
0.2014776319

> <CNNaffinity>
6.9013609886

> <CNN_VS>
1.3904699087

> <CNNaffinity_variance>
0.1611847132

$$$$
[H]c1nc(N([H])[H])c(OC([H])([H])C([H])([H])[H])c(N2C([H])([H])C([H])([H])N(C([H])(c3c([H])c([H])c(C(F)(F)F)c([H])c3[H])C([H])([H])N([H])[H])C([H])([H])C2([H])[H])n1


 33 35  0  0  0  0  0  0  0  0999 V2000
   10.1584   23.2370    1.2110 N   0  0  0  0  0  0  0  0  0  0  0  0
   10.6299   24.6026    1.1551 C   0  0  0  0  0  0  0  0  0  0  0  0
   12.0478   24.4729    0.6531 C   0  0  0  0  0  0  0  0  0  0  0  0
   12.0094   24.3568   -0.8281 N   0  0  0  0  0  0  0  0  0  0  0  0
   10.8915   23.4519   -1.1112 C   0  0  0  0  0  0  0  0  0  0  0  0
   10.5988   22.4844   -0.0193 C   0  0  0  0  0  0  0  0  0  0  0  0
    9.7318   21.7674    3.1939 C   0  0  0  0  0  0  0  0  0  0  0  0
    8.7784   21.0865    3.9817 C   0  0  0  0  0  0  0  0  0  0  0  0
    9.1839   20.2616    5.0563 N   0  0  0  0  0  0  0  0  0  0  0  0
    7.4884   21.2173    3.7158 N   0  0  0  0  0  0  0  0  0  0  0  0
    7.1159   22.0092    2.6886 C   0  0  0  0  0  0  0  0  0  0  0  0
    8.0143   22.6503    1.9421 N   0  0  0  0  0  0  0  0  0  0  0  0
    9.3842   22.5602    2.1573 C   0  0  0  0  0  0  0  0  0  0  0  0
    8.6655   20.3350    5.9724 H   0  0  0  0  0  0  0  0  0  0  0  0
    9.9774   19.5684    4.9824 H   0  0  0  0  0  0  0  0  0  0  0  0
   11.0454   21.5509    3.5798 O   0  0  0  0  0  0  0  0  0  0  0  0
   11.9869   19.3511    3.5448 C   0  0  0  0  0  0  0  0  0  0  0  0
   11.8929   20.6850    2.8387 C   0  0  0  0  0  0  0  0  0  0  0  0
   13.2326   23.7102   -1.2607 C   0  0  0  0  0  0  0  0  0  0  0  0
   13.8542   24.3958   -2.4061 C   0  0  0  0  0  0  0  0  0  0  0  0
   13.3168   25.5932   -2.8395 C   0  0  0  0  0  0  0  0  0  0  0  0
   13.7886   26.2288   -3.9794 C   0  0  0  0  0  0  0  0  0  0  0  0
   14.8110   25.6675   -4.7118 C   0  0  0  0  0  0  0  0  0  0  0  0
   15.3727   24.4803   -4.3086 C   0  0  0  0  0  0  0  0  0  0  0  0
   14.8696   23.8750   -3.1533 C   0  0  0  0  0  0  0  0  0  0  0  0
   15.2737   26.3170   -5.9626 C   0  0  0  0  0  0  0  0  0  0  0  0
   14.1383   26.9339   -6.5361 F   0  0  0  0  0  0  0  0  0  0  0  0
   15.7508   25.4298   -6.8958 F   0  0  0  0  0  0  0  0  0  0  0  0
   16.1525   27.3433   -5.7097 F   0  0  0  0  0  0  0  0  0  0  0  0
   14.2459   23.8781   -0.1064 C   0  0  0  0  0  0  0  0  0  0  0  0
   14.7574   22.6483    0.3844 N   0  0  0  0  0  0  0  0  0  0  0  0
   14.2591   22.3241    1.2210 H   0  0  0  0  0  0  0  0  0  0  0  0
   15.7812   22.5963    0.4183 H   0  0  0  0  0  0  0  0  0  0  0  0
 17 18  1  0  0  0
 18 16  1  0  0  0
 16  7  1  0  0  0
  7  8  2  0  0  0
  8  9  1  0  0  0
  8 10  1  0  0  0
 10 11  2  0  0  0
 11 12  1  0  0  0
 12 13  2  0  0  0
 13  1  1  0  0  0
  1  2  1  0  0  0
  2  3  1  0  0  0
  3  4  1  0  0  0
  4 19  1  0  0  0
 19 30  1  0  0  0
 30 31  1  0  0  0
 19 20  1  0  0  0
 20 21  2  0  0  0
 21 22  1  0  0  0
 22 23  2  0  0  0
 23 26  1  0  0  0
 26 27  1  0  0  0
 26 28  1  0  0  0
 26 29  1  0  0  0
 23 24  1  0  0  0
 24 25  2  0  0  0
  4  5  1  0  0  0
  5  6  1  0  0  0
 13  7  1  0  0  0
  6  1  1  0  0  0
 25 20  1  0  0  0
  9 14  1  0  0  0
  9 15  1  0  0  0
 31 32  1  0  0  0
 31 33  1  0  0  0
M  END
> <minimizedAffinity>
-9.35255

> <CNNscore>
0.1964554787

> <CNNaffinity>
6.3386816978

> <CNN_VS>
1.2452687025

> <CNNaffinity_variance>
0.2385437191

$$$$
[H]OC(=O)[C@@]([H])(Oc1c(Br)c([H])c(-c2c([H])c([H])c(-c3c(C([H])([H])c4c([H])c([H])c([H])c([H])c4[H])oc4c([H])c([H])c([H])c([H])c34)c([H])c2[H])c([H])c1Br)C([H])([H])c1c([H])c([H])c([H])c([H])c1[H]


 43 48  0  0  0  0  0  0  0  0999 V2000
   11.8984   24.6334   -0.1204 C   0  0  0  0  0  0  0  0  0  0  0  0
   10.6624   24.1274   -0.4732 C   0  0  0  0  0  0  0  0  0  0  0  0
    9.8950   23.5440    0.5012 C   0  0  0  0  0  0  0  0  0  0  0  0
   10.2606   23.4198    1.8201 C   0  0  0  0  0  0  0  0  0  0  0  0
   11.5225   23.9473    2.1370 C   0  0  0  0  0  0  0  0  0  0  0  0
   12.3088   24.5337    1.1882 C   0  0  0  0  0  0  0  0  0  0  0  0
    9.4678   22.7769    2.8503 C   0  0  0  0  0  0  0  0  0  0  0  0
    9.5638   21.5593    3.4164 C   0  0  0  0  0  0  0  0  0  0  0  0
    8.5723   21.4107    4.2983 O   0  0  0  0  0  0  0  0  0  0  0  0
    7.8195   22.4789    4.3452 C   0  0  0  0  0  0  0  0  0  0  0  0
    6.7008   22.8114    5.0770 C   0  0  0  0  0  0  0  0  0  0  0  0
    6.0859   24.0365    4.9300 C   0  0  0  0  0  0  0  0  0  0  0  0
    6.6320   24.9194    4.0227 C   0  0  0  0  0  0  0  0  0  0  0  0
    7.7623   24.5934    3.2776 C   0  0  0  0  0  0  0  0  0  0  0  0
    8.3404   23.3797    3.4478 C   0  0  0  0  0  0  0  0  0  0  0  0
   10.5478   20.4783    3.1987 C   0  0  0  0  0  0  0  0  0  0  0  0
   11.1462   20.5665    1.8532 C   0  0  0  0  0  0  0  0  0  0  0  0
   12.4255   20.9283    1.5661 C   0  0  0  0  0  0  0  0  0  0  0  0
   12.9003   20.9809    0.2457 C   0  0  0  0  0  0  0  0  0  0  0  0
   12.0804   20.6665   -0.8098 C   0  0  0  0  0  0  0  0  0  0  0  0
   10.7812   20.2974   -0.5422 C   0  0  0  0  0  0  0  0  0  0  0  0
   10.3258   20.2484    0.7615 C   0  0  0  0  0  0  0  0  0  0  0  0
   14.4587   26.5097   -3.0161 C   0  0  0  0  0  0  0  0  0  0  0  0
   14.9796   25.8931   -1.8705 C   0  0  0  0  0  0  0  0  0  0  0  0
   16.8660   25.8873   -1.6351 Br  0  0  0  0  0  0  0  0  0  0  0  0
   14.1535   25.2926   -0.9411 C   0  0  0  0  0  0  0  0  0  0  0  0
   12.7870   25.2659   -1.0883 C   0  0  0  0  0  0  0  0  0  0  0  0
   12.2592   25.8726   -2.2180 C   0  0  0  0  0  0  0  0  0  0  0  0
   13.1015   26.4831   -3.1572 C   0  0  0  0  0  0  0  0  0  0  0  0
   12.2080   27.3676   -4.6197 Br  0  0  0  0  0  0  0  0  0  0  0  0
   15.2720   27.1129   -3.9382 O   0  0  0  0  0  0  0  0  0  0  0  0
   16.0080   26.4789   -4.9750 C   0  0  0  0  0  0  0  0  0  0  0  0
   16.1648   27.1291   -7.3080 O   0  0  0  0  0  0  0  0  0  0  0  0
   16.0466   27.4481   -6.0921 C   0  0  0  0  0  0  0  0  0  0  0  0
   15.9466   28.8137   -5.8541 O   0  0  0  0  0  0  0  0  0  0  0  0
   16.6157   29.3914   -5.4160 H   0  0  0  0  0  0  0  0  0  0  0  0
   15.3710   25.1770   -5.4317 C   0  0  0  0  0  0  0  0  0  0  0  0
   15.3237   24.1322   -4.3920 C   0  0  0  0  0  0  0  0  0  0  0  0
   14.0930   23.5074   -4.1127 C   0  0  0  0  0  0  0  0  0  0  0  0
   14.0567   22.5059   -3.1621 C   0  0  0  0  0  0  0  0  0  0  0  0
   15.1897   22.0998   -2.4779 C   0  0  0  0  0  0  0  0  0  0  0  0
   16.3746   22.7430   -2.7868 C   0  0  0  0  0  0  0  0  0  0  0  0
   16.4546   23.7424   -3.7249 C   0  0  0  0  0  0  0  0  0  0  0  0
 33 34  2  0  0  0
 34 35  1  0  0  0
 34 32  1  0  0  0
 32 37  1  0  0  0
 37 38  1  0  0  0
 38 39  2  0  0  0
 39 40  1  0  0  0
 40 41  2  0  0  0
 41 42  1  0  0  0
 42 43  2  0  0  0
 32 31  1  0  0  0
 31 23  1  0  0  0
 23 24  2  0  0  0
 24 25  1  0  0  0
 24 26  1  0  0  0
 26 27  2  0  0  0
 27  1  1  0  0  0
  1  2  2  0  0  0
  2  3  1  0  0  0
  3  4  2  0  0  0
  4  7  1  0  0  0
  7  8  2  0  0  0
  8 16  1  0  0  0
 16 17  1  0  0  0
 17 18  2  0  0  0
 18 19  1  0  0  0
 19 20  2  0  0  0
 20 21  1  0  0  0
 21 22  2  0  0  0
  8  9  1  0  0  0
  9 10  1  0  0  0
 10 11  2  0  0  0
 11 12  1  0  0  0
 12 13  2  0  0  0
 13 14  1  0  0  0
 14 15  2  0  0  0
  4  5  1  0  0  0
  5  6  2  0  0  0
 27 28  1  0  0  0
 28 29  2  0  0  0
 29 30  1  0  0  0
 43 38  1  0  0  0
 29 23  1  0  0  0
  6  1  1  0  0  0
 15  7  1  0  0  0
 22 17  1  0  0  0
 15 10  1  0  0  0
 35 36  1  0  0  0
M  END
> <minimizedAffinity>
0.37386

> <CNNscore>
0.4141675830

> <CNNaffinity>
7.8154473305

> <CNN_VS>
3.2369048595

> <CNNaffinity_variance>
0.2540025711

$$$$
[H]OC(=O)[C@@]([H])(Oc1c(Br)c([H])c(-c2c([H])c([H])c(-c3c(C([H])([H])c4c([H])c([H])c([H])c([H])c4[H])oc4c([H])c([H])c([H])c([H])c34)c([H])c2[H])c([H])c1Br)C([H])([H])c1c([H])c([H])c([H])c([H])c1[H]


 43 48  0  0  0  0  0  0  0  0999 V2000
   11.6699   22.9908   -0.1217 C   0  0  0  0  0  0  0  0  0  0  0  0
   10.4775   23.6844   -0.1928 C   0  0  0  0  0  0  0  0  0  0  0  0
    9.3623   23.1225    0.3726 C   0  0  0  0  0  0  0  0  0  0  0  0
    9.3339   21.9074    1.0138 C   0  0  0  0  0  0  0  0  0  0  0  0
   10.5658   21.2358    1.0651 C   0  0  0  0  0  0  0  0  0  0  0  0
   11.6926   21.7702    0.5110 C   0  0  0  0  0  0  0  0  0  0  0  0
    8.1524   21.2924    1.5875 C   0  0  0  0  0  0  0  0  0  0  0  0
    7.3623   20.2976    1.1422 C   0  0  0  0  0  0  0  0  0  0  0  0
    6.3665   20.1110    2.0120 O   0  0  0  0  0  0  0  0  0  0  0  0
    6.4600   20.9391    3.0198 C   0  0  0  0  0  0  0  0  0  0  0  0
    5.6962   21.1390    4.1486 C   0  0  0  0  0  0  0  0  0  0  0  0
    6.0260   22.1044    5.0758 C   0  0  0  0  0  0  0  0  0  0  0  0
    7.1505   22.8642    4.8328 C   0  0  0  0  0  0  0  0  0  0  0  0
    7.9295   22.6708    3.6949 C   0  0  0  0  0  0  0  0  0  0  0  0
    7.5750   21.7128    2.8046 C   0  0  0  0  0  0  0  0  0  0  0  0
    7.4653   19.4669   -0.0758 C   0  0  0  0  0  0  0  0  0  0  0  0
    6.5383   19.9389   -1.1218 C   0  0  0  0  0  0  0  0  0  0  0  0
    6.3560   19.3754   -2.3462 C   0  0  0  0  0  0  0  0  0  0  0  0
    5.4446   19.9033   -3.2747 C   0  0  0  0  0  0  0  0  0  0  0  0
    4.7003   21.0174   -2.9747 C   0  0  0  0  0  0  0  0  0  0  0  0
    4.8688   21.6042   -1.7405 C   0  0  0  0  0  0  0  0  0  0  0  0
    5.7681   21.0749   -0.8348 C   0  0  0  0  0  0  0  0  0  0  0  0
   15.3187   24.5540   -1.7661 C   0  0  0  0  0  0  0  0  0  0  0  0
   14.5602   23.5951   -2.4509 C   0  0  0  0  0  0  0  0  0  0  0  0
   15.1778   23.0111   -4.1514 Br  0  0  0  0  0  0  0  0  0  0  0  0
   13.3888   23.0936   -1.9185 C   0  0  0  0  0  0  0  0  0  0  0  0
   12.9065   23.5051   -0.6988 C   0  0  0  0  0  0  0  0  0  0  0  0
   13.6480   24.4540   -0.0113 C   0  0  0  0  0  0  0  0  0  0  0  0
   14.8375   24.9581   -0.5546 C   0  0  0  0  0  0  0  0  0  0  0  0
   15.8019   26.1951    0.5676 Br  0  0  0  0  0  0  0  0  0  0  0  0
   16.4846   25.0503   -2.2855 O   0  0  0  0  0  0  0  0  0  0  0  0
   16.6240   25.9098   -3.4083 C   0  0  0  0  0  0  0  0  0  0  0  0
   18.2650   27.0313   -2.0156 O   0  0  0  0  0  0  0  0  0  0  0  0
   17.3932   27.0786   -2.9277 C   0  0  0  0  0  0  0  0  0  0  0  0
   17.1927   28.3387   -3.4787 O   0  0  0  0  0  0  0  0  0  0  0  0
   16.3929   28.9085   -3.3841 H   0  0  0  0  0  0  0  0  0  0  0  0
   15.2852   26.3581   -3.9706 C   0  0  0  0  0  0  0  0  0  0  0  0
   15.1912   26.2763   -5.4401 C   0  0  0  0  0  0  0  0  0  0  0  0
   16.2938   25.7846   -6.1648 C   0  0  0  0  0  0  0  0  0  0  0  0
   16.1922   25.6775   -7.5381 C   0  0  0  0  0  0  0  0  0  0  0  0
   15.0431   26.0380   -8.2210 C   0  0  0  0  0  0  0  0  0  0  0  0
   13.9871   26.5153   -7.4660 C   0  0  0  0  0  0  0  0  0  0  0  0
   14.0462   26.6371   -6.0997 C   0  0  0  0  0  0  0  0  0  0  0  0
 33 34  2  0  0  0
 34 35  1  0  0  0
 34 32  1  0  0  0
 32 37  1  0  0  0
 37 38  1  0  0  0
 38 39  2  0  0  0
 39 40  1  0  0  0
 40 41  2  0  0  0
 41 42  1  0  0  0
 42 43  2  0  0  0
 32 31  1  0  0  0
 31 23  1  0  0  0
 23 24  2  0  0  0
 24 25  1  0  0  0
 24 26  1  0  0  0
 26 27  2  0  0  0
 27  1  1  0  0  0
  1  2  2  0  0  0
  2  3  1  0  0  0
  3  4  2  0  0  0
  4  7  1  0  0  0
  7  8  2  0  0  0
  8 16  1  0  0  0
 16 17  1  0  0  0
 17 18  2  0  0  0
 18 19  1  0  0  0
 19 20  2  0  0  0
 20 21  1  0  0  0
 21 22  2  0  0  0
  8  9  1  0  0  0
  9 10  1  0  0  0
 10 11  2  0  0  0
 11 12  1  0  0  0
 12 13  2  0  0  0
 13 14  1  0  0  0
 14 15  2  0  0  0
  4  5  1  0  0  0
  5  6  2  0  0  0
 27 28  1  0  0  0
 28 29  2  0  0  0
 29 30  1  0  0  0
 43 38  1  0  0  0
 29 23  1  0  0  0
  6  1  1  0  0  0
 15  7  1  0  0  0
 22 17  1  0  0  0
 15 10  1  0  0  0
 35 36  1  0  0  0
M  END
> <minimizedAffinity>
-1.73944

> <CNNscore>
0.2770276368

> <CNNaffinity>
7.2357993126

> <CNN_VS>
2.0045163631

> <CNNaffinity_variance>
0.4220404625

$$$$
[H]OC(=O)[C@@]([H])(Oc1c(Br)c([H])c(-c2c([H])c([H])c(-c3c(C([H])([H])c4c([H])c([H])c([H])c([H])c4[H])oc4c([H])c([H])c([H])c([H])c34)c([H])c2[H])c([H])c1Br)C([H])([H])c1c([H])c([H])c([H])c([H])c1[H]


 43 48  0  0  0  0  0  0  0  0999 V2000
   11.8319   23.4051   -1.2241 C   0  0  0  0  0  0  0  0  0  0  0  0
   12.8875   22.7619   -1.8406 C   0  0  0  0  0  0  0  0  0  0  0  0
   13.9023   23.5242   -2.3582 C   0  0  0  0  0  0  0  0  0  0  0  0
   13.9556   24.8966   -2.3129 C   0  0  0  0  0  0  0  0  0  0  0  0
   12.8649   25.5111   -1.6773 C   0  0  0  0  0  0  0  0  0  0  0  0
   11.8402   24.7783   -1.1528 C   0  0  0  0  0  0  0  0  0  0  0  0
   15.0103   25.7114   -2.8848 C   0  0  0  0  0  0  0  0  0  0  0  0
   16.1577   26.1789   -2.3583 C   0  0  0  0  0  0  0  0  0  0  0  0
   16.7850   26.9216   -3.2736 O   0  0  0  0  0  0  0  0  0  0  0  0
   16.1046   26.9682   -4.3893 C   0  0  0  0  0  0  0  0  0  0  0  0
   16.3228   27.5870   -5.6005 C   0  0  0  0  0  0  0  0  0  0  0  0
   15.4223   27.4706   -6.6377 C   0  0  0  0  0  0  0  0  0  0  0  0
   14.2929   26.7104   -6.4195 C   0  0  0  0  0  0  0  0  0  0  0  0
   14.0622   26.0809   -5.1990 C   0  0  0  0  0  0  0  0  0  0  0  0
   14.9690   26.2177   -4.2014 C   0  0  0  0  0  0  0  0  0  0  0  0
   16.7463   25.9780   -1.0176 C   0  0  0  0  0  0  0  0  0  0  0  0
   15.9671   24.9996   -0.2354 C   0  0  0  0  0  0  0  0  0  0  0  0
   14.8867   25.2734    0.5441 C   0  0  0  0  0  0  0  0  0  0  0  0
   14.2112   24.2661    1.2515 C   0  0  0  0  0  0  0  0  0  0  0  0
   14.6234   22.9584    1.1796 C   0  0  0  0  0  0  0  0  0  0  0  0
   15.7152   22.6584    0.3961 C   0  0  0  0  0  0  0  0  0  0  0  0
   16.3712   23.6583   -0.2962 C   0  0  0  0  0  0  0  0  0  0  0  0
    8.5029   21.3209    0.5180 C   0  0  0  0  0  0  0  0  0  0  0  0
    9.2729   20.7455   -0.5017 C   0  0  0  0  0  0  0  0  0  0  0  0
    8.8192   18.9950   -1.0882 Br  0  0  0  0  0  0  0  0  0  0  0  0
   10.3411   21.4191   -1.0606 C   0  0  0  0  0  0  0  0  0  0  0  0
   10.7050   22.6794   -0.6496 C   0  0  0  0  0  0  0  0  0  0  0  0
    9.9510   23.2596    0.3592 C   0  0  0  0  0  0  0  0  0  0  0  0
    8.8661   22.5731    0.9215 C   0  0  0  0  0  0  0  0  0  0  0  0
    7.8593   23.5541    2.2418 Br  0  0  0  0  0  0  0  0  0  0  0  0
    7.4383   20.6609    1.0716 O   0  0  0  0  0  0  0  0  0  0  0  0
    6.2623   21.2408    1.6190 C   0  0  0  0  0  0  0  0  0  0  0  0
    5.4311   21.3046    3.8983 O   0  0  0  0  0  0  0  0  0  0  0  0
    6.3558   21.0370    3.0813 C   0  0  0  0  0  0  0  0  0  0  0  0
    7.5093   20.5161    3.6555 O   0  0  0  0  0  0  0  0  0  0  0  0
    8.3892   20.9565    3.7265 H   0  0  0  0  0  0  0  0  0  0  0  0
    4.9919   20.6040    1.0807 C   0  0  0  0  0  0  0  0  0  0  0  0
    4.9460   20.5009   -0.3898 C   0  0  0  0  0  0  0  0  0  0  0  0
    4.6980   21.6635   -1.1446 C   0  0  0  0  0  0  0  0  0  0  0  0
    4.6881   21.5716   -2.5227 C   0  0  0  0  0  0  0  0  0  0  0  0
    4.9135   20.3751   -3.1818 C   0  0  0  0  0  0  0  0  0  0  0  0
    5.1524   19.2611   -2.3976 C   0  0  0  0  0  0  0  0  0  0  0  0
    5.1715   19.3088   -1.0256 C   0  0  0  0  0  0  0  0  0  0  0  0
 33 34  2  0  0  0
 34 35  1  0  0  0
 34 32  1  0  0  0
 32 37  1  0  0  0
 37 38  1  0  0  0
 38 39  2  0  0  0
 39 40  1  0  0  0
 40 41  2  0  0  0
 41 42  1  0  0  0
 42 43  2  0  0  0
 32 31  1  0  0  0
 31 23  1  0  0  0
 23 24  2  0  0  0
 24 25  1  0  0  0
 24 26  1  0  0  0
 26 27  2  0  0  0
 27  1  1  0  0  0
  1  2  2  0  0  0
  2  3  1  0  0  0
  3  4  2  0  0  0
  4  7  1  0  0  0
  7  8  2  0  0  0
  8 16  1  0  0  0
 16 17  1  0  0  0
 17 18  2  0  0  0
 18 19  1  0  0  0
 19 20  2  0  0  0
 20 21  1  0  0  0
 21 22  2  0  0  0
  8  9  1  0  0  0
  9 10  1  0  0  0
 10 11  2  0  0  0
 11 12  1  0  0  0
 12 13  2  0  0  0
 13 14  1  0  0  0
 14 15  2  0  0  0
  4  5  1  0  0  0
  5  6  2  0  0  0
 27 28  1  0  0  0
 28 29  2  0  0  0
 29 30  1  0  0  0
 43 38  1  0  0  0
 29 23  1  0  0  0
  6  1  1  0  0  0
 15  7  1  0  0  0
 22 17  1  0  0  0
 15 10  1  0  0  0
 35 36  1  0  0  0
M  END
> <minimizedAffinity>
-5.90356

> <CNNscore>
0.2067405432

> <CNNaffinity>
7.5015091896

> <CNN_VS>
1.5508661270

> <CNNaffinity_variance>
0.0769960657

$$$$
[H]OC(=O)[C@@]([H])(Oc1c(Br)c([H])c(-c2c([H])c([H])c(-c3c(C([H])([H])c4c([H])c([H])c([H])c([H])c4[H])oc4c([H])c([H])c([H])c([H])c34)c([H])c2[H])c([H])c1Br)C([H])([H])c1c([H])c([H])c([H])c([H])c1[H]


 43 48  0  0  0  0  0  0  0  0999 V2000
   10.9487   23.1533   -0.5935 C   0  0  0  0  0  0  0  0  0  0  0  0
   11.2863   22.0428    0.1553 C   0  0  0  0  0  0  0  0  0  0  0  0
   10.3538   21.5326    1.0208 C   0  0  0  0  0  0  0  0  0  0  0  0
    9.0917   22.0436    1.2066 C   0  0  0  0  0  0  0  0  0  0  0  0
    8.7883   23.1706    0.4262 C   0  0  0  0  0  0  0  0  0  0  0  0
    9.6963   23.7008   -0.4436 C   0  0  0  0  0  0  0  0  0  0  0  0
    8.1106   21.5282    2.1420 C   0  0  0  0  0  0  0  0  0  0  0  0
    8.0262   21.6193    3.4825 C   0  0  0  0  0  0  0  0  0  0  0  0
    6.9525   20.9424    3.8973 O   0  0  0  0  0  0  0  0  0  0  0  0
    6.3162   20.4046    2.8893 C   0  0  0  0  0  0  0  0  0  0  0  0
    5.1803   19.6309    2.7972 C   0  0  0  0  0  0  0  0  0  0  0  0
    4.7135   19.1846    1.5792 C   0  0  0  0  0  0  0  0  0  0  0  0
    5.4256   19.5415    0.4537 C   0  0  0  0  0  0  0  0  0  0  0  0
    6.5753   20.3228    0.5355 C   0  0  0  0  0  0  0  0  0  0  0  0
    7.0053   20.7434    1.7498 C   0  0  0  0  0  0  0  0  0  0  0  0
    8.8968   22.3190    4.4502 C   0  0  0  0  0  0  0  0  0  0  0  0
    8.7419   23.7823    4.3442 C   0  0  0  0  0  0  0  0  0  0  0  0
    8.5521   24.4881    3.1971 C   0  0  0  0  0  0  0  0  0  0  0  0
    8.4151   25.8854    3.2030 C   0  0  0  0  0  0  0  0  0  0  0  0
    8.4693   26.5927    4.3785 C   0  0  0  0  0  0  0  0  0  0  0  0
    8.6607   25.8983    5.5521 C   0  0  0  0  0  0  0  0  0  0  0  0
    8.7932   24.5231    5.5336 C   0  0  0  0  0  0  0  0  0  0  0  0
   13.7260   24.9122   -3.3602 C   0  0  0  0  0  0  0  0  0  0  0  0
   12.5780   25.5981   -2.9414 C   0  0  0  0  0  0  0  0  0  0  0  0
   12.2853   27.3512   -3.6160 Br  0  0  0  0  0  0  0  0  0  0  0  0
   11.6866   25.0290   -2.0534 C   0  0  0  0  0  0  0  0  0  0  0  0
   11.8759   23.7698   -1.5353 C   0  0  0  0  0  0  0  0  0  0  0  0
   13.0085   23.0807   -1.9418 C   0  0  0  0  0  0  0  0  0  0  0  0
   13.9089   23.6616   -2.8452 C   0  0  0  0  0  0  0  0  0  0  0  0
   15.3795   22.5377   -3.3872 Br  0  0  0  0  0  0  0  0  0  0  0  0
   14.6103   25.4683   -4.2457 O   0  0  0  0  0  0  0  0  0  0  0  0
   15.3408   26.6758   -4.0816 C   0  0  0  0  0  0  0  0  0  0  0  0
   16.6274   27.8227   -5.7903 O   0  0  0  0  0  0  0  0  0  0  0  0
   15.5947   27.1818   -5.4485 C   0  0  0  0  0  0  0  0  0  0  0  0
   14.6767   26.9667   -6.4695 O   0  0  0  0  0  0  0  0  0  0  0  0
   13.7802   27.3690   -6.5576 H   0  0  0  0  0  0  0  0  0  0  0  0
   16.6546   26.4686   -3.3465 C   0  0  0  0  0  0  0  0  0  0  0  0
   16.5115   25.8275   -2.0261 C   0  0  0  0  0  0  0  0  0  0  0  0
   15.3051   25.9918   -1.3186 C   0  0  0  0  0  0  0  0  0  0  0  0
   15.1601   25.3635   -0.0971 C   0  0  0  0  0  0  0  0  0  0  0  0
   16.1618   24.5803    0.4507 C   0  0  0  0  0  0  0  0  0  0  0  0
   17.3279   24.4489   -0.2814 C   0  0  0  0  0  0  0  0  0  0  0  0
   17.5128   25.0556   -1.4991 C   0  0  0  0  0  0  0  0  0  0  0  0
 33 34  2  0  0  0
 34 35  1  0  0  0
 34 32  1  0  0  0
 32 37  1  0  0  0
 37 38  1  0  0  0
 38 39  2  0  0  0
 39 40  1  0  0  0
 40 41  2  0  0  0
 41 42  1  0  0  0
 42 43  2  0  0  0
 32 31  1  0  0  0
 31 23  1  0  0  0
 23 24  2  0  0  0
 24 25  1  0  0  0
 24 26  1  0  0  0
 26 27  2  0  0  0
 27  1  1  0  0  0
  1  2  2  0  0  0
  2  3  1  0  0  0
  3  4  2  0  0  0
  4  7  1  0  0  0
  7  8  2  0  0  0
  8 16  1  0  0  0
 16 17  1  0  0  0
 17 18  2  0  0  0
 18 19  1  0  0  0
 19 20  2  0  0  0
 20 21  1  0  0  0
 21 22  2  0  0  0
  8  9  1  0  0  0
  9 10  1  0  0  0
 10 11  2  0  0  0
 11 12  1  0  0  0
 12 13  2  0  0  0
 13 14  1  0  0  0
 14 15  2  0  0  0
  4  5  1  0  0  0
  5  6  2  0  0  0
 27 28  1  0  0  0
 28 29  2  0  0  0
 29 30  1  0  0  0
 43 38  1  0  0  0
 29 23  1  0  0  0
  6  1  1  0  0  0
 15  7  1  0  0  0
 22 17  1  0  0  0
 15 10  1  0  0  0
 35 36  1  0  0  0
M  END
> <minimizedAffinity>
-4.12671

> <CNNscore>
0.1876544654

> <CNNaffinity>
7.3085656166

> <CNN_VS>
1.3714849949

> <CNNaffinity_variance>
0.1361726224

$$$$
[H]OC(=O)[C@@]([H])(Oc1c(Br)c([H])c(-c2c([H])c([H])c(-c3c(C([H])([H])c4c([H])c([H])c([H])c([H])c4[H])oc4c([H])c([H])c([H])c([H])c34)c([H])c2[H])c([H])c1Br)C([H])([H])c1c([H])c([H])c([H])c([H])c1[H]


 43 48  0  0  0  0  0  0  0  0999 V2000
   10.4788   22.9592   -0.6822 C   0  0  0  0  0  0  0  0  0  0  0  0
    9.6424   23.7056    0.1249 C   0  0  0  0  0  0  0  0  0  0  0  0
    8.6178   23.0641    0.7712 C   0  0  0  0  0  0  0  0  0  0  0  0
    8.3514   21.7190    0.6802 C   0  0  0  0  0  0  0  0  0  0  0  0
    9.2249   20.9970   -0.1485 C   0  0  0  0  0  0  0  0  0  0  0  0
   10.2534   21.6084   -0.8047 C   0  0  0  0  0  0  0  0  0  0  0  0
    7.2516   21.0385    1.3364 C   0  0  0  0  0  0  0  0  0  0  0  0
    6.7479   21.1557    2.5794 C   0  0  0  0  0  0  0  0  0  0  0  0
    5.7511   20.2798    2.7287 O   0  0  0  0  0  0  0  0  0  0  0  0
    5.5678   19.5841    1.6367 C   0  0  0  0  0  0  0  0  0  0  0  0
    4.6857   18.5830    1.2947 C   0  0  0  0  0  0  0  0  0  0  0  0
    4.7066   18.0055    0.0431 C   0  0  0  0  0  0  0  0  0  0  0  0
    5.6438   18.4672   -0.8567 C   0  0  0  0  0  0  0  0  0  0  0  0
    6.5405   19.4784   -0.5213 C   0  0  0  0  0  0  0  0  0  0  0  0
    6.4914   20.0227    0.7187 C   0  0  0  0  0  0  0  0  0  0  0  0
    7.1308   22.0582    3.6853 C   0  0  0  0  0  0  0  0  0  0  0  0
    8.3007   21.5366    4.4171 C   0  0  0  0  0  0  0  0  0  0  0  0
    8.4581   20.2666    4.8778 C   0  0  0  0  0  0  0  0  0  0  0  0
    9.6153   19.8679    5.5659 C   0  0  0  0  0  0  0  0  0  0  0  0
   10.6361   20.7559    5.7993 C   0  0  0  0  0  0  0  0  0  0  0  0
   10.4980   22.0472    5.3416 C   0  0  0  0  0  0  0  0  0  0  0  0
    9.3548   22.4274    4.6649 C   0  0  0  0  0  0  0  0  0  0  0  0
   13.7967   24.6528   -2.8233 C   0  0  0  0  0  0  0  0  0  0  0  0
   12.6188   25.3803   -2.6066 C   0  0  0  0  0  0  0  0  0  0  0  0
   12.5293   27.1595   -3.2701 Br  0  0  0  0  0  0  0  0  0  0  0  0
   11.5537   24.8321   -1.9195 C   0  0  0  0  0  0  0  0  0  0  0  0
   11.5911   23.5543   -1.4138 C   0  0  0  0  0  0  0  0  0  0  0  0
   12.7516   22.8241   -1.6215 C   0  0  0  0  0  0  0  0  0  0  0  0
   13.8289   23.3839   -2.3218 C   0  0  0  0  0  0  0  0  0  0  0  0
   15.3290   22.2072   -2.6124 Br  0  0  0  0  0  0  0  0  0  0  0  0
   14.8539   25.1882   -3.5097 O   0  0  0  0  0  0  0  0  0  0  0  0
   15.5254   26.4090   -3.2311 C   0  0  0  0  0  0  0  0  0  0  0  0
   15.0243   27.0570   -5.5156 O   0  0  0  0  0  0  0  0  0  0  0  0
   15.8338   27.0086   -4.5479 C   0  0  0  0  0  0  0  0  0  0  0  0
   17.0775   27.5762   -4.7984 O   0  0  0  0  0  0  0  0  0  0  0  0
   17.9398   27.1047   -4.8842 H   0  0  0  0  0  0  0  0  0  0  0  0
   16.8039   26.2041   -2.4356 C   0  0  0  0  0  0  0  0  0  0  0  0
   16.6252   25.4198   -1.1995 C   0  0  0  0  0  0  0  0  0  0  0  0
   15.4195   25.5467   -0.4831 C   0  0  0  0  0  0  0  0  0  0  0  0
   15.2403   24.7868    0.6562 C   0  0  0  0  0  0  0  0  0  0  0  0
   16.2071   23.9076    1.1137 C   0  0  0  0  0  0  0  0  0  0  0  0
   17.3740   23.8178    0.3766 C   0  0  0  0  0  0  0  0  0  0  0  0
   17.5923   24.5544   -0.7614 C   0  0  0  0  0  0  0  0  0  0  0  0
 33 34  2  0  0  0
 34 35  1  0  0  0
 34 32  1  0  0  0
 32 37  1  0  0  0
 37 38  1  0  0  0
 38 39  2  0  0  0
 39 40  1  0  0  0
 40 41  2  0  0  0
 41 42  1  0  0  0
 42 43  2  0  0  0
 32 31  1  0  0  0
 31 23  1  0  0  0
 23 24  2  0  0  0
 24 25  1  0  0  0
 24 26  1  0  0  0
 26 27  2  0  0  0
 27  1  1  0  0  0
  1  2  2  0  0  0
  2  3  1  0  0  0
  3  4  2  0  0  0
  4  7  1  0  0  0
  7  8  2  0  0  0
  8 16  1  0  0  0
 16 17  1  0  0  0
 17 18  2  0  0  0
 18 19  1  0  0  0
 19 20  2  0  0  0
 20 21  1  0  0  0
 21 22  2  0  0  0
  8  9  1  0  0  0
  9 10  1  0  0  0
 10 11  2  0  0  0
 11 12  1  0  0  0
 12 13  2  0  0  0
 13 14  1  0  0  0
 14 15  2  0  0  0
  4  5  1  0  0  0
  5  6  2  0  0  0
 27 28  1  0  0  0
 28 29  2  0  0  0
 29 30  1  0  0  0
 43 38  1  0  0  0
 29 23  1  0  0  0
  6  1  1  0  0  0
 15  7  1  0  0  0
 22 17  1  0  0  0
 15 10  1  0  0  0
 35 36  1  0  0  0
M  END
> <minimizedAffinity>
-4.77757

> <CNNscore>
0.1861566007

> <CNNaffinity>
7.2898521423

> <CNN_VS>
1.3570541143

> <CNNaffinity_variance>
0.2340454161

$$$$
[H]OC(=O)[C@@]([H])(Oc1c(Br)c([H])c(-c2c([H])c([H])c(-c3c(C([H])([H])c4c([H])c([H])c([H])c([H])c4[H])oc4c([H])c([H])c([H])c([H])c34)c([H])c2[H])c([H])c1Br)C([H])([H])c1c([H])c([H])c([H])c([H])c1[H]


 43 48  0  0  0  0  0  0  0  0999 V2000
   10.6865   23.0658   -0.4334 C   0  0  0  0  0  0  0  0  0  0  0  0
   10.2248   23.7482    0.6753 C   0  0  0  0  0  0  0  0  0  0  0  0
    9.1937   23.2015    1.3941 C   0  0  0  0  0  0  0  0  0  0  0  0
    8.5730   22.0120    1.0972 C   0  0  0  0  0  0  0  0  0  0  0  0
    9.0725   21.3499   -0.0356 C   0  0  0  0  0  0  0  0  0  0  0  0
   10.0978   21.8699   -0.7709 C   0  0  0  0  0  0  0  0  0  0  0  0
    7.4618   21.4421    1.8346 C   0  0  0  0  0  0  0  0  0  0  0  0
    6.1860   21.2038    1.4771 C   0  0  0  0  0  0  0  0  0  0  0  0
    5.5283   20.6993    2.5240 O   0  0  0  0  0  0  0  0  0  0  0  0
    6.3125   20.5898    3.5647 C   0  0  0  0  0  0  0  0  0  0  0  0
    6.1140   20.1361    4.8501 C   0  0  0  0  0  0  0  0  0  0  0  0
    7.1374   20.1278    5.7737 C   0  0  0  0  0  0  0  0  0  0  0  0
    8.3699   20.5904    5.3640 C   0  0  0  0  0  0  0  0  0  0  0  0
    8.5815   21.0516    4.0672 C   0  0  0  0  0  0  0  0  0  0  0  0
    7.5522   21.0457    3.1859 C   0  0  0  0  0  0  0  0  0  0  0  0
    5.5004   21.4108    0.1843 C   0  0  0  0  0  0  0  0  0  0  0  0
    5.3223   20.1345   -0.5338 C   0  0  0  0  0  0  0  0  0  0  0  0
    5.5219   18.8906   -0.0212 C   0  0  0  0  0  0  0  0  0  0  0  0
    5.3235   17.7332   -0.7909 C   0  0  0  0  0  0  0  0  0  0  0  0
    4.9181   17.8197   -2.0998 C   0  0  0  0  0  0  0  0  0  0  0  0
    4.7100   19.0693   -2.6395 C   0  0  0  0  0  0  0  0  0  0  0  0
    4.9076   20.2009   -1.8717 C   0  0  0  0  0  0  0  0  0  0  0  0
   13.8514   24.6151   -2.8918 C   0  0  0  0  0  0  0  0  0  0  0  0
   13.9228   23.3331   -2.3304 C   0  0  0  0  0  0  0  0  0  0  0  0
   15.4584   22.2760   -2.7026 Br  0  0  0  0  0  0  0  0  0  0  0  0
   12.9045   22.8391   -1.5393 C   0  0  0  0  0  0  0  0  0  0  0  0
   11.7743   23.5712   -1.2628 C   0  0  0  0  0  0  0  0  0  0  0  0
   11.6915   24.8415   -1.8127 C   0  0  0  0  0  0  0  0  0  0  0  0
   12.7289   25.3395   -2.6129 C   0  0  0  0  0  0  0  0  0  0  0  0
   12.5078   27.1568   -3.2194 Br  0  0  0  0  0  0  0  0  0  0  0  0
   14.8609   25.1135   -3.6717 O   0  0  0  0  0  0  0  0  0  0  0  0
   15.6018   26.3060   -3.4538 C   0  0  0  0  0  0  0  0  0  0  0  0
   15.6974   26.2206   -5.8773 O   0  0  0  0  0  0  0  0  0  0  0  0
   15.9064   26.8423   -4.7985 C   0  0  0  0  0  0  0  0  0  0  0  0
   16.4562   28.1095   -4.9523 O   0  0  0  0  0  0  0  0  0  0  0  0
   17.3664   28.3969   -4.7030 H   0  0  0  0  0  0  0  0  0  0  0  0
   16.8883   26.0618   -2.6826 C   0  0  0  0  0  0  0  0  0  0  0  0
   16.6921   25.4088   -1.3749 C   0  0  0  0  0  0  0  0  0  0  0  0
   15.5159   25.6806   -0.6498 C   0  0  0  0  0  0  0  0  0  0  0  0
   15.3182   25.0428    0.5593 C   0  0  0  0  0  0  0  0  0  0  0  0
   16.2386   24.1479    1.0780 C   0  0  0  0  0  0  0  0  0  0  0  0
   17.3778   23.9136    0.3295 C   0  0  0  0  0  0  0  0  0  0  0  0
   17.6130   24.5257   -0.8767 C   0  0  0  0  0  0  0  0  0  0  0  0
 33 34  2  0  0  0
 34 35  1  0  0  0
 34 32  1  0  0  0
 32 37  1  0  0  0
 37 38  1  0  0  0
 38 39  2  0  0  0
 39 40  1  0  0  0
 40 41  2  0  0  0
 41 42  1  0  0  0
 42 43  2  0  0  0
 32 31  1  0  0  0
 31 23  1  0  0  0
 23 24  2  0  0  0
 24 25  1  0  0  0
 24 26  1  0  0  0
 26 27  2  0  0  0
 27  1  1  0  0  0
  1  2  2  0  0  0
  2  3  1  0  0  0
  3  4  2  0  0  0
  4  7  1  0  0  0
  7  8  2  0  0  0
  8 16  1  0  0  0
 16 17  1  0  0  0
 17 18  2  0  0  0
 18 19  1  0  0  0
 19 20  2  0  0  0
 20 21  1  0  0  0
 21 22  2  0  0  0
  8  9  1  0  0  0
  9 10  1  0  0  0
 10 11  2  0  0  0
 11 12  1  0  0  0
 12 13  2  0  0  0
 13 14  1  0  0  0
 14 15  2  0  0  0
  4  5  1  0  0  0
  5  6  2  0  0  0
 27 28  1  0  0  0
 28 29  2  0  0  0
 29 30  1  0  0  0
 43 38  1  0  0  0
 29 23  1  0  0  0
  6  1  1  0  0  0
 15  7  1  0  0  0
 22 17  1  0  0  0
 15 10  1  0  0  0
 35 36  1  0  0  0
M  END
> <minimizedAffinity>
-4.72552

> <CNNscore>
0.1655127704

> <CNNaffinity>
7.1579742432

> <CNN_VS>
1.1847361326

> <CNNaffinity_variance>
0.3251428604

$$$$
[H]OC(=O)[C@@]([H])(Oc1c(Br)c([H])c(-c2c([H])c([H])c(-c3c(C([H])([H])c4c([H])c([H])c([H])c([H])c4[H])oc4c([H])c([H])c([H])c([H])c34)c([H])c2[H])c([H])c1Br)C([H])([H])c1c([H])c([H])c([H])c([H])c1[H]


 43 48  0  0  0  0  0  0  0  0999 V2000
   10.5594   22.8444    1.1551 C   0  0  0  0  0  0  0  0  0  0  0  0
    9.4176   22.1725    0.7641 C   0  0  0  0  0  0  0  0  0  0  0  0
    8.3805   22.0769    1.6553 C   0  0  0  0  0  0  0  0  0  0  0  0
    8.3845   22.6031    2.9248 C   0  0  0  0  0  0  0  0  0  0  0  0
    9.5623   23.2786    3.2822 C   0  0  0  0  0  0  0  0  0  0  0  0
   10.6111   23.3896    2.4163 C   0  0  0  0  0  0  0  0  0  0  0  0
    7.3037   22.4801    3.8840 C   0  0  0  0  0  0  0  0  0  0  0  0
    6.7751   21.4032    4.4950 C   0  0  0  0  0  0  0  0  0  0  0  0
    5.7617   21.7972    5.2701 O   0  0  0  0  0  0  0  0  0  0  0  0
    5.5930   23.0922    5.2028 C   0  0  0  0  0  0  0  0  0  0  0  0
    4.7040   23.9584    5.8000 C   0  0  0  0  0  0  0  0  0  0  0  0
    4.7453   25.3135    5.5498 C   0  0  0  0  0  0  0  0  0  0  0  0
    5.7108   25.7721    4.6789 C   0  0  0  0  0  0  0  0  0  0  0  0
    6.6141   24.9051    4.0694 C   0  0  0  0  0  0  0  0  0  0  0  0
    6.5438   23.5789    4.3384 C   0  0  0  0  0  0  0  0  0  0  0  0
    7.1554   19.9772    4.4177 C   0  0  0  0  0  0  0  0  0  0  0  0
    6.3190   19.2556    3.4399 C   0  0  0  0  0  0  0  0  0  0  0  0
    6.0389   19.6587    2.1714 C   0  0  0  0  0  0  0  0  0  0  0  0
    5.2283   18.8960    1.3154 C   0  0  0  0  0  0  0  0  0  0  0  0
    4.6856   17.7066    1.7349 C   0  0  0  0  0  0  0  0  0  0  0  0
    4.9561   17.2793    3.0156 C   0  0  0  0  0  0  0  0  0  0  0  0
    5.7560   18.0381    3.8484 C   0  0  0  0  0  0  0  0  0  0  0  0
   13.9977   23.2227   -1.3936 C   0  0  0  0  0  0  0  0  0  0  0  0
   12.9524   24.1552   -1.4332 C   0  0  0  0  0  0  0  0  0  0  0  0
   13.1018   25.6183   -2.6378 Br  0  0  0  0  0  0  0  0  0  0  0  0
   11.8480   24.0295   -0.6138 C   0  0  0  0  0  0  0  0  0  0  0  0
   11.7155   22.9923    0.2787 C   0  0  0  0  0  0  0  0  0  0  0  0
   12.7434   22.0628    0.3276 C   0  0  0  0  0  0  0  0  0  0  0  0
   13.8612   22.1933   -0.5080 C   0  0  0  0  0  0  0  0  0  0  0  0
   15.1542   20.7673   -0.3903 Br  0  0  0  0  0  0  0  0  0  0  0  0
   15.0925   23.3380   -2.2083 O   0  0  0  0  0  0  0  0  0  0  0  0
   15.1061   23.3376   -3.6290 C   0  0  0  0  0  0  0  0  0  0  0  0
   16.0885   21.1263   -3.8163 O   0  0  0  0  0  0  0  0  0  0  0  0
   15.1255   21.9140   -4.0312 C   0  0  0  0  0  0  0  0  0  0  0  0
   14.0414   21.3448   -4.6886 O   0  0  0  0  0  0  0  0  0  0  0  0
   13.7382   21.5329   -5.6084 H   0  0  0  0  0  0  0  0  0  0  0  0
   16.3135   24.0611   -4.2018 C   0  0  0  0  0  0  0  0  0  0  0  0
   16.0455   25.4538   -4.6061 C   0  0  0  0  0  0  0  0  0  0  0  0
   16.5260   26.5005   -3.7960 C   0  0  0  0  0  0  0  0  0  0  0  0
   16.3029   27.8044   -4.1932 C   0  0  0  0  0  0  0  0  0  0  0  0
   15.6231   28.1120   -5.3594 C   0  0  0  0  0  0  0  0  0  0  0  0
   15.1706   27.0503   -6.1217 C   0  0  0  0  0  0  0  0  0  0  0  0
   15.3714   25.7401   -5.7636 C   0  0  0  0  0  0  0  0  0  0  0  0
 33 34  2  0  0  0
 34 35  1  0  0  0
 34 32  1  0  0  0
 32 37  1  0  0  0
 37 38  1  0  0  0
 38 39  2  0  0  0
 39 40  1  0  0  0
 40 41  2  0  0  0
 41 42  1  0  0  0
 42 43  2  0  0  0
 32 31  1  0  0  0
 31 23  1  0  0  0
 23 24  2  0  0  0
 24 25  1  0  0  0
 24 26  1  0  0  0
 26 27  2  0  0  0
 27  1  1  0  0  0
  1  2  2  0  0  0
  2  3  1  0  0  0
  3  4  2  0  0  0
  4  7  1  0  0  0
  7  8  2  0  0  0
  8 16  1  0  0  0
 16 17  1  0  0  0
 17 18  2  0  0  0
 18 19  1  0  0  0
 19 20  2  0  0  0
 20 21  1  0  0  0
 21 22  2  0  0  0
  8  9  1  0  0  0
  9 10  1  0  0  0
 10 11  2  0  0  0
 11 12  1  0  0  0
 12 13  2  0  0  0
 13 14  1  0  0  0
 14 15  2  0  0  0
  4  5  1  0  0  0
  5  6  2  0  0  0
 27 28  1  0  0  0
 28 29  2  0  0  0
 29 30  1  0  0  0
 43 38  1  0  0  0
 29 23  1  0  0  0
  6  1  1  0  0  0
 15  7  1  0  0  0
 22 17  1  0  0  0
 15 10  1  0  0  0
 35 36  1  0  0  0
M  END
> <minimizedAffinity>
-3.66720

> <CNNscore>
0.1629224867

> <CNNaffinity>
6.7514634132

> <CNN_VS>
1.0999652147

> <CNNaffinity_variance>
0.4855235517

$$$$
[H]OC(=O)[C@@]([H])(Oc1c(Br)c([H])c(-c2c([H])c([H])c(-c3c(C([H])([H])c4c([H])c([H])c([H])c([H])c4[H])oc4c([H])c([H])c([H])c([H])c34)c([H])c2[H])c([H])c1Br)C([H])([H])c1c([H])c([H])c([H])c([H])c1[H]


 43 48  0  0  0  0  0  0  0  0999 V2000
   10.6074   23.9897    1.4744 C   0  0  0  0  0  0  0  0  0  0  0  0
   10.7247   24.0537    2.8493 C   0  0  0  0  0  0  0  0  0  0  0  0
    9.6411   23.7044    3.6126 C   0  0  0  0  0  0  0  0  0  0  0  0
    8.4297   23.2894    3.1138 C   0  0  0  0  0  0  0  0  0  0  0  0
    8.3526   23.2372    1.7129 C   0  0  0  0  0  0  0  0  0  0  0  0
    9.4146   23.5792    0.9273 C   0  0  0  0  0  0  0  0  0  0  0  0
    7.2693   22.9475    3.9136 C   0  0  0  0  0  0  0  0  0  0  0  0
    6.6624   23.5981    4.9239 C   0  0  0  0  0  0  0  0  0  0  0  0
    5.6457   22.8563    5.3699 O   0  0  0  0  0  0  0  0  0  0  0  0
    5.5481   21.7384    4.6986 C   0  0  0  0  0  0  0  0  0  0  0  0
    4.6862   20.6665    4.7741 C   0  0  0  0  0  0  0  0  0  0  0  0
    4.8072   19.5879    3.9242 C   0  0  0  0  0  0  0  0  0  0  0  0
    5.8238   19.6203    2.9934 C   0  0  0  0  0  0  0  0  0  0  0  0
    6.7009   20.6985    2.9086 C   0  0  0  0  0  0  0  0  0  0  0  0
    6.5524   21.7417    3.7607 C   0  0  0  0  0  0  0  0  0  0  0  0
    6.9602   24.9124    5.5307 C   0  0  0  0  0  0  0  0  0  0  0  0
    6.6052   26.0137    4.6156 C   0  0  0  0  0  0  0  0  0  0  0  0
    5.3476   26.4463    4.3304 C   0  0  0  0  0  0  0  0  0  0  0  0
    5.1149   27.5080    3.4415 C   0  0  0  0  0  0  0  0  0  0  0  0
    6.1594   28.1504    2.8239 C   0  0  0  0  0  0  0  0  0  0  0  0
    7.4412   27.7288    3.0981 C   0  0  0  0  0  0  0  0  0  0  0  0
    7.6577   26.6836    3.9755 C   0  0  0  0  0  0  0  0  0  0  0  0
   13.8841   25.0227   -1.1057 C   0  0  0  0  0  0  0  0  0  0  0  0
   12.5561   25.2789   -1.4725 C   0  0  0  0  0  0  0  0  0  0  0  0
   12.2353   26.1219   -3.1459 Br  0  0  0  0  0  0  0  0  0  0  0  0
   11.5054   24.9439   -0.6414 C   0  0  0  0  0  0  0  0  0  0  0  0
   11.7032   24.3472    0.5811 C   0  0  0  0  0  0  0  0  0  0  0  0
   13.0131   24.0886    0.9557 C   0  0  0  0  0  0  0  0  0  0  0  0
   14.0760   24.4281    0.1077 C   0  0  0  0  0  0  0  0  0  0  0  0
   15.8279   23.9133    0.7285 Br  0  0  0  0  0  0  0  0  0  0  0  0
   14.9302   25.3463   -1.9281 O   0  0  0  0  0  0  0  0  0  0  0  0
   15.5682   24.5005   -2.8748 C   0  0  0  0  0  0  0  0  0  0  0  0
   16.5742   26.4716   -3.8713 O   0  0  0  0  0  0  0  0  0  0  0  0
   15.9572   25.3776   -4.0008 C   0  0  0  0  0  0  0  0  0  0  0  0
   15.6566   25.0290   -5.3122 O   0  0  0  0  0  0  0  0  0  0  0  0
   14.7631   24.9992   -5.7295 H   0  0  0  0  0  0  0  0  0  0  0  0
   14.6603   23.3858   -3.3675 C   0  0  0  0  0  0  0  0  0  0  0  0
   14.3305   22.3795   -2.3412 C   0  0  0  0  0  0  0  0  0  0  0  0
   12.9780   22.0607   -2.1128 C   0  0  0  0  0  0  0  0  0  0  0  0
   12.6723   21.0941   -1.1747 C   0  0  0  0  0  0  0  0  0  0  0  0
   13.6521   20.4320   -0.4546 C   0  0  0  0  0  0  0  0  0  0  0  0
   14.9655   20.7794   -0.7141 C   0  0  0  0  0  0  0  0  0  0  0  0
   15.3127   21.7337   -1.6381 C   0  0  0  0  0  0  0  0  0  0  0  0
 33 34  2  0  0  0
 34 35  1  0  0  0
 34 32  1  0  0  0
 32 37  1  0  0  0
 37 38  1  0  0  0
 38 39  2  0  0  0
 39 40  1  0  0  0
 40 41  2  0  0  0
 41 42  1  0  0  0
 42 43  2  0  0  0
 32 31  1  0  0  0
 31 23  1  0  0  0
 23 24  2  0  0  0
 24 25  1  0  0  0
 24 26  1  0  0  0
 26 27  2  0  0  0
 27  1  1  0  0  0
  1  2  2  0  0  0
  2  3  1  0  0  0
  3  4  2  0  0  0
  4  7  1  0  0  0
  7  8  2  0  0  0
  8 16  1  0  0  0
 16 17  1  0  0  0
 17 18  2  0  0  0
 18 19  1  0  0  0
 19 20  2  0  0  0
 20 21  1  0  0  0
 21 22  2  0  0  0
  8  9  1  0  0  0
  9 10  1  0  0  0
 10 11  2  0  0  0
 11 12  1  0  0  0
 12 13  2  0  0  0
 13 14  1  0  0  0
 14 15  2  0  0  0
  4  5  1  0  0  0
  5  6  2  0  0  0
 27 28  1  0  0  0
 28 29  2  0  0  0
 29 30  1  0  0  0
 43 38  1  0  0  0
 29 23  1  0  0  0
  6  1  1  0  0  0
 15  7  1  0  0  0
 22 17  1  0  0  0
 15 10  1  0  0  0
 35 36  1  0  0  0
M  END
> <minimizedAffinity>
-5.49881

> <CNNscore>
0.1514836550

> <CNNaffinity>
7.1791372299

> <CNN_VS>
1.0875219107

> <CNNaffinity_variance>
0.1186223775

$$$$
[H]OC(=O)[C@@]([H])(Oc1c(Br)c([H])c(-c2c([H])c([H])c(-c3c(C([H])([H])c4c([H])c([H])c([H])c([H])c4[H])oc4c([H])c([H])c([H])c([H])c34)c([H])c2[H])c([H])c1Br)C([H])([H])c1c([H])c([H])c([H])c([H])c1[H]


 43 48  0  0  0  0  0  0  0  0999 V2000
   10.9041   23.5330    0.1519 C   0  0  0  0  0  0  0  0  0  0  0  0
   11.0133   22.2020    0.5046 C   0  0  0  0  0  0  0  0  0  0  0  0
    9.9222   21.5828    1.0571 C   0  0  0  0  0  0  0  0  0  0  0  0
    8.7108   22.1876    1.2918 C   0  0  0  0  0  0  0  0  0  0  0  0
    8.6414   23.5393    0.9184 C   0  0  0  0  0  0  0  0  0  0  0  0
    9.7111   24.1821    0.3665 C   0  0  0  0  0  0  0  0  0  0  0  0
    7.5619   21.5481    1.9036 C   0  0  0  0  0  0  0  0  0  0  0  0
    6.3223   21.3102    1.4354 C   0  0  0  0  0  0  0  0  0  0  0  0
    5.6009   20.7237    2.3938 O   0  0  0  0  0  0  0  0  0  0  0  0
    6.3079   20.5591    3.4815 C   0  0  0  0  0  0  0  0  0  0  0  0
    6.0252   20.0158    4.7153 C   0  0  0  0  0  0  0  0  0  0  0  0
    6.9769   19.9647    5.7114 C   0  0  0  0  0  0  0  0  0  0  0  0
    8.2250   20.4774    5.4278 C   0  0  0  0  0  0  0  0  0  0  0  0
    8.5213   21.0291    4.1841 C   0  0  0  0  0  0  0  0  0  0  0  0
    7.5609   21.0632    3.2288 C   0  0  0  0  0  0  0  0  0  0  0  0
    5.7302   21.5910    0.1107 C   0  0  0  0  0  0  0  0  0  0  0  0
    5.3761   20.3417   -0.5894 C   0  0  0  0  0  0  0  0  0  0  0  0
    5.2512   19.1117   -0.0224 C   0  0  0  0  0  0  0  0  0  0  0  0
    4.9082   17.9800   -0.7794 C   0  0  0  0  0  0  0  0  0  0  0  0
    4.6860   18.0784   -2.1308 C   0  0  0  0  0  0  0  0  0  0  0  0
    4.8069   19.3143   -2.7258 C   0  0  0  0  0  0  0  0  0  0  0  0
    5.1441   20.4208   -1.9701 C   0  0  0  0  0  0  0  0  0  0  0  0
   14.2111   25.7047   -1.5242 C   0  0  0  0  0  0  0  0  0  0  0  0
   12.9339   25.7602   -2.0983 C   0  0  0  0  0  0  0  0  0  0  0  0
   12.6906   26.8463   -3.6394 Br  0  0  0  0  0  0  0  0  0  0  0  0
   11.8738   25.0595   -1.5579 C   0  0  0  0  0  0  0  0  0  0  0  0
   12.0120   24.2770   -0.4361 C   0  0  0  0  0  0  0  0  0  0  0  0
   13.2710   24.2139    0.1416 C   0  0  0  0  0  0  0  0  0  0  0  0
   14.3445   24.9249   -0.4121 C   0  0  0  0  0  0  0  0  0  0  0  0
   16.0491   24.6542    0.4484 Br  0  0  0  0  0  0  0  0  0  0  0  0
   15.2680   26.3918   -2.0591 O   0  0  0  0  0  0  0  0  0  0  0  0
   16.1948   25.9190   -3.0268 C   0  0  0  0  0  0  0  0  0  0  0  0
   16.4536   27.9736   -4.2922 O   0  0  0  0  0  0  0  0  0  0  0  0
   16.9285   27.1136   -3.4992 C   0  0  0  0  0  0  0  0  0  0  0  0
   18.2281   27.3650   -3.0756 O   0  0  0  0  0  0  0  0  0  0  0  0
   19.0391   26.8547   -3.3103 H   0  0  0  0  0  0  0  0  0  0  0  0
   15.5158   25.2242   -4.1954 C   0  0  0  0  0  0  0  0  0  0  0  0
   15.3041   23.7784   -3.9964 C   0  0  0  0  0  0  0  0  0  0  0  0
   14.9880   23.3096   -2.7067 C   0  0  0  0  0  0  0  0  0  0  0  0
   14.7575   21.9595   -2.5283 C   0  0  0  0  0  0  0  0  0  0  0  0
   14.8281   21.0565   -3.5755 C   0  0  0  0  0  0  0  0  0  0  0  0
   15.1418   21.5645   -4.8231 C   0  0  0  0  0  0  0  0  0  0  0  0
   15.3776   22.8990   -5.0439 C   0  0  0  0  0  0  0  0  0  0  0  0
 33 34  2  0  0  0
 34 35  1  0  0  0
 34 32  1  0  0  0
 32 37  1  0  0  0
 37 38  1  0  0  0
 38 39  2  0  0  0
 39 40  1  0  0  0
 40 41  2  0  0  0
 41 42  1  0  0  0
 42 43  2  0  0  0
 32 31  1  0  0  0
 31 23  1  0  0  0
 23 24  2  0  0  0
 24 25  1  0  0  0
 24 26  1  0  0  0
 26 27  2  0  0  0
 27  1  1  0  0  0
  1  2  2  0  0  0
  2  3  1  0  0  0
  3  4  2  0  0  0
  4  7  1  0  0  0
  7  8  2  0  0  0
  8 16  1  0  0  0
 16 17  1  0  0  0
 17 18  2  0  0  0
 18 19  1  0  0  0
 19 20  2  0  0  0
 20 21  1  0  0  0
 21 22  2  0  0  0
  8  9  1  0  0  0
  9 10  1  0  0  0
 10 11  2  0  0  0
 11 12  1  0  0  0
 12 13  2  0  0  0
 13 14  1  0  0  0
 14 15  2  0  0  0
  4  5  1  0  0  0
  5  6  2  0  0  0
 27 28  1  0  0  0
 28 29  2  0  0  0
 29 30  1  0  0  0
 43 38  1  0  0  0
 29 23  1  0  0  0
  6  1  1  0  0  0
 15  7  1  0  0  0
 22 17  1  0  0  0
 15 10  1  0  0  0
 35 36  1  0  0  0
M  END
> <minimizedAffinity>
-4.42304

> <CNNscore>
0.1492196470

> <CNNaffinity>
7.2311830521

> <CNN_VS>
1.0790345669

> <CNNaffinity_variance>
0.3388120532

$$$$
[H]c1c(F)c(C(=O)N([H])S(=O)(=O)C2([H])C([H])([H])C2([H])[H])c([H])c(C2([H])C([H])([H])C2([H])[H])c1OC([H])([H])C1([H])C([H])([H])C([H])([H])C([H])(C(F)(F)F)C([H])([H])C1([H])[H]


 32 35  0  0  0  0  0  0  0  0999 V2000
   13.2155   22.8407   -0.3605 C   0  0  0  0  0  0  0  0  0  0  0  0
   13.4443   24.1021    0.2007 C   0  0  0  0  0  0  0  0  0  0  0  0
   14.4597   24.9203   -0.1783 C   0  0  0  0  0  0  0  0  0  0  0  0
   15.3698   24.5237   -1.1959 C   0  0  0  0  0  0  0  0  0  0  0  0
   15.1280   23.2770   -1.7384 C   0  0  0  0  0  0  0  0  0  0  0  0
   14.0786   22.4565   -1.3313 C   0  0  0  0  0  0  0  0  0  0  0  0
   13.9485   21.2635   -1.9193 F   0  0  0  0  0  0  0  0  0  0  0  0
   11.1088   22.7624    0.6515 O   0  0  0  0  0  0  0  0  0  0  0  0
   12.0835   22.0938    0.1431 C   0  0  0  0  0  0  0  0  0  0  0  0
   11.9136   20.7079    0.1438 N   0  0  0  0  0  0  0  0  0  0  0  0
   12.6107   20.0675   -0.2444 H   0  0  0  0  0  0  0  0  0  0  0  0
   10.4913   19.9848    0.7933 S   0  0  0  0  0  0  0  0  0  0  0  0
   10.1941   18.6866    0.0819 O   0  0  0  0  0  0  0  0  0  0  0  0
    9.2952   20.8719    0.6265 O   0  0  0  0  0  0  0  0  0  0  0  0
   10.7267   19.6215    2.5403 C   0  0  0  0  0  0  0  0  0  0  0  0
   12.1175   19.4837    3.0680 C   0  0  0  0  0  0  0  0  0  0  0  0
   11.4034   20.7593    3.2837 C   0  0  0  0  0  0  0  0  0  0  0  0
   14.6983   26.2611    0.4471 C   0  0  0  0  0  0  0  0  0  0  0  0
   13.8431   26.7803    1.5195 C   0  0  0  0  0  0  0  0  0  0  0  0
   15.1456   26.1889    1.9116 C   0  0  0  0  0  0  0  0  0  0  0  0
   16.3372   25.3642   -1.5282 O   0  0  0  0  0  0  0  0  0  0  0  0
   16.6557   26.3869   -2.2788 C   0  0  0  0  0  0  0  0  0  0  0  0
   16.1982   26.5921   -3.6708 C   0  0  0  0  0  0  0  0  0  0  0  0
   14.6961   26.4878   -3.8557 C   0  0  0  0  0  0  0  0  0  0  0  0
   14.4815   25.9503   -5.2427 C   0  0  0  0  0  0  0  0  0  0  0  0
   15.1270   26.7878   -6.2740 C   0  0  0  0  0  0  0  0  0  0  0  0
   16.1955   27.7279   -5.8963 C   0  0  0  0  0  0  0  0  0  0  0  0
   16.6778   27.7189   -4.4745 C   0  0  0  0  0  0  0  0  0  0  0  0
   15.5686   25.9261   -7.4844 C   0  0  0  0  0  0  0  0  0  0  0  0
   16.4974   26.5597   -8.2498 F   0  0  0  0  0  0  0  0  0  0  0  0
   16.1455   24.7516   -7.0203 F   0  0  0  0  0  0  0  0  0  0  0  0
   14.4744   25.5552   -8.2238 F   0  0  0  0  0  0  0  0  0  0  0  0
  8  9  2  0  0  0
  9 10  1  0  0  0
 10 12  1  0  0  0
 12 13  2  0  0  0
 12 14  2  0  0  0
 12 15  1  0  0  0
 15 16  1  0  0  0
 16 17  1  0  0  0
  9  1  1  0  0  0
  1  2  2  0  0  0
  2  3  1  0  0  0
  3 18  1  0  0  0
 18 19  1  0  0  0
 19 20  1  0  0  0
  3  4  2  0  0  0
  4 21  1  0  0  0
 21 22  1  0  0  0
 22 23  1  0  0  0
 23 24  1  0  0  0
 24 25  1  0  0  0
 25 26  1  0  0  0
 26 29  1  0  0  0
 29 30  1  0  0  0
 29 31  1  0  0  0
 29 32  1  0  0  0
 26 27  1  0  0  0
 27 28  1  0  0  0
  4  5  1  0  0  0
  5  6  2  0  0  0
  6  7  1  0  0  0
 17 15  1  0  0  0
  6  1  1  0  0  0
 20 18  1  0  0  0
 28 23  1  0  0  0
 10 11  1  0  0  0
M  END
> <minimizedAffinity>
-2.06874

> <CNNscore>
0.4608324766

> <CNNaffinity>
7.2652654648

> <CNN_VS>
3.3480703831

> <CNNaffinity_variance>
0.6870327592

$$$$
[H]c1c(F)c(C(=O)N([H])S(=O)(=O)C2([H])C([H])([H])C2([H])[H])c([H])c(C2([H])C([H])([H])C2([H])[H])c1OC([H])([H])C1([H])C([H])([H])C([H])([H])C([H])(C(F)(F)F)C([H])([H])C1([H])[H]


 32 35  0  0  0  0  0  0  0  0999 V2000
   10.8146   21.4982   -0.3251 C   0  0  0  0  0  0  0  0  0  0  0  0
   11.1565   22.8543   -0.2764 C   0  0  0  0  0  0  0  0  0  0  0  0
   12.3575   23.3416   -0.6818 C   0  0  0  0  0  0  0  0  0  0  0  0
   13.3590   22.4710   -1.1917 C   0  0  0  0  0  0  0  0  0  0  0  0
   13.0037   21.1371   -1.2331 C   0  0  0  0  0  0  0  0  0  0  0  0
   11.7641   20.6627   -0.8105 C   0  0  0  0  0  0  0  0  0  0  0  0
   11.5349   19.3483   -0.8853 F   0  0  0  0  0  0  0  0  0  0  0  0
    9.3892   20.6004    1.2969 O   0  0  0  0  0  0  0  0  0  0  0  0
    9.4902   21.1383    0.1323 C   0  0  0  0  0  0  0  0  0  0  0  0
    8.2824   21.3078   -0.5472 N   0  0  0  0  0  0  0  0  0  0  0  0
    8.2279   21.7360   -1.4749 H   0  0  0  0  0  0  0  0  0  0  0  0
    6.7884   20.8138    0.1538 S   0  0  0  0  0  0  0  0  0  0  0  0
    5.8121   21.9655    0.1680 O   0  0  0  0  0  0  0  0  0  0  0  0
    6.9667   20.3593    1.5706 O   0  0  0  0  0  0  0  0  0  0  0  0
    6.0636   19.4809   -0.8144 C   0  0  0  0  0  0  0  0  0  0  0  0
    6.7989   18.9771   -2.0134 C   0  0  0  0  0  0  0  0  0  0  0  0
    6.8870   18.2067   -0.7555 C   0  0  0  0  0  0  0  0  0  0  0  0
   12.7110   24.7959   -0.6057 C   0  0  0  0  0  0  0  0  0  0  0  0
   12.2200   25.6583    0.4742 C   0  0  0  0  0  0  0  0  0  0  0  0
   13.6098   25.1519    0.5839 C   0  0  0  0  0  0  0  0  0  0  0  0
   14.5088   23.0024   -1.5769 O   0  0  0  0  0  0  0  0  0  0  0  0
   15.2718   23.2737   -2.6040 C   0  0  0  0  0  0  0  0  0  0  0  0
   15.1076   24.4415   -3.4974 C   0  0  0  0  0  0  0  0  0  0  0  0
   15.1927   24.1130   -4.9759 C   0  0  0  0  0  0  0  0  0  0  0  0
   15.7745   25.3282   -5.6418 C   0  0  0  0  0  0  0  0  0  0  0  0
   14.9846   26.5468   -5.3723 C   0  0  0  0  0  0  0  0  0  0  0  0
   14.0501   26.5818   -4.2348 C   0  0  0  0  0  0  0  0  0  0  0  0
   14.0177   25.4016   -3.3073 C   0  0  0  0  0  0  0  0  0  0  0  0
   15.8954   27.8010   -5.3620 C   0  0  0  0  0  0  0  0  0  0  0  0
   16.0746   28.3114   -6.6100 F   0  0  0  0  0  0  0  0  0  0  0  0
   15.2989   28.7900   -4.5917 F   0  0  0  0  0  0  0  0  0  0  0  0
   17.0930   27.5096   -4.7600 F   0  0  0  0  0  0  0  0  0  0  0  0
  8  9  2  0  0  0
  9 10  1  0  0  0
 10 12  1  0  0  0
 12 13  2  0  0  0
 12 14  2  0  0  0
 12 15  1  0  0  0
 15 16  1  0  0  0
 16 17  1  0  0  0
  9  1  1  0  0  0
  1  2  2  0  0  0
  2  3  1  0  0  0
  3 18  1  0  0  0
 18 19  1  0  0  0
 19 20  1  0  0  0
  3  4  2  0  0  0
  4 21  1  0  0  0
 21 22  1  0  0  0
 22 23  1  0  0  0
 23 24  1  0  0  0
 24 25  1  0  0  0
 25 26  1  0  0  0
 26 29  1  0  0  0
 29 30  1  0  0  0
 29 31  1  0  0  0
 29 32  1  0  0  0
 26 27  1  0  0  0
 27 28  1  0  0  0
  4  5  1  0  0  0
  5  6  2  0  0  0
  6  7  1  0  0  0
 17 15  1  0  0  0
  6  1  1  0  0  0
 20 18  1  0  0  0
 28 23  1  0  0  0
 10 11  1  0  0  0
M  END
> <minimizedAffinity>
-8.27787

> <CNNscore>
0.4502648115

> <CNNaffinity>
7.4246444702

> <CNN_VS>
3.3430562019

> <CNNaffinity_variance>
0.4024430215

$$$$
[H]c1c(F)c(C(=O)N([H])S(=O)(=O)C2([H])C([H])([H])C2([H])[H])c([H])c(C2([H])C([H])([H])C2([H])[H])c1OC([H])([H])C1([H])C([H])([H])C([H])([H])C([H])(C(F)(F)F)C([H])([H])C1([H])[H]


 32 35  0  0  0  0  0  0  0  0999 V2000
   12.9035   21.9383   -0.0296 C   0  0  0  0  0  0  0  0  0  0  0  0
   13.7739   21.6734   -1.0928 C   0  0  0  0  0  0  0  0  0  0  0  0
   14.2620   22.6323   -1.9213 C   0  0  0  0  0  0  0  0  0  0  0  0
   13.9016   23.9960   -1.7445 C   0  0  0  0  0  0  0  0  0  0  0  0
   13.0430   24.2385   -0.6904 C   0  0  0  0  0  0  0  0  0  0  0  0
   12.5562   23.2360    0.1452 C   0  0  0  0  0  0  0  0  0  0  0  0
   11.7203   23.5866    1.1272 F   0  0  0  0  0  0  0  0  0  0  0  0
   13.3873   19.9778    1.1496 O   0  0  0  0  0  0  0  0  0  0  0  0
   12.4815   20.8092    0.7703 C   0  0  0  0  0  0  0  0  0  0  0  0
   11.1858   20.5047    1.1920 N   0  0  0  0  0  0  0  0  0  0  0  0
   10.3807   21.0948    0.9673 H   0  0  0  0  0  0  0  0  0  0  0  0
   10.8640   19.1053    2.1437 S   0  0  0  0  0  0  0  0  0  0  0  0
   11.3586   17.8671    1.4353 O   0  0  0  0  0  0  0  0  0  0  0  0
    9.3959   18.9276    2.3856 O   0  0  0  0  0  0  0  0  0  0  0  0
   11.7198   19.2231    3.7227 C   0  0  0  0  0  0  0  0  0  0  0  0
   10.9492   19.6426    4.9320 C   0  0  0  0  0  0  0  0  0  0  0  0
   11.2201   18.2039    4.7310 C   0  0  0  0  0  0  0  0  0  0  0  0
   15.1801   22.3259   -3.0655 C   0  0  0  0  0  0  0  0  0  0  0  0
   15.0224   22.9606   -4.3782 C   0  0  0  0  0  0  0  0  0  0  0  0
   16.0679   23.5055   -3.4782 C   0  0  0  0  0  0  0  0  0  0  0  0
   14.4120   24.8882   -2.5789 O   0  0  0  0  0  0  0  0  0  0  0  0
   14.3784   25.3528   -3.8011 C   0  0  0  0  0  0  0  0  0  0  0  0
   15.1730   26.4990   -4.2946 C   0  0  0  0  0  0  0  0  0  0  0  0
   14.4664   27.8376   -4.1940 C   0  0  0  0  0  0  0  0  0  0  0  0
   14.9736   28.6659   -5.3408 C   0  0  0  0  0  0  0  0  0  0  0  0
   16.4449   28.7949   -5.3310 C   0  0  0  0  0  0  0  0  0  0  0  0
   17.2622   27.8438   -4.5590 C   0  0  0  0  0  0  0  0  0  0  0  0
   16.5687   26.6907   -3.8930 C   0  0  0  0  0  0  0  0  0  0  0  0
   16.9943   28.9321   -6.7739 C   0  0  0  0  0  0  0  0  0  0  0  0
   16.0220   29.2811   -7.6588 F   0  0  0  0  0  0  0  0  0  0  0  0
   17.9571   29.9319   -6.8008 F   0  0  0  0  0  0  0  0  0  0  0  0
   17.6263   27.7744   -7.1503 F   0  0  0  0  0  0  0  0  0  0  0  0
  8  9  2  0  0  0
  9 10  1  0  0  0
 10 12  1  0  0  0
 12 13  2  0  0  0
 12 14  2  0  0  0
 12 15  1  0  0  0
 15 16  1  0  0  0
 16 17  1  0  0  0
  9  1  1  0  0  0
  1  2  2  0  0  0
  2  3  1  0  0  0
  3 18  1  0  0  0
 18 19  1  0  0  0
 19 20  1  0  0  0
  3  4  2  0  0  0
  4 21  1  0  0  0
 21 22  1  0  0  0
 22 23  1  0  0  0
 23 24  1  0  0  0
 24 25  1  0  0  0
 25 26  1  0  0  0
 26 29  1  0  0  0
 29 30  1  0  0  0
 29 31  1  0  0  0
 29 32  1  0  0  0
 26 27  1  0  0  0
 27 28  1  0  0  0
  4  5  1  0  0  0
  5  6  2  0  0  0
  6  7  1  0  0  0
 17 15  1  0  0  0
  6  1  1  0  0  0
 20 18  1  0  0  0
 28 23  1  0  0  0
 10 11  1  0  0  0
M  END
> <minimizedAffinity>
18.12598

> <CNNscore>
0.4225491285

> <CNNaffinity>
6.8340964317

> <CNN_VS>
2.8877415657

> <CNNaffinity_variance>
0.7192434072

$$$$
[H]c1c(F)c(C(=O)N([H])S(=O)(=O)C2([H])C([H])([H])C2([H])[H])c([H])c(C2([H])C([H])([H])C2([H])[H])c1OC([H])([H])C1([H])C([H])([H])C([H])([H])C([H])(C(F)(F)F)C([H])([H])C1([H])[H]


 32 35  0  0  0  0  0  0  0  0999 V2000
   10.8686   22.4926    0.5298 C   0  0  0  0  0  0  0  0  0  0  0  0
   12.1037   21.8414    0.4367 C   0  0  0  0  0  0  0  0  0  0  0  0
   13.2970   22.4897    0.4357 C   0  0  0  0  0  0  0  0  0  0  0  0
   13.3527   23.9070    0.5320 C   0  0  0  0  0  0  0  0  0  0  0  0
   12.1248   24.5322    0.6240 C   0  0  0  0  0  0  0  0  0  0  0  0
   10.9142   23.8433    0.6225 C   0  0  0  0  0  0  0  0  0  0  0  0
    9.7858   24.5545    0.7042 F   0  0  0  0  0  0  0  0  0  0  0  0
    9.8129   20.4468    0.9404 O   0  0  0  0  0  0  0  0  0  0  0  0
    9.6858   21.6597    0.5301 C   0  0  0  0  0  0  0  0  0  0  0  0
    8.3957   22.0174    0.1337 N   0  0  0  0  0  0  0  0  0  0  0  0
    8.1624   22.9564   -0.1990 H   0  0  0  0  0  0  0  0  0  0  0  0
    7.0979   20.8865    0.1980 S   0  0  0  0  0  0  0  0  0  0  0  0
    5.8114   21.5424   -0.2431 O   0  0  0  0  0  0  0  0  0  0  0  0
    6.8842   20.3695    1.5882 O   0  0  0  0  0  0  0  0  0  0  0  0
    7.4272   19.5059   -0.9087 C   0  0  0  0  0  0  0  0  0  0  0  0
    6.3931   19.1272   -1.9183 C   0  0  0  0  0  0  0  0  0  0  0  0
    7.5459   19.9400   -2.3587 C   0  0  0  0  0  0  0  0  0  0  0  0
   14.6090   21.7751    0.3178 C   0  0  0  0  0  0  0  0  0  0  0  0
   14.7300   20.3319    0.5490 C   0  0  0  0  0  0  0  0  0  0  0  0
   14.6751   20.7950   -0.8591 C   0  0  0  0  0  0  0  0  0  0  0  0
   14.5439   24.4848    0.5316 O   0  0  0  0  0  0  0  0  0  0  0  0
   15.6128   24.7332   -0.1800 C   0  0  0  0  0  0  0  0  0  0  0  0
   15.6152   25.0422   -1.6269 C   0  0  0  0  0  0  0  0  0  0  0  0
   16.9068   25.6575   -2.1314 C   0  0  0  0  0  0  0  0  0  0  0  0
   16.5225   26.5680   -3.2635 C   0  0  0  0  0  0  0  0  0  0  0  0
   15.7753   25.8600   -4.3228 C   0  0  0  0  0  0  0  0  0  0  0  0
   15.1319   24.5679   -4.0320 C   0  0  0  0  0  0  0  0  0  0  0  0
   15.1605   24.0640   -2.6179 C   0  0  0  0  0  0  0  0  0  0  0  0
   14.7759   26.8158   -5.0230 C   0  0  0  0  0  0  0  0  0  0  0  0
   13.6436   26.9951   -4.2910 F   0  0  0  0  0  0  0  0  0  0  0  0
   15.3701   28.0608   -5.1787 F   0  0  0  0  0  0  0  0  0  0  0  0
   14.4929   26.3603   -6.2855 F   0  0  0  0  0  0  0  0  0  0  0  0
  8  9  2  0  0  0
  9 10  1  0  0  0
 10 12  1  0  0  0
 12 13  2  0  0  0
 12 14  2  0  0  0
 12 15  1  0  0  0
 15 16  1  0  0  0
 16 17  1  0  0  0
  9  1  1  0  0  0
  1  2  2  0  0  0
  2  3  1  0  0  0
  3 18  1  0  0  0
 18 19  1  0  0  0
 19 20  1  0  0  0
  3  4  2  0  0  0
  4 21  1  0  0  0
 21 22  1  0  0  0
 22 23  1  0  0  0
 23 24  1  0  0  0
 24 25  1  0  0  0
 25 26  1  0  0  0
 26 29  1  0  0  0
 29 30  1  0  0  0
 29 31  1  0  0  0
 29 32  1  0  0  0
 26 27  1  0  0  0
 27 28  1  0  0  0
  4  5  1  0  0  0
  5  6  2  0  0  0
  6  7  1  0  0  0
 17 15  1  0  0  0
  6  1  1  0  0  0
 20 18  1  0  0  0
 28 23  1  0  0  0
 10 11  1  0  0  0
M  END
> <minimizedAffinity>
-9.77560

> <CNNscore>
0.4020918906

> <CNNaffinity>
7.4523401260

> <CNN_VS>
2.9965255260

> <CNNaffinity_variance>
0.1161949262

$$$$
[H]c1c(F)c(C(=O)N([H])S(=O)(=O)C2([H])C([H])([H])C2([H])[H])c([H])c(C2([H])C([H])([H])C2([H])[H])c1OC([H])([H])C1([H])C([H])([H])C([H])([H])C([H])(C(F)(F)F)C([H])([H])C1([H])[H]


 32 35  0  0  0  0  0  0  0  0999 V2000
   13.0277   21.6308    0.9901 C   0  0  0  0  0  0  0  0  0  0  0  0
   12.8460   22.8457    0.3199 C   0  0  0  0  0  0  0  0  0  0  0  0
   13.5135   23.1865   -0.8126 C   0  0  0  0  0  0  0  0  0  0  0  0
   14.4601   22.2982   -1.3920 C   0  0  0  0  0  0  0  0  0  0  0  0
   14.6255   21.1043   -0.7177 C   0  0  0  0  0  0  0  0  0  0  0  0
   13.9280   20.7790    0.4432 C   0  0  0  0  0  0  0  0  0  0  0  0
   14.1786   19.5987    1.0176 F   0  0  0  0  0  0  0  0  0  0  0  0
   12.8353   21.4516    3.3138 O   0  0  0  0  0  0  0  0  0  0  0  0
   12.2319   21.4110    2.1780 C   0  0  0  0  0  0  0  0  0  0  0  0
   10.8607   21.1568    2.2460 N   0  0  0  0  0  0  0  0  0  0  0  0
   10.2668   21.1133    1.4139 H   0  0  0  0  0  0  0  0  0  0  0  0
   10.0732   20.9143    3.7588 S   0  0  0  0  0  0  0  0  0  0  0  0
   10.6162   21.8742    4.7900 O   0  0  0  0  0  0  0  0  0  0  0  0
   10.2918   19.5260    4.2789 O   0  0  0  0  0  0  0  0  0  0  0  0
    8.3071   21.2179    3.5905 C   0  0  0  0  0  0  0  0  0  0  0  0
    7.8483   22.5421    3.0728 C   0  0  0  0  0  0  0  0  0  0  0  0
    7.8839   21.3941    2.1431 C   0  0  0  0  0  0  0  0  0  0  0  0
   13.3173   24.5003   -1.5063 C   0  0  0  0  0  0  0  0  0  0  0  0
   12.0337   25.2092   -1.4768 C   0  0  0  0  0  0  0  0  0  0  0  0
   13.0926   25.6768   -0.5494 C   0  0  0  0  0  0  0  0  0  0  0  0
   15.0769   22.6810   -2.4991 O   0  0  0  0  0  0  0  0  0  0  0  0
   16.0647   23.3878   -2.9843 C   0  0  0  0  0  0  0  0  0  0  0  0
   15.9127   24.6519   -3.7379 C   0  0  0  0  0  0  0  0  0  0  0  0
   14.9987   25.6663   -3.0771 C   0  0  0  0  0  0  0  0  0  0  0  0
   14.3570   26.4413   -4.1934 C   0  0  0  0  0  0  0  0  0  0  0  0
   15.3538   27.0670   -5.0859 C   0  0  0  0  0  0  0  0  0  0  0  0
   16.7426   26.5776   -5.0966 C   0  0  0  0  0  0  0  0  0  0  0  0
   17.0739   25.3671   -4.2726 C   0  0  0  0  0  0  0  0  0  0  0  0
   14.8069   27.1720   -6.5325 C   0  0  0  0  0  0  0  0  0  0  0  0
   14.7178   28.4629   -6.9517 F   0  0  0  0  0  0  0  0  0  0  0  0
   15.6738   26.5152   -7.3953 F   0  0  0  0  0  0  0  0  0  0  0  0
   13.6004   26.5265   -6.6289 F   0  0  0  0  0  0  0  0  0  0  0  0
  8  9  2  0  0  0
  9 10  1  0  0  0
 10 12  1  0  0  0
 12 13  2  0  0  0
 12 14  2  0  0  0
 12 15  1  0  0  0
 15 16  1  0  0  0
 16 17  1  0  0  0
  9  1  1  0  0  0
  1  2  2  0  0  0
  2  3  1  0  0  0
  3 18  1  0  0  0
 18 19  1  0  0  0
 19 20  1  0  0  0
  3  4  2  0  0  0
  4 21  1  0  0  0
 21 22  1  0  0  0
 22 23  1  0  0  0
 23 24  1  0  0  0
 24 25  1  0  0  0
 25 26  1  0  0  0
 26 29  1  0  0  0
 29 30  1  0  0  0
 29 31  1  0  0  0
 29 32  1  0  0  0
 26 27  1  0  0  0
 27 28  1  0  0  0
  4  5  1  0  0  0
  5  6  2  0  0  0
  6  7  1  0  0  0
 17 15  1  0  0  0
  6  1  1  0  0  0
 20 18  1  0  0  0
 28 23  1  0  0  0
 10 11  1  0  0  0
M  END
> <minimizedAffinity>
-0.73352

> <CNNscore>
0.3589798212

> <CNNaffinity>
7.1186423302

> <CNN_VS>
2.5554490089

> <CNNaffinity_variance>
0.3586769700

$$$$
[H]c1c(F)c(C(=O)N([H])S(=O)(=O)C2([H])C([H])([H])C2([H])[H])c([H])c(C2([H])C([H])([H])C2([H])[H])c1OC([H])([H])C1([H])C([H])([H])C([H])([H])C([H])(C(F)(F)F)C([H])([H])C1([H])[H]


 32 35  0  0  0  0  0  0  0  0999 V2000
   10.5011   22.8386    0.4502 C   0  0  0  0  0  0  0  0  0  0  0  0
   11.4638   22.0564   -0.1977 C   0  0  0  0  0  0  0  0  0  0  0  0
   12.7356   22.4709   -0.4318 C   0  0  0  0  0  0  0  0  0  0  0  0
   13.1662   23.7608   -0.0174 C   0  0  0  0  0  0  0  0  0  0  0  0
   12.2035   24.5178    0.6208 C   0  0  0  0  0  0  0  0  0  0  0  0
   10.9047   24.0689    0.8484 C   0  0  0  0  0  0  0  0  0  0  0  0
   10.0533   24.8936    1.4656 F   0  0  0  0  0  0  0  0  0  0  0  0
    8.6116   22.4365    1.7680 O   0  0  0  0  0  0  0  0  0  0  0  0
    9.1929   22.2496    0.6353 C   0  0  0  0  0  0  0  0  0  0  0  0
    8.4668   21.4890   -0.2832 N   0  0  0  0  0  0  0  0  0  0  0  0
    8.8142   21.2816   -1.2230 H   0  0  0  0  0  0  0  0  0  0  0  0
    6.9129   20.8592    0.1119 S   0  0  0  0  0  0  0  0  0  0  0  0
    5.9175   21.9840    0.2661 O   0  0  0  0  0  0  0  0  0  0  0  0
    6.9366   20.1007    1.4041 O   0  0  0  0  0  0  0  0  0  0  0  0
    6.3323   19.7782   -1.2048 C   0  0  0  0  0  0  0  0  0  0  0  0
    7.1751   19.6126   -2.4273 C   0  0  0  0  0  0  0  0  0  0  0  0
    7.2205   18.5608   -1.3902 C   0  0  0  0  0  0  0  0  0  0  0  0
   13.7473   21.6244   -1.1429 C   0  0  0  0  0  0  0  0  0  0  0  0
   14.6569   20.7299   -0.4193 C   0  0  0  0  0  0  0  0  0  0  0  0
   13.4645   20.1202   -1.0568 C   0  0  0  0  0  0  0  0  0  0  0  0
   14.4187   24.1093   -0.2674 O   0  0  0  0  0  0  0  0  0  0  0  0
   15.1949   24.8478   -1.0176 C   0  0  0  0  0  0  0  0  0  0  0  0
   14.9479   25.1618   -2.4422 C   0  0  0  0  0  0  0  0  0  0  0  0
   15.0762   23.9722   -3.3747 C   0  0  0  0  0  0  0  0  0  0  0  0
   15.5665   24.5191   -4.6858 C   0  0  0  0  0  0  0  0  0  0  0  0
   14.6784   25.5710   -5.2211 C   0  0  0  0  0  0  0  0  0  0  0  0
   13.7310   26.2593   -4.3283 C   0  0  0  0  0  0  0  0  0  0  0  0
   13.7825   25.9441   -2.8613 C   0  0  0  0  0  0  0  0  0  0  0  0
   15.4856   26.6021   -6.0505 C   0  0  0  0  0  0  0  0  0  0  0  0
   14.6974   27.6036   -6.5259 F   0  0  0  0  0  0  0  0  0  0  0  0
   16.4500   27.1839   -5.2388 F   0  0  0  0  0  0  0  0  0  0  0  0
   16.1609   25.9688   -7.0626 F   0  0  0  0  0  0  0  0  0  0  0  0
  8  9  2  0  0  0
  9 10  1  0  0  0
 10 12  1  0  0  0
 12 13  2  0  0  0
 12 14  2  0  0  0
 12 15  1  0  0  0
 15 16  1  0  0  0
 16 17  1  0  0  0
  9  1  1  0  0  0
  1  2  2  0  0  0
  2  3  1  0  0  0
  3 18  1  0  0  0
 18 19  1  0  0  0
 19 20  1  0  0  0
  3  4  2  0  0  0
  4 21  1  0  0  0
 21 22  1  0  0  0
 22 23  1  0  0  0
 23 24  1  0  0  0
 24 25  1  0  0  0
 25 26  1  0  0  0
 26 29  1  0  0  0
 29 30  1  0  0  0
 29 31  1  0  0  0
 29 32  1  0  0  0
 26 27  1  0  0  0
 27 28  1  0  0  0
  4  5  1  0  0  0
  5  6  2  0  0  0
  6  7  1  0  0  0
 17 15  1  0  0  0
  6  1  1  0  0  0
 20 18  1  0  0  0
 28 23  1  0  0  0
 10 11  1  0  0  0
M  END
> <minimizedAffinity>
-9.33236

> <CNNscore>
0.3336174786

> <CNNaffinity>
7.4096364975

> <CNN_VS>
2.4719841480

> <CNNaffinity_variance>
0.1246704608

$$$$
[H]c1c(F)c(C(=O)N([H])S(=O)(=O)C2([H])C([H])([H])C2([H])[H])c([H])c(C2([H])C([H])([H])C2([H])[H])c1OC([H])([H])C1([H])C([H])([H])C([H])([H])C([H])(C(F)(F)F)C([H])([H])C1([H])[H]


 32 35  0  0  0  0  0  0  0  0999 V2000
   11.8647   23.1518   -0.9250 C   0  0  0  0  0  0  0  0  0  0  0  0
   13.1253   23.1030   -1.5306 C   0  0  0  0  0  0  0  0  0  0  0  0
   13.6140   24.0865   -2.3294 C   0  0  0  0  0  0  0  0  0  0  0  0
   12.8451   25.2515   -2.5988 C   0  0  0  0  0  0  0  0  0  0  0  0
   11.6048   25.2826   -1.9923 C   0  0  0  0  0  0  0  0  0  0  0  0
   11.1266   24.2595   -1.1769 C   0  0  0  0  0  0  0  0  0  0  0  0
    9.9048   24.3924   -0.6524 F   0  0  0  0  0  0  0  0  0  0  0  0
   12.1281   20.9240   -0.2649 O   0  0  0  0  0  0  0  0  0  0  0  0
   11.4931   22.0295   -0.0913 C   0  0  0  0  0  0  0  0  0  0  0  0
   10.5111   21.9976    0.9007 N   0  0  0  0  0  0  0  0  0  0  0  0
    9.9467   22.8158    1.1434 H   0  0  0  0  0  0  0  0  0  0  0  0
   10.1985   20.5616    1.7995 S   0  0  0  0  0  0  0  0  0  0  0  0
    9.8776   19.4201    0.8648 O   0  0  0  0  0  0  0  0  0  0  0  0
    9.0284   20.7301    2.7203 O   0  0  0  0  0  0  0  0  0  0  0  0
   11.6520   20.1051    2.7578 C   0  0  0  0  0  0  0  0  0  0  0  0
   12.5805   21.1812    3.2182 C   0  0  0  0  0  0  0  0  0  0  0  0
   11.5999   20.6354    4.1795 C   0  0  0  0  0  0  0  0  0  0  0  0
   14.9603   24.0076   -2.9829 C   0  0  0  0  0  0  0  0  0  0  0  0
   15.4144   25.0140   -3.9482 C   0  0  0  0  0  0  0  0  0  0  0  0
   15.9197   25.1253   -2.5582 C   0  0  0  0  0  0  0  0  0  0  0  0
   13.3744   26.1799   -3.3802 O   0  0  0  0  0  0  0  0  0  0  0  0
   13.8764   27.3871   -3.4194 C   0  0  0  0  0  0  0  0  0  0  0  0
   13.0862   28.6297   -3.5624 C   0  0  0  0  0  0  0  0  0  0  0  0
   12.4337   29.1055   -2.2782 C   0  0  0  0  0  0  0  0  0  0  0  0
   11.1610   29.7932   -2.6852 C   0  0  0  0  0  0  0  0  0  0  0  0
   11.3994   30.8903   -3.6450 C   0  0  0  0  0  0  0  0  0  0  0  0
   12.6596   30.9430   -4.4048 C   0  0  0  0  0  0  0  0  0  0  0  0
   13.6229   29.8005   -4.2602 C   0  0  0  0  0  0  0  0  0  0  0  0
   10.1875   31.0612   -4.5963 C   0  0  0  0  0  0  0  0  0  0  0  0
   10.2631   32.2125   -5.3167 F   0  0  0  0  0  0  0  0  0  0  0  0
   10.1666   30.0076   -5.5001 F   0  0  0  0  0  0  0  0  0  0  0  0
    9.0162   30.9870   -3.8864 F   0  0  0  0  0  0  0  0  0  0  0  0
  8  9  2  0  0  0
  9 10  1  0  0  0
 10 12  1  0  0  0
 12 13  2  0  0  0
 12 14  2  0  0  0
 12 15  1  0  0  0
 15 16  1  0  0  0
 16 17  1  0  0  0
  9  1  1  0  0  0
  1  2  2  0  0  0
  2  3  1  0  0  0
  3 18  1  0  0  0
 18 19  1  0  0  0
 19 20  1  0  0  0
  3  4  2  0  0  0
  4 21  1  0  0  0
 21 22  1  0  0  0
 22 23  1  0  0  0
 23 24  1  0  0  0
 24 25  1  0  0  0
 25 26  1  0  0  0
 26 29  1  0  0  0
 29 30  1  0  0  0
 29 31  1  0  0  0
 29 32  1  0  0  0
 26 27  1  0  0  0
 27 28  1  0  0  0
  4  5  1  0  0  0
  5  6  2  0  0  0
  6  7  1  0  0  0
 17 15  1  0  0  0
  6  1  1  0  0  0
 20 18  1  0  0  0
 28 23  1  0  0  0
 10 11  1  0  0  0
M  END
> <minimizedAffinity>
17.99650

> <CNNscore>
0.2853260040

> <CNNaffinity>
6.6637024879

> <CNN_VS>
1.9013276100

> <CNNaffinity_variance>
0.9611666799

$$$$
[H]c1c(F)c(C(=O)N([H])S(=O)(=O)C2([H])C([H])([H])C2([H])[H])c([H])c(C2([H])C([H])([H])C2([H])[H])c1OC([H])([H])C1([H])C([H])([H])C([H])([H])C([H])(C(F)(F)F)C([H])([H])C1([H])[H]


 32 35  0  0  0  0  0  0  0  0999 V2000
   10.6404   21.5520    0.9980 C   0  0  0  0  0  0  0  0  0  0  0  0
   11.1175   22.8556    0.8211 C   0  0  0  0  0  0  0  0  0  0  0  0
   11.9653   23.2167   -0.1764 C   0  0  0  0  0  0  0  0  0  0  0  0
   12.4253   22.2582   -1.1202 C   0  0  0  0  0  0  0  0  0  0  0  0
   11.9436   20.9779   -0.9305 C   0  0  0  0  0  0  0  0  0  0  0  0
   11.0741   20.6334    0.1018 C   0  0  0  0  0  0  0  0  0  0  0  0
   10.6824   19.3592    0.1952 F   0  0  0  0  0  0  0  0  0  0  0  0
   10.1461   20.5929    3.0727 O   0  0  0  0  0  0  0  0  0  0  0  0
    9.7325   21.3295    2.1021 C   0  0  0  0  0  0  0  0  0  0  0  0
    8.4363   21.8272    2.2486 N   0  0  0  0  0  0  0  0  0  0  0  0
    7.9981   22.4357    1.5524 H   0  0  0  0  0  0  0  0  0  0  0  0
    7.4901   21.4540    3.6389 S   0  0  0  0  0  0  0  0  0  0  0  0
    7.7185   20.0211    4.0566 O   0  0  0  0  0  0  0  0  0  0  0  0
    6.0248   21.6146    3.3691 O   0  0  0  0  0  0  0  0  0  0  0  0
    7.9648   22.5168    5.0117 C   0  0  0  0  0  0  0  0  0  0  0  0
    9.1295   23.4372    4.8428 C   0  0  0  0  0  0  0  0  0  0  0  0
    7.7662   23.9896    4.7009 C   0  0  0  0  0  0  0  0  0  0  0  0
   12.4787   24.6152   -0.3388 C   0  0  0  0  0  0  0  0  0  0  0  0
   12.3220   25.6262    0.7120 C   0  0  0  0  0  0  0  0  0  0  0  0
   13.6419   24.9592    0.5985 C   0  0  0  0  0  0  0  0  0  0  0  0
   13.2464   22.6682   -2.0743 O   0  0  0  0  0  0  0  0  0  0  0  0
   14.4482   23.1147   -2.3333 C   0  0  0  0  0  0  0  0  0  0  0  0
   14.7488   24.3745   -3.0485 C   0  0  0  0  0  0  0  0  0  0  0  0
   13.6598   25.4255   -2.9456 C   0  0  0  0  0  0  0  0  0  0  0  0
   13.7113   26.2085   -4.2273 C   0  0  0  0  0  0  0  0  0  0  0  0
   15.0458   26.7913   -4.4744 C   0  0  0  0  0  0  0  0  0  0  0  0
   16.2243   26.2568   -3.7716 C   0  0  0  0  0  0  0  0  0  0  0  0
   16.0429   25.0455   -2.9034 C   0  0  0  0  0  0  0  0  0  0  0  0
   15.3260   26.8979   -5.9952 C   0  0  0  0  0  0  0  0  0  0  0  0
   16.1242   27.9580   -6.2937 F   0  0  0  0  0  0  0  0  0  0  0  0
   15.9850   25.7513   -6.4177 F   0  0  0  0  0  0  0  0  0  0  0  0
   14.1446   26.9450   -6.6905 F   0  0  0  0  0  0  0  0  0  0  0  0
  8  9  2  0  0  0
  9 10  1  0  0  0
 10 12  1  0  0  0
 12 13  2  0  0  0
 12 14  2  0  0  0
 12 15  1  0  0  0
 15 16  1  0  0  0
 16 17  1  0  0  0
  9  1  1  0  0  0
  1  2  2  0  0  0
  2  3  1  0  0  0
  3 18  1  0  0  0
 18 19  1  0  0  0
 19 20  1  0  0  0
  3  4  2  0  0  0
  4 21  1  0  0  0
 21 22  1  0  0  0
 22 23  1  0  0  0
 23 24  1  0  0  0
 24 25  1  0  0  0
 25 26  1  0  0  0
 26 29  1  0  0  0
 29 30  1  0  0  0
 29 31  1  0  0  0
 29 32  1  0  0  0
 26 27  1  0  0  0
 27 28  1  0  0  0
  4  5  1  0  0  0
  5  6  2  0  0  0
  6  7  1  0  0  0
 17 15  1  0  0  0
  6  1  1  0  0  0
 20 18  1  0  0  0
 28 23  1  0  0  0
 10 11  1  0  0  0
M  END
> <minimizedAffinity>
-9.33476

> <CNNscore>
0.2736936212

> <CNNaffinity>
7.0120787621

> <CNN_VS>
1.9191612005

> <CNNaffinity_variance>
0.2510685027

$$$$
[H]c1c(F)c(C(=O)N([H])S(=O)(=O)C2([H])C([H])([H])C2([H])[H])c([H])c(C2([H])C([H])([H])C2([H])[H])c1OC([H])([H])C1([H])C([H])([H])C([H])([H])C([H])(C(F)(F)F)C([H])([H])C1([H])[H]


 32 35  0  0  0  0  0  0  0  0999 V2000
   13.6097   24.2676   -1.7797 C   0  0  0  0  0  0  0  0  0  0  0  0
   14.0303   23.0730   -1.1845 C   0  0  0  0  0  0  0  0  0  0  0  0
   13.4679   22.5534   -0.0629 C   0  0  0  0  0  0  0  0  0  0  0  0
   12.3901   23.2182    0.5831 C   0  0  0  0  0  0  0  0  0  0  0  0
   11.9882   24.3945   -0.0186 C   0  0  0  0  0  0  0  0  0  0  0  0
   12.5825   24.9063   -1.1697 C   0  0  0  0  0  0  0  0  0  0  0  0
   12.1181   26.0606   -1.6573 F   0  0  0  0  0  0  0  0  0  0  0  0
   15.1291   23.8491   -3.5074 O   0  0  0  0  0  0  0  0  0  0  0  0
   14.3026   24.6825   -2.9799 C   0  0  0  0  0  0  0  0  0  0  0  0
   14.1815   25.9003   -3.6519 N   0  0  0  0  0  0  0  0  0  0  0  0
   13.5474   26.6404   -3.3404 H   0  0  0  0  0  0  0  0  0  0  0  0
   15.0942   26.2271   -5.0759 S   0  0  0  0  0  0  0  0  0  0  0  0
   14.3130   27.1288   -6.0013 O   0  0  0  0  0  0  0  0  0  0  0  0
   15.4071   24.9715   -5.8315 O   0  0  0  0  0  0  0  0  0  0  0  0
   16.6286   27.0642   -4.6466 C   0  0  0  0  0  0  0  0  0  0  0  0
   16.5718   28.2674   -3.7627 C   0  0  0  0  0  0  0  0  0  0  0  0
   16.9468   26.9690   -3.1651 C   0  0  0  0  0  0  0  0  0  0  0  0
   13.9441   21.2809    0.5692 C   0  0  0  0  0  0  0  0  0  0  0  0
   14.9036   20.3948   -0.0980 C   0  0  0  0  0  0  0  0  0  0  0  0
   15.4280   21.2996    0.9539 C   0  0  0  0  0  0  0  0  0  0  0  0
   11.8775   22.6627    1.6700 O   0  0  0  0  0  0  0  0  0  0  0  0
   10.7703   22.3312    2.2822 C   0  0  0  0  0  0  0  0  0  0  0  0
    9.8127   23.2878    2.8798 C   0  0  0  0  0  0  0  0  0  0  0  0
    8.5084   23.4235    2.1173 C   0  0  0  0  0  0  0  0  0  0  0  0
    8.0480   24.8391    2.3241 C   0  0  0  0  0  0  0  0  0  0  0  0
    7.9113   25.1803    3.7546 C   0  0  0  0  0  0  0  0  0  0  0  0
    8.5891   24.3627    4.7746 C   0  0  0  0  0  0  0  0  0  0  0  0
    9.5020   23.2646    4.3111 C   0  0  0  0  0  0  0  0  0  0  0  0
    8.1980   26.6852    3.9905 C   0  0  0  0  0  0  0  0  0  0  0  0
    9.5315   26.9483    4.0428 F   0  0  0  0  0  0  0  0  0  0  0  0
    7.6719   27.4192    2.9360 F   0  0  0  0  0  0  0  0  0  0  0  0
    7.5545   27.1164    5.1226 F   0  0  0  0  0  0  0  0  0  0  0  0
  8  9  2  0  0  0
  9 10  1  0  0  0
 10 12  1  0  0  0
 12 13  2  0  0  0
 12 14  2  0  0  0
 12 15  1  0  0  0
 15 16  1  0  0  0
 16 17  1  0  0  0
  9  1  1  0  0  0
  1  2  2  0  0  0
  2  3  1  0  0  0
  3 18  1  0  0  0
 18 19  1  0  0  0
 19 20  1  0  0  0
  3  4  2  0  0  0
  4 21  1  0  0  0
 21 22  1  0  0  0
 22 23  1  0  0  0
 23 24  1  0  0  0
 24 25  1  0  0  0
 25 26  1  0  0  0
 26 29  1  0  0  0
 29 30  1  0  0  0
 29 31  1  0  0  0
 29 32  1  0  0  0
 26 27  1  0  0  0
 27 28  1  0  0  0
  4  5  1  0  0  0
  5  6  2  0  0  0
  6  7  1  0  0  0
 17 15  1  0  0  0
  6  1  1  0  0  0
 20 18  1  0  0  0
 28 23  1  0  0  0
 10 11  1  0  0  0
M  END
> <minimizedAffinity>
-8.79778

> <CNNscore>
0.2409196198

> <CNNaffinity>
6.9467477798

> <CNN_VS>
1.6736078262

> <CNNaffinity_variance>
0.1779789925

$$$$
[H]OC(=O)C1=C([H])[C@@]([H])(O[C@@]([H])(C([H])([H])C([H])([H])[H])C([H])([H])C([H])([H])C([H])([H])C([H])([H])C([H])([H])C([H])([H])C([H])([H])[H])[C@]([H])(N([H])C(=O)C([H])([H])[H])[C@@]([H])(N([H])[H])C1([H])[H]


 29 29  0  0  0  0  0  0  0  0999 V2000
   11.2627   23.9412    0.6506 C   0  0  0  0  0  0  0  0  0  0  0  0
   10.3101   24.4657    1.7077 C   0  0  0  0  0  0  0  0  0  0  0  0
    9.0412   24.0598    1.6523 C   0  0  0  0  0  0  0  0  0  0  0  0
    8.7736   23.0996    0.5157 C   0  0  0  0  0  0  0  0  0  0  0  0
    9.7195   21.9524    0.7610 C   0  0  0  0  0  0  0  0  0  0  0  0
    9.3403   21.2532    1.9851 N   0  0  0  0  0  0  0  0  0  0  0  0
   11.1396   22.4434    0.8227 C   0  0  0  0  0  0  0  0  0  0  0  0
    8.3953   21.5510    2.3130 H   0  0  0  0  0  0  0  0  0  0  0  0
    9.3080   20.2088    1.7824 H   0  0  0  0  0  0  0  0  0  0  0  0
   11.8659   21.6705   -0.1585 N   0  0  0  0  0  0  0  0  0  0  0  0
   13.1317   21.1019    0.0975 C   0  0  0  0  0  0  0  0  0  0  0  0
   13.8834   20.3082   -0.9027 C   0  0  0  0  0  0  0  0  0  0  0  0
   13.6511   21.2740    1.2271 O   0  0  0  0  0  0  0  0  0  0  0  0
   11.4279   21.5330   -1.0923 H   0  0  0  0  0  0  0  0  0  0  0  0
    7.9902   24.4365    2.5481 C   0  0  0  0  0  0  0  0  0  0  0  0
    7.8130   25.6198    2.9529 O   0  0  0  0  0  0  0  0  0  0  0  0
    7.1124   23.4480    3.0006 O   0  0  0  0  0  0  0  0  0  0  0  0
    6.1328   23.7315    3.0967 H   0  0  0  0  0  0  0  0  0  0  0  0
   12.4945   24.4354    0.9119 O   0  0  0  0  0  0  0  0  0  0  0  0
   13.2189   24.9879   -0.1493 C   0  0  0  0  0  0  0  0  0  0  0  0
   14.4389   24.2573   -0.5486 C   0  0  0  0  0  0  0  0  0  0  0  0
   15.5407   24.4175    0.5006 C   0  0  0  0  0  0  0  0  0  0  0  0
   12.3760   25.3983   -1.2755 C   0  0  0  0  0  0  0  0  0  0  0  0
   12.7857   25.3909   -2.6802 C   0  0  0  0  0  0  0  0  0  0  0  0
   13.1173   26.6833   -3.2936 C   0  0  0  0  0  0  0  0  0  0  0  0
   13.9270   26.4368   -4.6147 C   0  0  0  0  0  0  0  0  0  0  0  0
   15.2299   25.8212   -4.1453 C   0  0  0  0  0  0  0  0  0  0  0  0
   16.8921   26.2875   -2.4303 C   0  0  0  0  0  0  0  0  0  0  0  0
   16.1881   26.8513   -3.6260 C   0  0  0  0  0  0  0  0  0  0  0  0
 28 29  1  0  0  0
 29 27  1  0  0  0
 27 26  1  0  0  0
 26 25  1  0  0  0
 25 24  1  0  0  0
 24 23  1  0  0  0
 23 20  1  0  0  0
 20 21  1  0  0  0
 21 22  1  0  0  0
 20 19  1  0  0  0
 19  1  1  0  0  0
  1  2  1  0  0  0
  2  3  2  0  0  0
  3 15  1  0  0  0
 15 16  2  0  0  0
 15 17  1  0  0  0
  3  4  1  0  0  0
  4  5  1  0  0  0
  5  6  1  0  0  0
  5  7  1  0  0  0
  7 10  1  0  0  0
 10 11  1  0  0  0
 11 12  1  0  0  0
 11 13  2  0  0  0
  7  1  1  0  0  0
 17 18  1  0  0  0
  6  8  1  0  0  0
  6  9  1  0  0  0
 10 14  1  0  0  0
M  END
> <minimizedAffinity>
-7.26109

> <CNNscore>
0.6427646875

> <CNNaffinity>
6.6524186134

> <CNN_VS>
4.2759399414

> <CNNaffinity_variance>
0.1153663844

$$$$
[H]OC(=O)C1=C([H])[C@@]([H])(O[C@@]([H])(C([H])([H])C([H])([H])[H])C([H])([H])C([H])([H])C([H])([H])C([H])([H])C([H])([H])C([H])([H])C([H])([H])[H])[C@]([H])(N([H])C(=O)C([H])([H])[H])[C@@]([H])(N([H])[H])C1([H])[H]


 29 29  0  0  0  0  0  0  0  0999 V2000
   11.8187   22.6150    0.5764 C   0  0  0  0  0  0  0  0  0  0  0  0
   11.1075   21.8912    1.7035 C   0  0  0  0  0  0  0  0  0  0  0  0
   10.2451   22.5916    2.4408 C   0  0  0  0  0  0  0  0  0  0  0  0
   10.1116   24.0294    1.9933 C   0  0  0  0  0  0  0  0  0  0  0  0
    9.6737   23.9369    0.5543 C   0  0  0  0  0  0  0  0  0  0  0  0
    8.3348   23.3600    0.4819 N   0  0  0  0  0  0  0  0  0  0  0  0
   10.6635   23.1381   -0.2481 C   0  0  0  0  0  0  0  0  0  0  0  0
    7.8853   23.3290    1.4233 H   0  0  0  0  0  0  0  0  0  0  0  0
    7.7366   23.9708   -0.1521 H   0  0  0  0  0  0  0  0  0  0  0  0
   11.0556   23.9886   -1.3484 N   0  0  0  0  0  0  0  0  0  0  0  0
   11.9642   25.0586   -1.2043 C   0  0  0  0  0  0  0  0  0  0  0  0
   12.3715   25.9356   -2.3269 C   0  0  0  0  0  0  0  0  0  0  0  0
   12.4546   25.2827   -0.0709 O   0  0  0  0  0  0  0  0  0  0  0  0
   10.6439   23.7956   -2.2844 H   0  0  0  0  0  0  0  0  0  0  0  0
    9.4776   22.0998    3.5444 C   0  0  0  0  0  0  0  0  0  0  0  0
    9.1759   20.8824    3.6933 O   0  0  0  0  0  0  0  0  0  0  0  0
    9.0374   23.0094    4.5095 O   0  0  0  0  0  0  0  0  0  0  0  0
    9.0511   22.6743    5.4774 H   0  0  0  0  0  0  0  0  0  0  0  0
   12.6062   21.7223   -0.0660 O   0  0  0  0  0  0  0  0  0  0  0  0
   13.8255   22.1738   -0.5814 C   0  0  0  0  0  0  0  0  0  0  0  0
   15.0011   22.0025    0.2960 C   0  0  0  0  0  0  0  0  0  0  0  0
   15.1281   20.5513    0.7635 C   0  0  0  0  0  0  0  0  0  0  0  0
   14.0551   21.7655   -1.9698 C   0  0  0  0  0  0  0  0  0  0  0  0
   15.0285   22.3749   -2.8766 C   0  0  0  0  0  0  0  0  0  0  0  0
   15.0670   23.8417   -2.9391 C   0  0  0  0  0  0  0  0  0  0  0  0
   15.4035   24.2887   -4.4049 C   0  0  0  0  0  0  0  0  0  0  0  0
   15.4380   25.8021   -4.3357 C   0  0  0  0  0  0  0  0  0  0  0  0
   15.5159   26.4409   -6.6825 C   0  0  0  0  0  0  0  0  0  0  0  0
   14.6632   26.4377   -5.4512 C   0  0  0  0  0  0  0  0  0  0  0  0
 28 29  1  0  0  0
 29 27  1  0  0  0
 27 26  1  0  0  0
 26 25  1  0  0  0
 25 24  1  0  0  0
 24 23  1  0  0  0
 23 20  1  0  0  0
 20 21  1  0  0  0
 21 22  1  0  0  0
 20 19  1  0  0  0
 19  1  1  0  0  0
  1  2  1  0  0  0
  2  3  2  0  0  0
  3 15  1  0  0  0
 15 16  2  0  0  0
 15 17  1  0  0  0
  3  4  1  0  0  0
  4  5  1  0  0  0
  5  6  1  0  0  0
  5  7  1  0  0  0
  7 10  1  0  0  0
 10 11  1  0  0  0
 11 12  1  0  0  0
 11 13  2  0  0  0
  7  1  1  0  0  0
 17 18  1  0  0  0
  6  8  1  0  0  0
  6  9  1  0  0  0
 10 14  1  0  0  0
M  END
> <minimizedAffinity>
-6.89932

> <CNNscore>
0.5909765363

> <CNNaffinity>
6.7646942139

> <CNN_VS>
3.9977755547

> <CNNaffinity_variance>
0.0051878970

$$$$
[H]OC(=O)C1=C([H])[C@@]([H])(O[C@@]([H])(C([H])([H])C([H])([H])[H])C([H])([H])C([H])([H])C([H])([H])C([H])([H])C([H])([H])C([H])([H])C([H])([H])[H])[C@]([H])(N([H])C(=O)C([H])([H])[H])[C@@]([H])(N([H])[H])C1([H])[H]


 29 29  0  0  0  0  0  0  0  0999 V2000
   11.2528   22.3916    2.3996 C   0  0  0  0  0  0  0  0  0  0  0  0
   11.4848   20.9047    2.5879 C   0  0  0  0  0  0  0  0  0  0  0  0
   11.4229   20.4218    3.8292 C   0  0  0  0  0  0  0  0  0  0  0  0
   11.1023   21.4779    4.8623 C   0  0  0  0  0  0  0  0  0  0  0  0
    9.7819   22.0519    4.4171 C   0  0  0  0  0  0  0  0  0  0  0  0
    8.7388   21.0373    4.5320 N   0  0  0  0  0  0  0  0  0  0  0  0
    9.8838   22.5829    3.0138 C   0  0  0  0  0  0  0  0  0  0  0  0
    9.0704   20.2151    5.0826 H   0  0  0  0  0  0  0  0  0  0  0  0
    7.9062   21.4635    5.0399 H   0  0  0  0  0  0  0  0  0  0  0  0
    9.4498   23.9594    3.0817 N   0  0  0  0  0  0  0  0  0  0  0  0
    8.0968   24.3432    2.9659 C   0  0  0  0  0  0  0  0  0  0  0  0
    7.6430   25.7520    3.0342 C   0  0  0  0  0  0  0  0  0  0  0  0
    7.2308   23.4506    2.7966 O   0  0  0  0  0  0  0  0  0  0  0  0
   10.1745   24.6927    3.2220 H   0  0  0  0  0  0  0  0  0  0  0  0
   11.6121   19.0576    4.2191 C   0  0  0  0  0  0  0  0  0  0  0  0
   12.6098   18.3667    3.8687 O   0  0  0  0  0  0  0  0  0  0  0  0
   10.6464   18.4547    5.0292 O   0  0  0  0  0  0  0  0  0  0  0  0
   11.0013   17.8120    5.7435 H   0  0  0  0  0  0  0  0  0  0  0  0
   11.3156   22.6628    1.0759 O   0  0  0  0  0  0  0  0  0  0  0  0
   12.5643   22.5929    0.4498 C   0  0  0  0  0  0  0  0  0  0  0  0
   12.6777   21.6245   -0.6596 C   0  0  0  0  0  0  0  0  0  0  0  0
   13.9868   21.8217   -1.4263 C   0  0  0  0  0  0  0  0  0  0  0  0
   13.1385   23.9078    0.1525 C   0  0  0  0  0  0  0  0  0  0  0  0
   12.3716   25.0959   -0.2232 C   0  0  0  0  0  0  0  0  0  0  0  0
   12.0666   25.2801   -1.6479 C   0  0  0  0  0  0  0  0  0  0  0  0
   13.4077   25.4045   -2.4525 C   0  0  0  0  0  0  0  0  0  0  0  0
   13.1270   26.4793   -3.4833 C   0  0  0  0  0  0  0  0  0  0  0  0
   15.4802   26.3419   -4.0880 C   0  0  0  0  0  0  0  0  0  0  0  0
   14.0878   26.4255   -4.6335 C   0  0  0  0  0  0  0  0  0  0  0  0
 28 29  1  0  0  0
 29 27  1  0  0  0
 27 26  1  0  0  0
 26 25  1  0  0  0
 25 24  1  0  0  0
 24 23  1  0  0  0
 23 20  1  0  0  0
 20 21  1  0  0  0
 21 22  1  0  0  0
 20 19  1  0  0  0
 19  1  1  0  0  0
  1  2  1  0  0  0
  2  3  2  0  0  0
  3 15  1  0  0  0
 15 16  2  0  0  0
 15 17  1  0  0  0
  3  4  1  0  0  0
  4  5  1  0  0  0
  5  6  1  0  0  0
  5  7  1  0  0  0
  7 10  1  0  0  0
 10 11  1  0  0  0
 11 12  1  0  0  0
 11 13  2  0  0  0
  7  1  1  0  0  0
 17 18  1  0  0  0
  6  8  1  0  0  0
  6  9  1  0  0  0
 10 14  1  0  0  0
M  END
> <minimizedAffinity>
-7.45626

> <CNNscore>
0.5511884093

> <CNNaffinity>
5.9156675339

> <CNN_VS>
3.2606472969

> <CNNaffinity_variance>
0.5054951906

$$$$
[H]OC(=O)C1=C([H])[C@@]([H])(O[C@@]([H])(C([H])([H])C([H])([H])[H])C([H])([H])C([H])([H])C([H])([H])C([H])([H])C([H])([H])C([H])([H])C([H])([H])[H])[C@]([H])(N([H])C(=O)C([H])([H])[H])[C@@]([H])(N([H])[H])C1([H])[H]


 29 29  0  0  0  0  0  0  0  0999 V2000
   11.5514   22.9582   -0.5008 C   0  0  0  0  0  0  0  0  0  0  0  0
   10.3234   23.5236    0.1865 C   0  0  0  0  0  0  0  0  0  0  0  0
    9.2577   22.7301    0.2988 C   0  0  0  0  0  0  0  0  0  0  0  0
    9.4784   21.3526   -0.2835 C   0  0  0  0  0  0  0  0  0  0  0  0
   10.6641   20.8098    0.4719 C   0  0  0  0  0  0  0  0  0  0  0  0
   10.3069   20.6092    1.8730 N   0  0  0  0  0  0  0  0  0  0  0  0
   11.8461   21.7286    0.3294 C   0  0  0  0  0  0  0  0  0  0  0  0
    9.2751   20.6790    2.0136 H   0  0  0  0  0  0  0  0  0  0  0  0
   10.6169   19.6339    2.1653 H   0  0  0  0  0  0  0  0  0  0  0  0
   12.9213   20.9098   -0.1817 N   0  0  0  0  0  0  0  0  0  0  0  0
   14.2584   21.0441    0.2486 C   0  0  0  0  0  0  0  0  0  0  0  0
   15.3669   20.2090   -0.2702 C   0  0  0  0  0  0  0  0  0  0  0  0
   14.5274   21.9127    1.1138 O   0  0  0  0  0  0  0  0  0  0  0  0
   12.6891   20.1924   -0.8988 H   0  0  0  0  0  0  0  0  0  0  0  0
    8.0076   23.0698    0.9077 C   0  0  0  0  0  0  0  0  0  0  0  0
    6.9431   22.4163    0.7202 O   0  0  0  0  0  0  0  0  0  0  0  0
    7.9571   24.1806    1.7539 O   0  0  0  0  0  0  0  0  0  0  0  0
    7.3548   24.0872    2.5772 H   0  0  0  0  0  0  0  0  0  0  0  0
   12.5217   23.9002   -0.4702 O   0  0  0  0  0  0  0  0  0  0  0  0
   12.9497   24.4416   -1.6867 C   0  0  0  0  0  0  0  0  0  0  0  0
   12.5036   25.8201   -1.9733 C   0  0  0  0  0  0  0  0  0  0  0  0
   12.9186   26.2477   -3.3823 C   0  0  0  0  0  0  0  0  0  0  0  0
   14.3708   24.2081   -1.9575 C   0  0  0  0  0  0  0  0  0  0  0  0
   15.4707   24.5923   -1.0722 C   0  0  0  0  0  0  0  0  0  0  0  0
   16.5932   25.3269   -1.6698 C   0  0  0  0  0  0  0  0  0  0  0  0
   16.2601   25.6519   -3.1682 C   0  0  0  0  0  0  0  0  0  0  0  0
   16.6065   27.1196   -3.3183 C   0  0  0  0  0  0  0  0  0  0  0  0
   15.6027   26.5822   -5.4690 C   0  0  0  0  0  0  0  0  0  0  0  0
   16.3882   27.6126   -4.7176 C   0  0  0  0  0  0  0  0  0  0  0  0
 28 29  1  0  0  0
 29 27  1  0  0  0
 27 26  1  0  0  0
 26 25  1  0  0  0
 25 24  1  0  0  0
 24 23  1  0  0  0
 23 20  1  0  0  0
 20 21  1  0  0  0
 21 22  1  0  0  0
 20 19  1  0  0  0
 19  1  1  0  0  0
  1  2  1  0  0  0
  2  3  2  0  0  0
  3 15  1  0  0  0
 15 16  2  0  0  0
 15 17  1  0  0  0
  3  4  1  0  0  0
  4  5  1  0  0  0
  5  6  1  0  0  0
  5  7  1  0  0  0
  7 10  1  0  0  0
 10 11  1  0  0  0
 11 12  1  0  0  0
 11 13  2  0  0  0
  7  1  1  0  0  0
 17 18  1  0  0  0
  6  8  1  0  0  0
  6  9  1  0  0  0
 10 14  1  0  0  0
M  END
> <minimizedAffinity>
-6.99191

> <CNNscore>
0.5144525766

> <CNNaffinity>
6.8538064957

> <CNN_VS>
3.5259582996

> <CNNaffinity_variance>
0.1856229007

$$$$
[H]OC(=O)C1=C([H])[C@@]([H])(O[C@@]([H])(C([H])([H])C([H])([H])[H])C([H])([H])C([H])([H])C([H])([H])C([H])([H])C([H])([H])C([H])([H])C([H])([H])[H])[C@]([H])(N([H])C(=O)C([H])([H])[H])[C@@]([H])(N([H])[H])C1([H])[H]


 29 29  0  0  0  0  0  0  0  0999 V2000
   10.3902   22.8177    0.5029 C   0  0  0  0  0  0  0  0  0  0  0  0
   10.5126   23.3129    1.9310 C   0  0  0  0  0  0  0  0  0  0  0  0
    9.4646   23.9475    2.4571 C   0  0  0  0  0  0  0  0  0  0  0  0
    8.2923   24.0470    1.5077 C   0  0  0  0  0  0  0  0  0  0  0  0
    7.9662   22.6172    1.1607 C   0  0  0  0  0  0  0  0  0  0  0  0
    7.4747   21.9214    2.3461 N   0  0  0  0  0  0  0  0  0  0  0  0
    9.1683   21.9290    0.5751 C   0  0  0  0  0  0  0  0  0  0  0  0
    7.2554   22.5928    3.1145 H   0  0  0  0  0  0  0  0  0  0  0  0
    6.5794   21.4061    2.0895 H   0  0  0  0  0  0  0  0  0  0  0  0
    8.7384   21.4044   -0.7007 N   0  0  0  0  0  0  0  0  0  0  0  0
    7.9460   20.2434   -0.8245 C   0  0  0  0  0  0  0  0  0  0  0  0
    7.5010   19.6984   -2.1285 C   0  0  0  0  0  0  0  0  0  0  0  0
    7.5982   19.6385    0.2188 O   0  0  0  0  0  0  0  0  0  0  0  0
    9.0316   21.9121   -1.5603 H   0  0  0  0  0  0  0  0  0  0  0  0
    9.3775   24.4906    3.7786 C   0  0  0  0  0  0  0  0  0  0  0  0
    9.2755   23.7788    4.8170 O   0  0  0  0  0  0  0  0  0  0  0  0
    9.4065   25.8790    3.9331 O   0  0  0  0  0  0  0  0  0  0  0  0
    9.9189   26.2264    4.7492 H   0  0  0  0  0  0  0  0  0  0  0  0
   11.5344   22.1713    0.1822 O   0  0  0  0  0  0  0  0  0  0  0  0
   12.6316   22.9394   -0.2209 C   0  0  0  0  0  0  0  0  0  0  0  0
   13.9283   22.2346   -0.2770 C   0  0  0  0  0  0  0  0  0  0  0  0
   14.1484   21.6023   -1.6526 C   0  0  0  0  0  0  0  0  0  0  0  0
   12.3564   23.7726   -1.3945 C   0  0  0  0  0  0  0  0  0  0  0  0
   12.3644   25.2358   -1.4087 C   0  0  0  0  0  0  0  0  0  0  0  0
   12.6549   25.8969   -2.6874 C   0  0  0  0  0  0  0  0  0  0  0  0
   14.0673   25.4415   -3.1966 C   0  0  0  0  0  0  0  0  0  0  0  0
   14.3218   26.3052   -4.4156 C   0  0  0  0  0  0  0  0  0  0  0  0
   15.3531   26.5169   -6.6095 C   0  0  0  0  0  0  0  0  0  0  0  0
   15.2266   25.6347   -5.4057 C   0  0  0  0  0  0  0  0  0  0  0  0
 28 29  1  0  0  0
 29 27  1  0  0  0
 27 26  1  0  0  0
 26 25  1  0  0  0
 25 24  1  0  0  0
 24 23  1  0  0  0
 23 20  1  0  0  0
 20 21  1  0  0  0
 21 22  1  0  0  0
 20 19  1  0  0  0
 19  1  1  0  0  0
  1  2  1  0  0  0
  2  3  2  0  0  0
  3 15  1  0  0  0
 15 16  2  0  0  0
 15 17  1  0  0  0
  3  4  1  0  0  0
  4  5  1  0  0  0
  5  6  1  0  0  0
  5  7  1  0  0  0
  7 10  1  0  0  0
 10 11  1  0  0  0
 11 12  1  0  0  0
 11 13  2  0  0  0
  7  1  1  0  0  0
 17 18  1  0  0  0
  6  8  1  0  0  0
  6  9  1  0  0  0
 10 14  1  0  0  0
M  END
> <minimizedAffinity>
-7.34595

> <CNNscore>
0.4970887601

> <CNNaffinity>
6.0611867905

> <CNN_VS>
3.0129477978

> <CNNaffinity_variance>
0.3716869354

$$$$
[H]OC(=O)C1=C([H])[C@@]([H])(O[C@@]([H])(C([H])([H])C([H])([H])[H])C([H])([H])C([H])([H])C([H])([H])C([H])([H])C([H])([H])C([H])([H])C([H])([H])[H])[C@]([H])(N([H])C(=O)C([H])([H])[H])[C@@]([H])(N([H])[H])C1([H])[H]


 29 29  0  0  0  0  0  0  0  0999 V2000
   10.3281   22.9331    0.2552 C   0  0  0  0  0  0  0  0  0  0  0  0
   10.5233   23.3983    1.6854 C   0  0  0  0  0  0  0  0  0  0  0  0
    9.4621   23.8902    2.3257 C   0  0  0  0  0  0  0  0  0  0  0  0
    8.2042   23.8784    1.4872 C   0  0  0  0  0  0  0  0  0  0  0  0
    8.0134   22.4307    1.1146 C   0  0  0  0  0  0  0  0  0  0  0  0
    7.7153   21.6484    2.3105 N   0  0  0  0  0  0  0  0  0  0  0  0
    9.2276   21.9054    0.3995 C   0  0  0  0  0  0  0  0  0  0  0  0
    7.4920   22.2671    3.1207 H   0  0  0  0  0  0  0  0  0  0  0  0
    6.8651   21.0390    2.1134 H   0  0  0  0  0  0  0  0  0  0  0  0
    8.7456   21.3706   -0.8532 N   0  0  0  0  0  0  0  0  0  0  0  0
    7.9827   20.1866   -0.9384 C   0  0  0  0  0  0  0  0  0  0  0  0
    7.4846   19.6311   -2.2185 C   0  0  0  0  0  0  0  0  0  0  0  0
    7.7097   19.5695    0.1200 O   0  0  0  0  0  0  0  0  0  0  0  0
    8.9768   21.8886   -1.7255 H   0  0  0  0  0  0  0  0  0  0  0  0
    9.4348   24.3812    3.6699 C   0  0  0  0  0  0  0  0  0  0  0  0
    9.4174   23.6289    4.6843 O   0  0  0  0  0  0  0  0  0  0  0  0
    9.4271   25.7632    3.8757 O   0  0  0  0  0  0  0  0  0  0  0  0
    9.9749   26.0984    4.6738 H   0  0  0  0  0  0  0  0  0  0  0  0
   11.5045   22.4350   -0.1894 O   0  0  0  0  0  0  0  0  0  0  0  0
   12.1878   23.1492   -1.1790 C   0  0  0  0  0  0  0  0  0  0  0  0
   11.7153   24.5268   -1.4246 C   0  0  0  0  0  0  0  0  0  0  0  0
   12.5392   25.5384   -0.6255 C   0  0  0  0  0  0  0  0  0  0  0  0
   13.6448   23.0291   -1.0794 C   0  0  0  0  0  0  0  0  0  0  0  0
   14.5303   22.6014   -2.1629 C   0  0  0  0  0  0  0  0  0  0  0  0
   14.9127   23.6093   -3.1602 C   0  0  0  0  0  0  0  0  0  0  0  0
   15.7265   24.7512   -2.4564 C   0  0  0  0  0  0  0  0  0  0  0  0
   15.4712   25.9749   -3.3130 C   0  0  0  0  0  0  0  0  0  0  0  0
   13.2642   26.7509   -3.9828 C   0  0  0  0  0  0  0  0  0  0  0  0
   14.3483   25.7622   -4.2838 C   0  0  0  0  0  0  0  0  0  0  0  0
 28 29  1  0  0  0
 29 27  1  0  0  0
 27 26  1  0  0  0
 26 25  1  0  0  0
 25 24  1  0  0  0
 24 23  1  0  0  0
 23 20  1  0  0  0
 20 21  1  0  0  0
 21 22  1  0  0  0
 20 19  1  0  0  0
 19  1  1  0  0  0
  1  2  1  0  0  0
  2  3  2  0  0  0
  3 15  1  0  0  0
 15 16  2  0  0  0
 15 17  1  0  0  0
  3  4  1  0  0  0
  4  5  1  0  0  0
  5  6  1  0  0  0
  5  7  1  0  0  0
  7 10  1  0  0  0
 10 11  1  0  0  0
 11 12  1  0  0  0
 11 13  2  0  0  0
  7  1  1  0  0  0
 17 18  1  0  0  0
  6  8  1  0  0  0
  6  9  1  0  0  0
 10 14  1  0  0  0
M  END
> <minimizedAffinity>
-7.00596

> <CNNscore>
0.4818606377

> <CNNaffinity>
6.1535959244

> <CNN_VS>
2.9651756287

> <CNNaffinity_variance>
0.2229204476

$$$$
[H]OC(=O)C1=C([H])[C@@]([H])(O[C@@]([H])(C([H])([H])C([H])([H])[H])C([H])([H])C([H])([H])C([H])([H])C([H])([H])C([H])([H])C([H])([H])C([H])([H])[H])[C@]([H])(N([H])C(=O)C([H])([H])[H])[C@@]([H])(N([H])[H])C1([H])[H]


 29 29  0  0  0  0  0  0  0  0999 V2000
   10.1706   22.1136   -0.1259 C   0  0  0  0  0  0  0  0  0  0  0  0
   10.4537   22.7420    1.2250 C   0  0  0  0  0  0  0  0  0  0  0  0
    9.5296   23.5581    1.7329 C   0  0  0  0  0  0  0  0  0  0  0  0
    8.3124   23.7015    0.8478 C   0  0  0  0  0  0  0  0  0  0  0  0
    7.7936   22.2954    0.6901 C   0  0  0  0  0  0  0  0  0  0  0  0
    7.3090   21.8011    1.9752 N   0  0  0  0  0  0  0  0  0  0  0  0
    8.8596   21.4005    0.1205 C   0  0  0  0  0  0  0  0  0  0  0  0
    7.2274   22.5746    2.6711 H   0  0  0  0  0  0  0  0  0  0  0  0
    6.3424   21.3786    1.8330 H   0  0  0  0  0  0  0  0  0  0  0  0
    8.2795   20.7987   -1.0580 N   0  0  0  0  0  0  0  0  0  0  0  0
    7.4080   19.6902   -1.0030 C   0  0  0  0  0  0  0  0  0  0  0  0
    6.8089   19.0669   -2.2062 C   0  0  0  0  0  0  0  0  0  0  0  0
    7.1231   19.2043    0.1187 O   0  0  0  0  0  0  0  0  0  0  0  0
    8.5214   21.2079   -1.9837 H   0  0  0  0  0  0  0  0  0  0  0  0
    9.6033   24.2486    2.9845 C   0  0  0  0  0  0  0  0  0  0  0  0
    9.6460   25.5072    3.0823 O   0  0  0  0  0  0  0  0  0  0  0  0
    9.6295   23.4962    4.1616 O   0  0  0  0  0  0  0  0  0  0  0  0
    9.1100   23.8876    4.9529 H   0  0  0  0  0  0  0  0  0  0  0  0
   11.2033   21.2962   -0.4343 O   0  0  0  0  0  0  0  0  0  0  0  0
   12.4938   21.8352   -0.4215 C   0  0  0  0  0  0  0  0  0  0  0  0
   13.5992   20.8695   -0.5858 C   0  0  0  0  0  0  0  0  0  0  0  0
   14.5318   20.8940    0.6268 C   0  0  0  0  0  0  0  0  0  0  0  0
   12.6279   23.0386   -1.2467 C   0  0  0  0  0  0  0  0  0  0  0  0
   13.4434   24.2053   -0.9077 C   0  0  0  0  0  0  0  0  0  0  0  0
   14.7630   24.3144   -1.5429 C   0  0  0  0  0  0  0  0  0  0  0  0
   14.7158   23.6319   -2.9549 C   0  0  0  0  0  0  0  0  0  0  0  0
   15.1774   24.7148   -3.9093 C   0  0  0  0  0  0  0  0  0  0  0  0
   13.6178   26.5251   -4.3697 C   0  0  0  0  0  0  0  0  0  0  0  0
   14.7330   26.0795   -3.4747 C   0  0  0  0  0  0  0  0  0  0  0  0
 28 29  1  0  0  0
 29 27  1  0  0  0
 27 26  1  0  0  0
 26 25  1  0  0  0
 25 24  1  0  0  0
 24 23  1  0  0  0
 23 20  1  0  0  0
 20 21  1  0  0  0
 21 22  1  0  0  0
 20 19  1  0  0  0
 19  1  1  0  0  0
  1  2  1  0  0  0
  2  3  2  0  0  0
  3 15  1  0  0  0
 15 16  2  0  0  0
 15 17  1  0  0  0
  3  4  1  0  0  0
  4  5  1  0  0  0
  5  6  1  0  0  0
  5  7  1  0  0  0
  7 10  1  0  0  0
 10 11  1  0  0  0
 11 12  1  0  0  0
 11 13  2  0  0  0
  7  1  1  0  0  0
 17 18  1  0  0  0
  6  8  1  0  0  0
  6  9  1  0  0  0
 10 14  1  0  0  0
M  END
> <minimizedAffinity>
-6.70127

> <CNNscore>
0.4780250490

> <CNNaffinity>
6.0504479408

> <CNN_VS>
2.8922655582

> <CNNaffinity_variance>
0.3313648701

$$$$
[H]OC(=O)C1=C([H])[C@@]([H])(O[C@@]([H])(C([H])([H])C([H])([H])[H])C([H])([H])C([H])([H])C([H])([H])C([H])([H])C([H])([H])C([H])([H])C([H])([H])[H])[C@]([H])(N([H])C(=O)C([H])([H])[H])[C@@]([H])(N([H])[H])C1([H])[H]


 29 29  0  0  0  0  0  0  0  0999 V2000
   11.5540   22.3577    2.5374 C   0  0  0  0  0  0  0  0  0  0  0  0
   11.7948   20.8673    2.6807 C   0  0  0  0  0  0  0  0  0  0  0  0
   11.5137   20.3061    3.8571 C   0  0  0  0  0  0  0  0  0  0  0  0
   10.9677   21.2880    4.8686 C   0  0  0  0  0  0  0  0  0  0  0  0
    9.7380   21.8606    4.2119 C   0  0  0  0  0  0  0  0  0  0  0  0
    8.7261   20.8188    4.0658 N   0  0  0  0  0  0  0  0  0  0  0  0
   10.0876   22.4809    2.8873 C   0  0  0  0  0  0  0  0  0  0  0  0
    8.9738   19.9708    4.6215 H   0  0  0  0  0  0  0  0  0  0  0  0
    7.7984   21.1944    4.4281 H   0  0  0  0  0  0  0  0  0  0  0  0
    9.6034   23.8407    2.9498 N   0  0  0  0  0  0  0  0  0  0  0  0
    8.2533   24.1849    2.7261 C   0  0  0  0  0  0  0  0  0  0  0  0
    7.7484   25.5765    2.7880 C   0  0  0  0  0  0  0  0  0  0  0  0
    7.4355   23.2704    2.4611 O   0  0  0  0  0  0  0  0  0  0  0  0
   10.2884   24.5925    3.1699 H   0  0  0  0  0  0  0  0  0  0  0  0
   11.6701   18.9244    4.1969 C   0  0  0  0  0  0  0  0  0  0  0  0
   10.7582   18.2326    4.7308 O   0  0  0  0  0  0  0  0  0  0  0  0
   12.8927   18.3045    3.9258 O   0  0  0  0  0  0  0  0  0  0  0  0
   12.8388   17.3341    3.6023 H   0  0  0  0  0  0  0  0  0  0  0  0
   11.8586   22.7130    1.2683 O   0  0  0  0  0  0  0  0  0  0  0  0
   11.5470   21.8149    0.2423 C   0  0  0  0  0  0  0  0  0  0  0  0
   10.6043   22.3067   -0.7829 C   0  0  0  0  0  0  0  0  0  0  0  0
   10.2197   21.1886   -1.7538 C   0  0  0  0  0  0  0  0  0  0  0  0
   12.7213   21.1327   -0.3079 C   0  0  0  0  0  0  0  0  0  0  0  0
   13.9614   21.7912   -0.7197 C   0  0  0  0  0  0  0  0  0  0  0  0
   14.1864   21.9669   -2.1602 C   0  0  0  0  0  0  0  0  0  0  0  0
   14.9088   23.3375   -2.4080 C   0  0  0  0  0  0  0  0  0  0  0  0
   14.2451   24.2912   -1.4351 C   0  0  0  0  0  0  0  0  0  0  0  0
   12.1767   25.4820   -0.9602 C   0  0  0  0  0  0  0  0  0  0  0  0
   13.0882   25.0172   -2.0541 C   0  0  0  0  0  0  0  0  0  0  0  0
 28 29  1  0  0  0
 29 27  1  0  0  0
 27 26  1  0  0  0
 26 25  1  0  0  0
 25 24  1  0  0  0
 24 23  1  0  0  0
 23 20  1  0  0  0
 20 21  1  0  0  0
 21 22  1  0  0  0
 20 19  1  0  0  0
 19  1  1  0  0  0
  1  2  1  0  0  0
  2  3  2  0  0  0
  3 15  1  0  0  0
 15 16  2  0  0  0
 15 17  1  0  0  0
  3  4  1  0  0  0
  4  5  1  0  0  0
  5  6  1  0  0  0
  5  7  1  0  0  0
  7 10  1  0  0  0
 10 11  1  0  0  0
 11 12  1  0  0  0
 11 13  2  0  0  0
  7  1  1  0  0  0
 17 18  1  0  0  0
  6  8  1  0  0  0
  6  9  1  0  0  0
 10 14  1  0  0  0
M  END
> <minimizedAffinity>
-6.09284

> <CNNscore>
0.4686621428

> <CNNaffinity>
6.1558914185

> <CNN_VS>
2.8850333691

> <CNNaffinity_variance>
0.2113153487

$$$$
[H]OC(=O)C1=C([H])[C@@]([H])(O[C@@]([H])(C([H])([H])C([H])([H])[H])C([H])([H])C([H])([H])C([H])([H])C([H])([H])C([H])([H])C([H])([H])C([H])([H])[H])[C@]([H])(N([H])C(=O)C([H])([H])[H])[C@@]([H])(N([H])[H])C1([H])[H]


 29 29  0  0  0  0  0  0  0  0999 V2000
   11.0194   23.2890    0.1619 C   0  0  0  0  0  0  0  0  0  0  0  0
    9.6377   23.2916    0.7870 C   0  0  0  0  0  0  0  0  0  0  0  0
    8.7415   22.4275    0.3093 C   0  0  0  0  0  0  0  0  0  0  0  0
    9.2887   21.5552   -0.7976 C   0  0  0  0  0  0  0  0  0  0  0  0
   10.4686   20.8536   -0.1759 C   0  0  0  0  0  0  0  0  0  0  0  0
   10.0080   19.9459    0.8705 N   0  0  0  0  0  0  0  0  0  0  0  0
   11.4569   21.8542    0.3567 C   0  0  0  0  0  0  0  0  0  0  0  0
    8.9734   19.8152    0.8287 H   0  0  0  0  0  0  0  0  0  0  0  0
   10.4690   18.9979    0.7236 H   0  0  0  0  0  0  0  0  0  0  0  0
   12.7201   21.5283   -0.2645 N   0  0  0  0  0  0  0  0  0  0  0  0
   13.8023   20.9681    0.4470 C   0  0  0  0  0  0  0  0  0  0  0  0
   15.1008   20.6310   -0.1818 C   0  0  0  0  0  0  0  0  0  0  0  0
   13.6631   20.7421    1.6737 O   0  0  0  0  0  0  0  0  0  0  0  0
   12.8267   21.7192   -1.2818 H   0  0  0  0  0  0  0  0  0  0  0  0
    7.3908   22.2720    0.7567 C   0  0  0  0  0  0  0  0  0  0  0  0
    7.0523   22.3148    1.9728 O   0  0  0  0  0  0  0  0  0  0  0  0
    6.3916   22.0618   -0.1972 O   0  0  0  0  0  0  0  0  0  0  0  0
    5.4949   22.5212   -0.0125 H   0  0  0  0  0  0  0  0  0  0  0  0
   11.7780   24.1992    0.8144 O   0  0  0  0  0  0  0  0  0  0  0  0
   12.2666   25.2893    0.0870 C   0  0  0  0  0  0  0  0  0  0  0  0
   13.6732   25.6594    0.3438 C   0  0  0  0  0  0  0  0  0  0  0  0
   14.5252   24.4177    0.6135 C   0  0  0  0  0  0  0  0  0  0  0  0
   11.9138   25.2430   -1.3345 C   0  0  0  0  0  0  0  0  0  0  0  0
   12.8724   25.1783   -2.4381 C   0  0  0  0  0  0  0  0  0  0  0  0
   13.0635   26.3945   -3.2387 C   0  0  0  0  0  0  0  0  0  0  0  0
   14.2039   26.1497   -4.2881 C   0  0  0  0  0  0  0  0  0  0  0  0
   15.4796   26.1947   -3.4712 C   0  0  0  0  0  0  0  0  0  0  0  0
   15.5933   23.9554   -4.4171 C   0  0  0  0  0  0  0  0  0  0  0  0
   16.1039   24.8395   -3.3212 C   0  0  0  0  0  0  0  0  0  0  0  0
 28 29  1  0  0  0
 29 27  1  0  0  0
 27 26  1  0  0  0
 26 25  1  0  0  0
 25 24  1  0  0  0
 24 23  1  0  0  0
 23 20  1  0  0  0
 20 21  1  0  0  0
 21 22  1  0  0  0
 20 19  1  0  0  0
 19  1  1  0  0  0
  1  2  1  0  0  0
  2  3  2  0  0  0
  3 15  1  0  0  0
 15 16  2  0  0  0
 15 17  1  0  0  0
  3  4  1  0  0  0
  4  5  1  0  0  0
  5  6  1  0  0  0
  5  7  1  0  0  0
  7 10  1  0  0  0
 10 11  1  0  0  0
 11 12  1  0  0  0
 11 13  2  0  0  0
  7  1  1  0  0  0
 17 18  1  0  0  0
  6  8  1  0  0  0
  6  9  1  0  0  0
 10 14  1  0  0  0
M  END
> <minimizedAffinity>
-6.54420

> <CNNscore>
0.4520719945

> <CNNaffinity>
6.6961698532

> <CNN_VS>
3.0271508694

> <CNNaffinity_variance>
0.1032078713

$$$$
[H]c1c([H])c(-c2c([H])c([H])c(C([H])(C(=O)N([H])C([H])([H])C([H])([H])C([H])([H])C([H])([H])C([H])([H])C([H])([H])N([H])c3c4c(nc5c([H])c([H])c([H])c([H])c35)C([H])([H])C([H])([H])C([H])([H])C4([H])[H])C([H])([H])[H])c([H])c2F)c([H])c([H])c1OC([H])([H])C([H])([H])C([H])([H])C([H])([H])C([H])([H])C([H])([H])O[N+](=O)[O-]


 52 56  0  0  0  0  0  0  0  0999 V2000
    5.6226   19.0326   -1.9610 C   0  0  0  0  0  0  0  0  0  0  0  0
    5.8674   19.3060   -0.4801 C   0  0  0  0  0  0  0  0  0  0  0  0
    7.0921   20.1235   -0.3838 C   0  0  0  0  0  0  0  0  0  0  0  0
    7.2655   20.9509    0.7006 C   0  0  0  0  0  0  0  0  0  0  0  0
    8.3970   21.7576    0.8312 C   0  0  0  0  0  0  0  0  0  0  0  0
    9.3503   21.7238   -0.1377 C   0  0  0  0  0  0  0  0  0  0  0  0
    9.1968   20.9045   -1.2292 C   0  0  0  0  0  0  0  0  0  0  0  0
   10.1338   20.8635   -2.2062 F   0  0  0  0  0  0  0  0  0  0  0  0
    8.0575   20.0977   -1.3525 C   0  0  0  0  0  0  0  0  0  0  0  0
   10.5398   22.5475   -0.0255 C   0  0  0  0  0  0  0  0  0  0  0  0
   10.5067   23.9087   -0.2299 C   0  0  0  0  0  0  0  0  0  0  0  0
   11.6671   24.6800   -0.1091 C   0  0  0  0  0  0  0  0  0  0  0  0
   12.8874   24.1375    0.2136 C   0  0  0  0  0  0  0  0  0  0  0  0
   12.9041   22.7430    0.4204 C   0  0  0  0  0  0  0  0  0  0  0  0
   11.7619   22.0037    0.2989 C   0  0  0  0  0  0  0  0  0  0  0  0
   14.0696   24.8202    0.3462 O   0  0  0  0  0  0  0  0  0  0  0  0
   15.3309   24.4129   -0.0797 C   0  0  0  0  0  0  0  0  0  0  0  0
   15.5569   24.8155   -1.5018 C   0  0  0  0  0  0  0  0  0  0  0  0
   15.1692   23.7046   -2.4327 C   0  0  0  0  0  0  0  0  0  0  0  0
   14.9036   24.2325   -3.8005 C   0  0  0  0  0  0  0  0  0  0  0  0
   15.1723   25.7098   -3.9324 C   0  0  0  0  0  0  0  0  0  0  0  0
   13.8964   26.4276   -4.2648 C   0  0  0  0  0  0  0  0  0  0  0  0
   14.0120   26.9519   -5.5995 O   0  0  0  0  0  0  0  0  0  0  0  0
   15.2875   27.2167   -6.0362 N   0  0  0  0  0  0  0  0  0  0  0  0
   15.8914   26.4688   -6.8274 O   0  0  0  0  0  0  0  0  0  0  0  0
   15.8699   28.3700   -5.5443 O   0  0  0  0  0  0  0  0  0  0  0  0
    5.8540   18.0893    0.3295 C   0  0  0  0  0  0  0  0  0  0  0  0
    6.5572   17.0762   -0.0191 O   0  0  0  0  0  0  0  0  0  0  0  0
    5.1040   17.9207    1.5158 N   0  0  0  0  0  0  0  0  0  0  0  0
    4.5178   18.7174    1.8391 H   0  0  0  0  0  0  0  0  0  0  0  0
    5.1049   16.7184    2.3039 C   0  0  0  0  0  0  0  0  0  0  0  0
    5.4713   16.9737    3.7460 C   0  0  0  0  0  0  0  0  0  0  0  0
    4.9981   18.3530    4.1599 C   0  0  0  0  0  0  0  0  0  0  0  0
    6.2480   19.1559    4.5257 C   0  0  0  0  0  0  0  0  0  0  0  0
    6.1891   19.6365    5.9252 C   0  0  0  0  0  0  0  0  0  0  0  0
    6.3987   21.0779    6.1205 C   0  0  0  0  0  0  0  0  0  0  0  0
    7.7079   21.5700    6.1989 N   0  0  0  0  0  0  0  0  0  0  0  0
    8.1041   21.6810    7.2068 H   0  0  0  0  0  0  0  0  0  0  0  0
    8.6292   21.9573    5.2241 C   0  0  0  0  0  0  0  0  0  0  0  0
    8.5647   23.2293    4.6910 C   0  0  0  0  0  0  0  0  0  0  0  0
    9.5019   23.6251    3.7656 C   0  0  0  0  0  0  0  0  0  0  0  0
   10.4810   22.7530    3.3911 N   0  0  0  0  0  0  0  0  0  0  0  0
   10.5794   21.5100    3.8852 C   0  0  0  0  0  0  0  0  0  0  0  0
   11.5782   20.6507    3.4942 C   0  0  0  0  0  0  0  0  0  0  0  0
   11.6680   19.3886    4.0091 C   0  0  0  0  0  0  0  0  0  0  0  0
   10.7273   18.9927    4.9370 C   0  0  0  0  0  0  0  0  0  0  0  0
    9.7261   19.8274    5.3411 C   0  0  0  0  0  0  0  0  0  0  0  0
    9.6429   21.1057    4.8132 C   0  0  0  0  0  0  0  0  0  0  0  0
    9.4284   24.9716    3.1887 C   0  0  0  0  0  0  0  0  0  0  0  0
    8.8285   26.0186    4.0610 C   0  0  0  0  0  0  0  0  0  0  0  0
    8.2652   25.5143    5.3603 C   0  0  0  0  0  0  0  0  0  0  0  0
    7.5207   24.2041    5.0905 C   0  0  0  0  0  0  0  0  0  0  0  0
  1  2  1  0  0  0
  2 27  1  0  0  0
 27 28  2  0  0  0
 27 29  1  0  0  0
 29 31  1  0  0  0
 31 32  1  0  0  0
 32 33  1  0  0  0
 33 34  1  0  0  0
 34 35  1  0  0  0
 35 36  1  0  0  0
 36 37  1  0  0  0
 37 39  1  0  0  0
 39 40  2  0  0  0
 40 41  1  0  0  0
 41 42  2  0  0  0
 42 43  1  0  0  0
 43 44  2  0  0  0
 44 45  1  0  0  0
 45 46  2  0  0  0
 46 47  1  0  0  0
 47 48  2  0  0  0
 41 49  1  0  0  0
 49 50  1  0  0  0
 50 51  1  0  0  0
 51 52  1  0  0  0
  2  3  1  0  0  0
  3  4  2  0  0  0
  4  5  1  0  0  0
  5  6  2  0  0  0
  6 10  1  0  0  0
 10 11  2  0  0  0
 11 12  1  0  0  0
 12 13  2  0  0  0
 13 16  1  0  0  0
 16 17  1  0  0  0
 17 18  1  0  0  0
 18 19  1  0  0  0
 19 20  1  0  0  0
 20 21  1  0  0  0
 21 22  1  0  0  0
 22 23  1  0  0  0
 23 24  1  0  0  0
 24 25  2  0  0  0
 24 26  1  0  0  0
 13 14  1  0  0  0
 14 15  2  0  0  0
  6  7  1  0  0  0
  7  8  1  0  0  0
  7  9  2  0  0  0
 48 39  1  0  0  0
  9  3  1  0  0  0
 52 40  1  0  0  0
 15 10  1  0  0  0
 48 43  1  0  0  0
 29 30  1  0  0  0
 37 38  1  0  0  0
M  CHG 1  24   1
M  CHG 1  26  -1
M  END
> <minimizedAffinity>
-8.29830

> <CNNscore>
0.2418865860

> <CNNaffinity>
7.9495439529

> <CNN_VS>
1.9228880405

> <CNNaffinity_variance>
0.7419624329

$$$$
[H]c1c([H])c(-c2c([H])c([H])c(C([H])(C(=O)N([H])C([H])([H])C([H])([H])C([H])([H])C([H])([H])C([H])([H])C([H])([H])N([H])c3c4c(nc5c([H])c([H])c([H])c([H])c35)C([H])([H])C([H])([H])C([H])([H])C4([H])[H])C([H])([H])[H])c([H])c2F)c([H])c([H])c1OC([H])([H])C([H])([H])C([H])([H])C([H])([H])C([H])([H])C([H])([H])O[N+](=O)[O-]


 52 56  0  0  0  0  0  0  0  0999 V2000
   14.6410   20.2864   -0.5024 C   0  0  0  0  0  0  0  0  0  0  0  0
   13.8847   21.4098    0.2002 C   0  0  0  0  0  0  0  0  0  0  0  0
   12.4454   21.1738   -0.0245 C   0  0  0  0  0  0  0  0  0  0  0  0
   11.6860   20.6337    0.9866 C   0  0  0  0  0  0  0  0  0  0  0  0
   10.3247   20.3745    0.8200 C   0  0  0  0  0  0  0  0  0  0  0  0
    9.7361   20.6634   -0.3710 C   0  0  0  0  0  0  0  0  0  0  0  0
   10.4763   21.2033   -1.3942 C   0  0  0  0  0  0  0  0  0  0  0  0
    9.9069   21.4911   -2.5888 F   0  0  0  0  0  0  0  0  0  0  0  0
   11.8428   21.4604   -1.2185 C   0  0  0  0  0  0  0  0  0  0  0  0
    8.3213   20.4098   -0.5707 C   0  0  0  0  0  0  0  0  0  0  0  0
    7.3520   21.0867    0.1349 C   0  0  0  0  0  0  0  0  0  0  0  0
    5.9948   20.8272   -0.0818 C   0  0  0  0  0  0  0  0  0  0  0  0
    5.5542   19.8987   -0.9936 C   0  0  0  0  0  0  0  0  0  0  0  0
    6.5590   19.2150   -1.7082 C   0  0  0  0  0  0  0  0  0  0  0  0
    7.8803   19.4804   -1.4850 C   0  0  0  0  0  0  0  0  0  0  0  0
    4.2470   19.5816   -1.2619 O   0  0  0  0  0  0  0  0  0  0  0  0
    3.7769   18.5084   -2.0138 C   0  0  0  0  0  0  0  0  0  0  0  0
    2.5143   18.8808   -2.7228 C   0  0  0  0  0  0  0  0  0  0  0  0
    1.3236   18.2950   -2.0228 C   0  0  0  0  0  0  0  0  0  0  0  0
    0.6128   17.3316   -2.9098 C   0  0  0  0  0  0  0  0  0  0  0  0
    0.7922   15.8939   -2.4941 C   0  0  0  0  0  0  0  0  0  0  0  0
    0.2735   14.9877   -3.5727 C   0  0  0  0  0  0  0  0  0  0  0  0
    1.0631   13.7852   -3.5657 O   0  0  0  0  0  0  0  0  0  0  0  0
    0.3691   12.6060   -3.6903 N   0  0  0  0  0  0  0  0  0  0  0  0
   -0.5588   12.4602   -4.5075 O   0  0  0  0  0  0  0  0  0  0  0  0
    0.7607   11.5801   -2.8505 O   0  0  0  0  0  0  0  0  0  0  0  0
   14.3729   22.7371   -0.1681 C   0  0  0  0  0  0  0  0  0  0  0  0
   14.9265   23.4865    0.7118 O   0  0  0  0  0  0  0  0  0  0  0  0
   14.2878   23.2944   -1.4644 N   0  0  0  0  0  0  0  0  0  0  0  0
   13.8463   22.7219   -2.2129 H   0  0  0  0  0  0  0  0  0  0  0  0
   14.7770   24.6007   -1.8120 C   0  0  0  0  0  0  0  0  0  0  0  0
   13.6675   25.5479   -2.2010 C   0  0  0  0  0  0  0  0  0  0  0  0
   12.3248   24.9384   -1.8498 C   0  0  0  0  0  0  0  0  0  0  0  0
   12.0115   25.3614   -0.4133 C   0  0  0  0  0  0  0  0  0  0  0  0
   10.8726   24.5924    0.1385 C   0  0  0  0  0  0  0  0  0  0  0  0
   11.0358   24.0962    1.5121 C   0  0  0  0  0  0  0  0  0  0  0  0
    9.9037   23.6760    2.2221 N   0  0  0  0  0  0  0  0  0  0  0  0
    9.1568   23.1441    1.6352 H   0  0  0  0  0  0  0  0  0  0  0  0
    9.5291   23.8050    3.5608 C   0  0  0  0  0  0  0  0  0  0  0  0
    8.8372   24.9273    3.9709 C   0  0  0  0  0  0  0  0  0  0  0  0
    8.4276   25.0307    5.2796 C   0  0  0  0  0  0  0  0  0  0  0  0
    8.7115   24.0207    6.1506 N   0  0  0  0  0  0  0  0  0  0  0  0
    9.3799   22.9144    5.7925 C   0  0  0  0  0  0  0  0  0  0  0  0
    9.6506   21.9082    6.6887 C   0  0  0  0  0  0  0  0  0  0  0  0
   10.3292   20.7852    6.3084 C   0  0  0  0  0  0  0  0  0  0  0  0
   10.7397   20.6826    4.9955 C   0  0  0  0  0  0  0  0  0  0  0  0
   10.4831   21.6682    4.0871 C   0  0  0  0  0  0  0  0  0  0  0  0
    9.7943   22.8037    4.4819 C   0  0  0  0  0  0  0  0  0  0  0  0
    7.7031   26.2274    5.7207 C   0  0  0  0  0  0  0  0  0  0  0  0
    6.8844   26.9096    4.6808 C   0  0  0  0  0  0  0  0  0  0  0  0
    7.0234   26.3454    3.2944 C   0  0  0  0  0  0  0  0  0  0  0  0
    8.5011   26.0342    3.0428 C   0  0  0  0  0  0  0  0  0  0  0  0
  1  2  1  0  0  0
  2 27  1  0  0  0
 27 28  2  0  0  0
 27 29  1  0  0  0
 29 31  1  0  0  0
 31 32  1  0  0  0
 32 33  1  0  0  0
 33 34  1  0  0  0
 34 35  1  0  0  0
 35 36  1  0  0  0
 36 37  1  0  0  0
 37 39  1  0  0  0
 39 40  2  0  0  0
 40 41  1  0  0  0
 41 42  2  0  0  0
 42 43  1  0  0  0
 43 44  2  0  0  0
 44 45  1  0  0  0
 45 46  2  0  0  0
 46 47  1  0  0  0
 47 48  2  0  0  0
 41 49  1  0  0  0
 49 50  1  0  0  0
 50 51  1  0  0  0
 51 52  1  0  0  0
  2  3  1  0  0  0
  3  4  2  0  0  0
  4  5  1  0  0  0
  5  6  2  0  0  0
  6 10  1  0  0  0
 10 11  2  0  0  0
 11 12  1  0  0  0
 12 13  2  0  0  0
 13 16  1  0  0  0
 16 17  1  0  0  0
 17 18  1  0  0  0
 18 19  1  0  0  0
 19 20  1  0  0  0
 20 21  1  0  0  0
 21 22  1  0  0  0
 22 23  1  0  0  0
 23 24  1  0  0  0
 24 25  2  0  0  0
 24 26  1  0  0  0
 13 14  1  0  0  0
 14 15  2  0  0  0
  6  7  1  0  0  0
  7  8  1  0  0  0
  7  9  2  0  0  0
 48 39  1  0  0  0
  9  3  1  0  0  0
 52 40  1  0  0  0
 15 10  1  0  0  0
 48 43  1  0  0  0
 29 30  1  0  0  0
 37 38  1  0  0  0
M  CHG 1  24   1
M  CHG 1  26  -1
M  END
> <minimizedAffinity>
-7.73404

> <CNNscore>
0.1898396760

> <CNNaffinity>
7.4278707504

> <CNN_VS>
1.4101046324

> <CNNaffinity_variance>
0.8131492734

$$$$
[H]c1c([H])c(-c2c([H])c([H])c(C([H])(C(=O)N([H])C([H])([H])C([H])([H])C([H])([H])C([H])([H])C([H])([H])C([H])([H])N([H])c3c4c(nc5c([H])c([H])c([H])c([H])c35)C([H])([H])C([H])([H])C([H])([H])C4([H])[H])C([H])([H])[H])c([H])c2F)c([H])c([H])c1OC([H])([H])C([H])([H])C([H])([H])C([H])([H])C([H])([H])C([H])([H])O[N+](=O)[O-]


 52 56  0  0  0  0  0  0  0  0999 V2000
   14.7164   20.3647   -0.5585 C   0  0  0  0  0  0  0  0  0  0  0  0
   13.9449   21.4785    0.1431 C   0  0  0  0  0  0  0  0  0  0  0  0
   12.5093   21.2282   -0.0895 C   0  0  0  0  0  0  0  0  0  0  0  0
   11.7503   20.6788    0.9167 C   0  0  0  0  0  0  0  0  0  0  0  0
   10.3926   20.4060    0.7427 C   0  0  0  0  0  0  0  0  0  0  0  0
    9.8072   20.6908   -0.4510 C   0  0  0  0  0  0  0  0  0  0  0  0
   10.5472   21.2399   -1.4694 C   0  0  0  0  0  0  0  0  0  0  0  0
    9.9811   21.5239   -2.6665 F   0  0  0  0  0  0  0  0  0  0  0  0
   11.9100   21.5106   -1.2862 C   0  0  0  0  0  0  0  0  0  0  0  0
    8.3961   20.4232   -0.6585 C   0  0  0  0  0  0  0  0  0  0  0  0
    7.4172   21.0695    0.0624 C   0  0  0  0  0  0  0  0  0  0  0  0
    6.0639   20.7971   -0.1622 C   0  0  0  0  0  0  0  0  0  0  0  0
    5.6366   19.8853   -1.0969 C   0  0  0  0  0  0  0  0  0  0  0  0
    6.6511   19.2328   -1.8268 C   0  0  0  0  0  0  0  0  0  0  0  0
    7.9685   19.5104   -1.5957 C   0  0  0  0  0  0  0  0  0  0  0  0
    4.3340   19.5572   -1.3744 O   0  0  0  0  0  0  0  0  0  0  0  0
    3.7034   19.5853   -2.6153 C   0  0  0  0  0  0  0  0  0  0  0  0
    2.2178   19.5895   -2.4460 C   0  0  0  0  0  0  0  0  0  0  0  0
    1.8487   19.9274   -1.0316 C   0  0  0  0  0  0  0  0  0  0  0  0
    1.1089   18.8005   -0.3970 C   0  0  0  0  0  0  0  0  0  0  0  0
    1.9855   17.9121    0.4482 C   0  0  0  0  0  0  0  0  0  0  0  0
    2.1873   16.5955   -0.2442 C   0  0  0  0  0  0  0  0  0  0  0  0
    3.5996   16.4045   -0.4406 O   0  0  0  0  0  0  0  0  0  0  0  0
    4.3367   16.1426    0.6889 N   0  0  0  0  0  0  0  0  0  0  0  0
    4.0274   15.2458    1.4953 O   0  0  0  0  0  0  0  0  0  0  0  0
    5.4513   16.9368    0.8837 O   0  0  0  0  0  0  0  0  0  0  0  0
   14.4212   22.8117   -0.2194 C   0  0  0  0  0  0  0  0  0  0  0  0
   14.9659   23.5632    0.6643 O   0  0  0  0  0  0  0  0  0  0  0  0
   14.3335   23.3728   -1.5139 N   0  0  0  0  0  0  0  0  0  0  0  0
   13.8990   22.7989   -2.2654 H   0  0  0  0  0  0  0  0  0  0  0  0
   14.8109   24.6850   -1.8558 C   0  0  0  0  0  0  0  0  0  0  0  0
   13.6887   25.6406   -2.1823 C   0  0  0  0  0  0  0  0  0  0  0  0
   12.3560   25.0037   -1.8417 C   0  0  0  0  0  0  0  0  0  0  0  0
   12.0859   25.3096   -0.3672 C   0  0  0  0  0  0  0  0  0  0  0  0
   10.9416   24.5217    0.1455 C   0  0  0  0  0  0  0  0  0  0  0  0
   10.9818   24.1830    1.5750 C   0  0  0  0  0  0  0  0  0  0  0  0
    9.8262   23.6816    2.1875 N   0  0  0  0  0  0  0  0  0  0  0  0
    9.1674   23.1066    1.5390 H   0  0  0  0  0  0  0  0  0  0  0  0
    9.3353   23.7725    3.4914 C   0  0  0  0  0  0  0  0  0  0  0  0
    9.5071   22.7137    4.3607 C   0  0  0  0  0  0  0  0  0  0  0  0
    9.0651   22.8232    5.6584 C   0  0  0  0  0  0  0  0  0  0  0  0
    8.4649   23.9783    6.0647 N   0  0  0  0  0  0  0  0  0  0  0  0
    8.2798   25.0295    5.2526 C   0  0  0  0  0  0  0  0  0  0  0  0
    7.6752   26.1846    5.6872 C   0  0  0  0  0  0  0  0  0  0  0  0
    7.4970   27.2488    4.8494 C   0  0  0  0  0  0  0  0  0  0  0  0
    7.9405   27.1377    3.5481 C   0  0  0  0  0  0  0  0  0  0  0  0
    8.5436   26.0013    3.0928 C   0  0  0  0  0  0  0  0  0  0  0  0
    8.7200   24.9269    3.9497 C   0  0  0  0  0  0  0  0  0  0  0  0
    9.2353   21.6954    6.5805 C   0  0  0  0  0  0  0  0  0  0  0  0
   10.4067   20.8145    6.3179 C   0  0  0  0  0  0  0  0  0  0  0  0
   11.1720   21.1351    5.0644 C   0  0  0  0  0  0  0  0  0  0  0  0
   10.1696   21.4515    3.9513 C   0  0  0  0  0  0  0  0  0  0  0  0
  1  2  1  0  0  0
  2 27  1  0  0  0
 27 28  2  0  0  0
 27 29  1  0  0  0
 29 31  1  0  0  0
 31 32  1  0  0  0
 32 33  1  0  0  0
 33 34  1  0  0  0
 34 35  1  0  0  0
 35 36  1  0  0  0
 36 37  1  0  0  0
 37 39  1  0  0  0
 39 40  2  0  0  0
 40 41  1  0  0  0
 41 42  2  0  0  0
 42 43  1  0  0  0
 43 44  2  0  0  0
 44 45  1  0  0  0
 45 46  2  0  0  0
 46 47  1  0  0  0
 47 48  2  0  0  0
 41 49  1  0  0  0
 49 50  1  0  0  0
 50 51  1  0  0  0
 51 52  1  0  0  0
  2  3  1  0  0  0
  3  4  2  0  0  0
  4  5  1  0  0  0
  5  6  2  0  0  0
  6 10  1  0  0  0
 10 11  2  0  0  0
 11 12  1  0  0  0
 12 13  2  0  0  0
 13 16  1  0  0  0
 16 17  1  0  0  0
 17 18  1  0  0  0
 18 19  1  0  0  0
 19 20  1  0  0  0
 20 21  1  0  0  0
 21 22  1  0  0  0
 22 23  1  0  0  0
 23 24  1  0  0  0
 24 25  2  0  0  0
 24 26  1  0  0  0
 13 14  1  0  0  0
 14 15  2  0  0  0
  6  7  1  0  0  0
  7  8  1  0  0  0
  7  9  2  0  0  0
 48 39  1  0  0  0
  9  3  1  0  0  0
 52 40  1  0  0  0
 15 10  1  0  0  0
 48 43  1  0  0  0
 29 30  1  0  0  0
 37 38  1  0  0  0
M  CHG 1  24   1
M  CHG 1  26  -1
M  END
> <minimizedAffinity>
-7.84926

> <CNNscore>
0.1406343132

> <CNNaffinity>
7.4418478012

> <CNN_VS>
1.0465791225

> <CNNaffinity_variance>
1.5980294943

$$$$
[H]c1c([H])c(-c2c([H])c([H])c(C([H])(C(=O)N([H])C([H])([H])C([H])([H])C([H])([H])C([H])([H])C([H])([H])C([H])([H])N([H])c3c4c(nc5c([H])c([H])c([H])c([H])c35)C([H])([H])C([H])([H])C([H])([H])C4([H])[H])C([H])([H])[H])c([H])c2F)c([H])c([H])c1OC([H])([H])C([H])([H])C([H])([H])C([H])([H])C([H])([H])C([H])([H])O[N+](=O)[O-]


 52 56  0  0  0  0  0  0  0  0999 V2000
    8.5058   26.3111    6.3159 C   0  0  0  0  0  0  0  0  0  0  0  0
    7.4242   25.3761    5.7832 C   0  0  0  0  0  0  0  0  0  0  0  0
    7.6029   24.0745    6.4553 C   0  0  0  0  0  0  0  0  0  0  0  0
    6.7807   23.0250    6.1190 C   0  0  0  0  0  0  0  0  0  0  0  0
    6.8962   21.7788    6.7367 C   0  0  0  0  0  0  0  0  0  0  0  0
    7.8449   21.5991    7.6939 C   0  0  0  0  0  0  0  0  0  0  0  0
    8.6766   22.6342    8.0449 C   0  0  0  0  0  0  0  0  0  0  0  0
    9.6226   22.4738    9.0006 F   0  0  0  0  0  0  0  0  0  0  0  0
    8.5538   23.8825    7.4196 C   0  0  0  0  0  0  0  0  0  0  0  0
    7.9917   20.3125    8.3490 C   0  0  0  0  0  0  0  0  0  0  0  0
    7.3410   20.0141    9.5251 C   0  0  0  0  0  0  0  0  0  0  0  0
    7.4950   18.7636   10.1322 C   0  0  0  0  0  0  0  0  0  0  0  0
    8.2901   17.7759    9.6032 C   0  0  0  0  0  0  0  0  0  0  0  0
    8.9486   18.0969    8.3986 C   0  0  0  0  0  0  0  0  0  0  0  0
    8.7874   19.3229    7.8181 C   0  0  0  0  0  0  0  0  0  0  0  0
    8.4986   16.5293   10.1361 O   0  0  0  0  0  0  0  0  0  0  0  0
    8.2525   15.3009    9.5292 C   0  0  0  0  0  0  0  0  0  0  0  0
    6.7925   15.1396    9.2499 C   0  0  0  0  0  0  0  0  0  0  0  0
    6.4936   15.4443    7.8115 C   0  0  0  0  0  0  0  0  0  0  0  0
    5.5375   16.5818    7.7021 C   0  0  0  0  0  0  0  0  0  0  0  0
    5.7679   17.4396    6.4842 C   0  0  0  0  0  0  0  0  0  0  0  0
    4.4600   17.6997    5.7948 C   0  0  0  0  0  0  0  0  0  0  0  0
    4.7349   18.3612    4.5473 O   0  0  0  0  0  0  0  0  0  0  0  0
    4.9491   17.5433    3.4642 N   0  0  0  0  0  0  0  0  0  0  0  0
    5.7477   17.8350    2.5546 O   0  0  0  0  0  0  0  0  0  0  0  0
    4.2226   16.3675    3.4388 O   0  0  0  0  0  0  0  0  0  0  0  0
    7.3824   25.3333    4.3230 C   0  0  0  0  0  0  0  0  0  0  0  0
    6.3621   25.7875    3.6945 O   0  0  0  0  0  0  0  0  0  0  0  0
    8.4111   24.8149    3.5036 N   0  0  0  0  0  0  0  0  0  0  0  0
    9.2605   24.4352    3.9696 H   0  0  0  0  0  0  0  0  0  0  0  0
    8.3567   24.7838    2.0674 C   0  0  0  0  0  0  0  0  0  0  0  0
    8.9315   23.5103    1.4955 C   0  0  0  0  0  0  0  0  0  0  0  0
   10.4456   23.5795    1.5065 C   0  0  0  0  0  0  0  0  0  0  0  0
   10.9240   22.9670    0.1887 C   0  0  0  0  0  0  0  0  0  0  0  0
   10.5556   23.8180   -0.9659 C   0  0  0  0  0  0  0  0  0  0  0  0
   11.5196   24.8671   -1.3263 C   0  0  0  0  0  0  0  0  0  0  0  0
   12.6412   24.5253   -2.0927 N   0  0  0  0  0  0  0  0  0  0  0  0
   12.4589   23.8076   -2.8907 H   0  0  0  0  0  0  0  0  0  0  0  0
   13.9774   24.9267   -2.0389 C   0  0  0  0  0  0  0  0  0  0  0  0
   14.7585   24.5563   -0.9624 C   0  0  0  0  0  0  0  0  0  0  0  0
   16.0866   24.9122   -0.9340 C   0  0  0  0  0  0  0  0  0  0  0  0
   16.6099   25.6249   -1.9721 N   0  0  0  0  0  0  0  0  0  0  0  0
   15.8860   26.0033   -3.0359 C   0  0  0  0  0  0  0  0  0  0  0  0
   16.4377   26.7183   -4.0718 C   0  0  0  0  0  0  0  0  0  0  0  0
   15.6888   27.0935   -5.1510 C   0  0  0  0  0  0  0  0  0  0  0  0
   14.3568   26.7362   -5.1782 C   0  0  0  0  0  0  0  0  0  0  0  0
   13.7859   26.0265   -4.1619 C   0  0  0  0  0  0  0  0  0  0  0  0
   14.5533   25.6505   -3.0713 C   0  0  0  0  0  0  0  0  0  0  0  0
   16.9156   24.5305    0.2142 C   0  0  0  0  0  0  0  0  0  0  0  0
   16.5173   23.2778    0.9135 C   0  0  0  0  0  0  0  0  0  0  0  0
   15.2418   22.6545    0.4190 C   0  0  0  0  0  0  0  0  0  0  0  0
   14.2207   23.7684    0.1732 C   0  0  0  0  0  0  0  0  0  0  0  0
  1  2  1  0  0  0
  2 27  1  0  0  0
 27 28  2  0  0  0
 27 29  1  0  0  0
 29 31  1  0  0  0
 31 32  1  0  0  0
 32 33  1  0  0  0
 33 34  1  0  0  0
 34 35  1  0  0  0
 35 36  1  0  0  0
 36 37  1  0  0  0
 37 39  1  0  0  0
 39 40  2  0  0  0
 40 41  1  0  0  0
 41 42  2  0  0  0
 42 43  1  0  0  0
 43 44  2  0  0  0
 44 45  1  0  0  0
 45 46  2  0  0  0
 46 47  1  0  0  0
 47 48  2  0  0  0
 41 49  1  0  0  0
 49 50  1  0  0  0
 50 51  1  0  0  0
 51 52  1  0  0  0
  2  3  1  0  0  0
  3  4  2  0  0  0
  4  5  1  0  0  0
  5  6  2  0  0  0
  6 10  1  0  0  0
 10 11  2  0  0  0
 11 12  1  0  0  0
 12 13  2  0  0  0
 13 16  1  0  0  0
 16 17  1  0  0  0
 17 18  1  0  0  0
 18 19  1  0  0  0
 19 20  1  0  0  0
 20 21  1  0  0  0
 21 22  1  0  0  0
 22 23  1  0  0  0
 23 24  1  0  0  0
 24 25  2  0  0  0
 24 26  1  0  0  0
 13 14  1  0  0  0
 14 15  2  0  0  0
  6  7  1  0  0  0
  7  8  1  0  0  0
  7  9  2  0  0  0
 48 39  1  0  0  0
  9  3  1  0  0  0
 52 40  1  0  0  0
 15 10  1  0  0  0
 48 43  1  0  0  0
 29 30  1  0  0  0
 37 38  1  0  0  0
M  CHG 1  24   1
M  CHG 1  26  -1
M  END
> <minimizedAffinity>
-7.26307

> <CNNscore>
0.1401916295

> <CNNaffinity>
7.3943758011

> <CNN_VS>
1.0366295576

> <CNNaffinity_variance>
0.2562923431

$$$$
[H]c1c([H])c(-c2c([H])c([H])c(C([H])(C(=O)N([H])C([H])([H])C([H])([H])C([H])([H])C([H])([H])C([H])([H])C([H])([H])N([H])c3c4c(nc5c([H])c([H])c([H])c([H])c35)C([H])([H])C([H])([H])C([H])([H])C4([H])[H])C([H])([H])[H])c([H])c2F)c([H])c([H])c1OC([H])([H])C([H])([H])C([H])([H])C([H])([H])C([H])([H])C([H])([H])O[N+](=O)[O-]


 52 56  0  0  0  0  0  0  0  0999 V2000
   14.6487   20.2908   -0.6277 C   0  0  0  0  0  0  0  0  0  0  0  0
   13.8973   21.3783    0.1341 C   0  0  0  0  0  0  0  0  0  0  0  0
   12.4572   21.1636   -0.1061 C   0  0  0  0  0  0  0  0  0  0  0  0
   11.6872   20.5974    0.8824 C   0  0  0  0  0  0  0  0  0  0  0  0
   10.3245   20.3568    0.7000 C   0  0  0  0  0  0  0  0  0  0  0  0
    9.7453   20.6907   -0.4839 C   0  0  0  0  0  0  0  0  0  0  0  0
   10.4962   21.2573   -1.4845 C   0  0  0  0  0  0  0  0  0  0  0  0
    9.9363   21.5901   -2.6719 F   0  0  0  0  0  0  0  0  0  0  0  0
   11.8640   21.4955   -1.2930 C   0  0  0  0  0  0  0  0  0  0  0  0
    8.3293   20.4573   -0.6995 C   0  0  0  0  0  0  0  0  0  0  0  0
    7.3632   21.0873    0.0525 C   0  0  0  0  0  0  0  0  0  0  0  0
    6.0049   20.8490   -0.1806 C   0  0  0  0  0  0  0  0  0  0  0  0
    5.5600   19.9879   -1.1543 C   0  0  0  0  0  0  0  0  0  0  0  0
    6.5615   19.3516   -1.9157 C   0  0  0  0  0  0  0  0  0  0  0  0
    7.8840   19.5954   -1.6758 C   0  0  0  0  0  0  0  0  0  0  0  0
    4.2513   19.6955   -1.4429 O   0  0  0  0  0  0  0  0  0  0  0  0
    3.7533   19.1194   -2.6083 C   0  0  0  0  0  0  0  0  0  0  0  0
    2.3172   19.4886   -2.8009 C   0  0  0  0  0  0  0  0  0  0  0  0
    1.6929   19.8792   -1.4937 C   0  0  0  0  0  0  0  0  0  0  0  0
    1.2125   18.6753   -0.7591 C   0  0  0  0  0  0  0  0  0  0  0  0
    1.3947   18.7752    0.7338 C   0  0  0  0  0  0  0  0  0  0  0  0
    2.5494   17.9160    1.1604 C   0  0  0  0  0  0  0  0  0  0  0  0
    2.7682   16.9223    0.1434 O   0  0  0  0  0  0  0  0  0  0  0  0
    3.9958   16.3055    0.1555 N   0  0  0  0  0  0  0  0  0  0  0  0
    4.8147   16.4294   -0.7741 O   0  0  0  0  0  0  0  0  0  0  0  0
    4.2752   15.5321    1.2668 O   0  0  0  0  0  0  0  0  0  0  0  0
   14.3941   22.7210   -0.1597 C   0  0  0  0  0  0  0  0  0  0  0  0
   14.8418   23.4628    0.7845 O   0  0  0  0  0  0  0  0  0  0  0  0
   14.4288   23.3018   -1.4481 N   0  0  0  0  0  0  0  0  0  0  0  0
   14.0761   22.7363   -2.2472 H   0  0  0  0  0  0  0  0  0  0  0  0
   14.9249   24.6230   -1.7215 C   0  0  0  0  0  0  0  0  0  0  0  0
   13.8329   25.5712   -2.1551 C   0  0  0  0  0  0  0  0  0  0  0  0
   12.4768   24.9715   -1.8407 C   0  0  0  0  0  0  0  0  0  0  0  0
   12.1456   25.3633   -0.3995 C   0  0  0  0  0  0  0  0  0  0  0  0
   10.9987   24.5840    0.1206 C   0  0  0  0  0  0  0  0  0  0  0  0
   11.1015   24.1414    1.5182 C   0  0  0  0  0  0  0  0  0  0  0  0
    9.9402   23.7419    2.1919 N   0  0  0  0  0  0  0  0  0  0  0  0
    9.1856   23.2593    1.5732 H   0  0  0  0  0  0  0  0  0  0  0  0
    9.5439   23.8402    3.5270 C   0  0  0  0  0  0  0  0  0  0  0  0
    8.8602   24.9607    3.9552 C   0  0  0  0  0  0  0  0  0  0  0  0
    8.4291   25.0349    5.2591 C   0  0  0  0  0  0  0  0  0  0  0  0
    8.6840   23.9980    6.1073 N   0  0  0  0  0  0  0  0  0  0  0  0
    9.3436   22.8924    5.7310 C   0  0  0  0  0  0  0  0  0  0  0  0
    9.5849   21.8590    6.6042 C   0  0  0  0  0  0  0  0  0  0  0  0
   10.2548   20.7371    6.2055 C   0  0  0  0  0  0  0  0  0  0  0  0
   10.6869   20.6640    4.8975 C   0  0  0  0  0  0  0  0  0  0  0  0
   10.4596   21.6770    4.0117 C   0  0  0  0  0  0  0  0  0  0  0  0
    9.7794   22.8110    4.4252 C   0  0  0  0  0  0  0  0  0  0  0  0
    7.7133   26.2293    5.7198 C   0  0  0  0  0  0  0  0  0  0  0  0
    6.9222   26.9504    4.6848 C   0  0  0  0  0  0  0  0  0  0  0  0
    7.0778   26.4217    3.2862 C   0  0  0  0  0  0  0  0  0  0  0  0
    8.5554   26.0967    3.0518 C   0  0  0  0  0  0  0  0  0  0  0  0
  1  2  1  0  0  0
  2 27  1  0  0  0
 27 28  2  0  0  0
 27 29  1  0  0  0
 29 31  1  0  0  0
 31 32  1  0  0  0
 32 33  1  0  0  0
 33 34  1  0  0  0
 34 35  1  0  0  0
 35 36  1  0  0  0
 36 37  1  0  0  0
 37 39  1  0  0  0
 39 40  2  0  0  0
 40 41  1  0  0  0
 41 42  2  0  0  0
 42 43  1  0  0  0
 43 44  2  0  0  0
 44 45  1  0  0  0
 45 46  2  0  0  0
 46 47  1  0  0  0
 47 48  2  0  0  0
 41 49  1  0  0  0
 49 50  1  0  0  0
 50 51  1  0  0  0
 51 52  1  0  0  0
  2  3  1  0  0  0
  3  4  2  0  0  0
  4  5  1  0  0  0
  5  6  2  0  0  0
  6 10  1  0  0  0
 10 11  2  0  0  0
 11 12  1  0  0  0
 12 13  2  0  0  0
 13 16  1  0  0  0
 16 17  1  0  0  0
 17 18  1  0  0  0
 18 19  1  0  0  0
 19 20  1  0  0  0
 20 21  1  0  0  0
 21 22  1  0  0  0
 22 23  1  0  0  0
 23 24  1  0  0  0
 24 25  2  0  0  0
 24 26  1  0  0  0
 13 14  1  0  0  0
 14 15  2  0  0  0
  6  7  1  0  0  0
  7  8  1  0  0  0
  7  9  2  0  0  0
 48 39  1  0  0  0
  9  3  1  0  0  0
 52 40  1  0  0  0
 15 10  1  0  0  0
 48 43  1  0  0  0
 29 30  1  0  0  0
 37 38  1  0  0  0
M  CHG 1  24   1
M  CHG 1  26  -1
M  END
> <minimizedAffinity>
-7.91865

> <CNNscore>
0.1268479824

> <CNNaffinity>
7.3992476463

> <CNN_VS>
0.9385796189

> <CNNaffinity_variance>
1.5718057156

$$$$
[H]c1c([H])c(-c2c([H])c([H])c(C([H])(C(=O)N([H])C([H])([H])C([H])([H])C([H])([H])C([H])([H])C([H])([H])C([H])([H])N([H])c3c4c(nc5c([H])c([H])c([H])c([H])c35)C([H])([H])C([H])([H])C([H])([H])C4([H])[H])C([H])([H])[H])c([H])c2F)c([H])c([H])c1OC([H])([H])C([H])([H])C([H])([H])C([H])([H])C([H])([H])C([H])([H])O[N+](=O)[O-]


 52 56  0  0  0  0  0  0  0  0999 V2000
   14.5849   20.2141   -0.5480 C   0  0  0  0  0  0  0  0  0  0  0  0
   13.8444   21.3257    0.1893 C   0  0  0  0  0  0  0  0  0  0  0  0
   12.4049   21.1448   -0.0809 C   0  0  0  0  0  0  0  0  0  0  0  0
   11.5956   20.6262    0.9024 C   0  0  0  0  0  0  0  0  0  0  0  0
   10.2315   20.4188    0.6925 C   0  0  0  0  0  0  0  0  0  0  0  0
    9.6906   20.7374   -0.5135 C   0  0  0  0  0  0  0  0  0  0  0  0
   10.4811   21.2566   -1.5094 C   0  0  0  0  0  0  0  0  0  0  0  0
    9.9595   21.5734   -2.7184 F   0  0  0  0  0  0  0  0  0  0  0  0
   11.8501   21.4617   -1.2903 C   0  0  0  0  0  0  0  0  0  0  0  0
    8.2741   20.5377   -0.7580 C   0  0  0  0  0  0  0  0  0  0  0  0
    7.8147   19.6297   -1.6854 C   0  0  0  0  0  0  0  0  0  0  0  0
    6.4436   19.4525   -1.8967 C   0  0  0  0  0  0  0  0  0  0  0  0
    5.4897   20.1603   -1.2063 C   0  0  0  0  0  0  0  0  0  0  0  0
    5.9765   21.0852   -0.2601 C   0  0  0  0  0  0  0  0  0  0  0  0
    7.3189   21.2462   -0.0653 C   0  0  0  0  0  0  0  0  0  0  0  0
    4.1307   20.0508   -1.3565 O   0  0  0  0  0  0  0  0  0  0  0  0
    3.1598   20.9525   -0.9294 C   0  0  0  0  0  0  0  0  0  0  0  0
    1.8932   20.2340   -0.5901 C   0  0  0  0  0  0  0  0  0  0  0  0
    2.1112   18.7496   -0.5939 C   0  0  0  0  0  0  0  0  0  0  0  0
    0.8497   18.0331   -0.9335 C   0  0  0  0  0  0  0  0  0  0  0  0
    0.0049   17.7086    0.2718 C   0  0  0  0  0  0  0  0  0  0  0  0
    0.8903   17.3109    1.4170 C   0  0  0  0  0  0  0  0  0  0  0  0
    0.3521   16.1130    2.0044 O   0  0  0  0  0  0  0  0  0  0  0  0
    1.1557   15.4743    2.9176 N   0  0  0  0  0  0  0  0  0  0  0  0
    1.6453   16.0599    3.9012 O   0  0  0  0  0  0  0  0  0  0  0  0
    1.3938   14.1329    2.6827 O   0  0  0  0  0  0  0  0  0  0  0  0
   14.3806   22.6534   -0.1033 C   0  0  0  0  0  0  0  0  0  0  0  0
   14.8510   23.3803    0.8415 O   0  0  0  0  0  0  0  0  0  0  0  0
   14.4315   23.2345   -1.3909 N   0  0  0  0  0  0  0  0  0  0  0  0
   14.0613   22.6809   -2.1904 H   0  0  0  0  0  0  0  0  0  0  0  0
   14.9664   24.5408   -1.6632 C   0  0  0  0  0  0  0  0  0  0  0  0
   13.9081   25.5129   -2.1262 C   0  0  0  0  0  0  0  0  0  0  0  0
   12.5309   24.9454   -1.8452 C   0  0  0  0  0  0  0  0  0  0  0  0
   12.1724   25.3481   -0.4135 C   0  0  0  0  0  0  0  0  0  0  0  0
   11.0207   24.5674    0.0933 C   0  0  0  0  0  0  0  0  0  0  0  0
   11.0740   24.1880    1.5121 C   0  0  0  0  0  0  0  0  0  0  0  0
    9.8826   23.8672    2.1752 N   0  0  0  0  0  0  0  0  0  0  0  0
    9.0865   23.4802    1.5415 H   0  0  0  0  0  0  0  0  0  0  0  0
    9.4991   23.9458    3.5154 C   0  0  0  0  0  0  0  0  0  0  0  0
    8.8009   25.0501    3.9618 C   0  0  0  0  0  0  0  0  0  0  0  0
    8.3827   25.1043    5.2708 C   0  0  0  0  0  0  0  0  0  0  0  0
    8.6644   24.0638    6.1060 N   0  0  0  0  0  0  0  0  0  0  0  0
    9.3388   22.9735    5.7120 C   0  0  0  0  0  0  0  0  0  0  0  0
    9.6071   21.9360    6.5723 C   0  0  0  0  0  0  0  0  0  0  0  0
   10.2918   20.8298    6.1556 C   0  0  0  0  0  0  0  0  0  0  0  0
   10.7110   20.7767    4.8425 C   0  0  0  0  0  0  0  0  0  0  0  0
   10.4569   21.7941    3.9691 C   0  0  0  0  0  0  0  0  0  0  0  0
    9.7619   22.9122    4.4009 C   0  0  0  0  0  0  0  0  0  0  0  0
    7.6514   26.2817    5.7508 C   0  0  0  0  0  0  0  0  0  0  0  0
    6.8371   26.9990    4.7313 C   0  0  0  0  0  0  0  0  0  0  0  0
    6.9867   26.4865    3.3260 C   0  0  0  0  0  0  0  0  0  0  0  0
    8.4670   26.1893    3.0728 C   0  0  0  0  0  0  0  0  0  0  0  0
  1  2  1  0  0  0
  2 27  1  0  0  0
 27 28  2  0  0  0
 27 29  1  0  0  0
 29 31  1  0  0  0
 31 32  1  0  0  0
 32 33  1  0  0  0
 33 34  1  0  0  0
 34 35  1  0  0  0
 35 36  1  0  0  0
 36 37  1  0  0  0
 37 39  1  0  0  0
 39 40  2  0  0  0
 40 41  1  0  0  0
 41 42  2  0  0  0
 42 43  1  0  0  0
 43 44  2  0  0  0
 44 45  1  0  0  0
 45 46  2  0  0  0
 46 47  1  0  0  0
 47 48  2  0  0  0
 41 49  1  0  0  0
 49 50  1  0  0  0
 50 51  1  0  0  0
 51 52  1  0  0  0
  2  3  1  0  0  0
  3  4  2  0  0  0
  4  5  1  0  0  0
  5  6  2  0  0  0
  6 10  1  0  0  0
 10 11  2  0  0  0
 11 12  1  0  0  0
 12 13  2  0  0  0
 13 16  1  0  0  0
 16 17  1  0  0  0
 17 18  1  0  0  0
 18 19  1  0  0  0
 19 20  1  0  0  0
 20 21  1  0  0  0
 21 22  1  0  0  0
 22 23  1  0  0  0
 23 24  1  0  0  0
 24 25  2  0  0  0
 24 26  1  0  0  0
 13 14  1  0  0  0
 14 15  2  0  0  0
  6  7  1  0  0  0
  7  8  1  0  0  0
  7  9  2  0  0  0
 48 39  1  0  0  0
  9  3  1  0  0  0
 52 40  1  0  0  0
 15 10  1  0  0  0
 48 43  1  0  0  0
 29 30  1  0  0  0
 37 38  1  0  0  0
M  CHG 1  24   1
M  CHG 1  26  -1
M  END
> <minimizedAffinity>
-7.55679

> <CNNscore>
0.1187060624

> <CNNaffinity>
7.3458824158

> <CNN_VS>
0.8720007539

> <CNNaffinity_variance>
1.2800766230

$$$$
[H]c1c([H])c(-c2c([H])c([H])c(C([H])(C(=O)N([H])C([H])([H])C([H])([H])C([H])([H])C([H])([H])C([H])([H])C([H])([H])N([H])c3c4c(nc5c([H])c([H])c([H])c([H])c35)C([H])([H])C([H])([H])C([H])([H])C4([H])[H])C([H])([H])[H])c([H])c2F)c([H])c([H])c1OC([H])([H])C([H])([H])C([H])([H])C([H])([H])C([H])([H])C([H])([H])O[N+](=O)[O-]


 52 56  0  0  0  0  0  0  0  0999 V2000
    5.7472   18.8434   -1.9895 C   0  0  0  0  0  0  0  0  0  0  0  0
    5.8433   19.2411   -0.5197 C   0  0  0  0  0  0  0  0  0  0  0  0
    7.0490   20.0792   -0.3724 C   0  0  0  0  0  0  0  0  0  0  0  0
    7.1233   20.9743    0.6687 C   0  0  0  0  0  0  0  0  0  0  0  0
    8.2331   21.8024    0.8430 C   0  0  0  0  0  0  0  0  0  0  0  0
    9.2653   21.7214   -0.0382 C   0  0  0  0  0  0  0  0  0  0  0  0
    9.2114   20.8340   -1.0852 C   0  0  0  0  0  0  0  0  0  0  0  0
   10.2282   20.7451   -1.9754 F   0  0  0  0  0  0  0  0  0  0  0  0
    8.0931   20.0062   -1.2529 C   0  0  0  0  0  0  0  0  0  0  0  0
   10.4345   22.5660    0.1216 C   0  0  0  0  0  0  0  0  0  0  0  0
   10.5167   23.8145   -0.4531 C   0  0  0  0  0  0  0  0  0  0  0  0
   11.6530   24.6109   -0.2777 C   0  0  0  0  0  0  0  0  0  0  0  0
   12.7360   24.2040    0.4634 C   0  0  0  0  0  0  0  0  0  0  0  0
   12.6357   22.9238    1.0456 C   0  0  0  0  0  0  0  0  0  0  0  0
   11.5187   22.1585    0.8650 C   0  0  0  0  0  0  0  0  0  0  0  0
   13.8864   24.9190    0.6795 O   0  0  0  0  0  0  0  0  0  0  0  0
   15.1857   24.5471    0.3453 C   0  0  0  0  0  0  0  0  0  0  0  0
   15.2621   24.1539   -1.0953 C   0  0  0  0  0  0  0  0  0  0  0  0
   15.9571   25.2154   -1.8959 C   0  0  0  0  0  0  0  0  0  0  0  0
   16.1609   24.7657   -3.3017 C   0  0  0  0  0  0  0  0  0  0  0  0
   14.9145   24.8581   -4.1443 C   0  0  0  0  0  0  0  0  0  0  0  0
   14.4177   26.2746   -4.1576 C   0  0  0  0  0  0  0  0  0  0  0  0
   14.3044   26.6968   -5.5282 O   0  0  0  0  0  0  0  0  0  0  0  0
   15.4114   27.3078   -6.0657 N   0  0  0  0  0  0  0  0  0  0  0  0
   15.8808   28.3648   -5.6045 O   0  0  0  0  0  0  0  0  0  0  0  0
   15.9813   26.6794   -7.1571 O   0  0  0  0  0  0  0  0  0  0  0  0
    5.7554   18.0954    0.3833 C   0  0  0  0  0  0  0  0  0  0  0  0
    6.5997   17.1358    0.2901 O   0  0  0  0  0  0  0  0  0  0  0  0
    4.7816   17.9426    1.3965 N   0  0  0  0  0  0  0  0  0  0  0  0
    4.0746   18.6975    1.5107 H   0  0  0  0  0  0  0  0  0  0  0  0
    4.7110   16.8108    2.2801 C   0  0  0  0  0  0  0  0  0  0  0  0
    4.4469   17.2117    3.7115 C   0  0  0  0  0  0  0  0  0  0  0  0
    3.4094   18.3161    3.7527 C   0  0  0  0  0  0  0  0  0  0  0  0
    2.4876   18.0992    2.5511 C   0  0  0  0  0  0  0  0  0  0  0  0
    1.0769   17.9469    2.9749 C   0  0  0  0  0  0  0  0  0  0  0  0
    0.1599   17.3873    1.9721 C   0  0  0  0  0  0  0  0  0  0  0  0
   -0.1337   18.1372    0.8259 N   0  0  0  0  0  0  0  0  0  0  0  0
   -1.0187   18.7672    0.8957 H   0  0  0  0  0  0  0  0  0  0  0  0
    0.4922   18.2423   -0.4176 C   0  0  0  0  0  0  0  0  0  0  0  0
    1.1775   19.3964   -0.7414 C   0  0  0  0  0  0  0  0  0  0  0  0
    1.8332   19.4799   -1.9474 C   0  0  0  0  0  0  0  0  0  0  0  0
    1.7960   18.4190   -2.8032 N   0  0  0  0  0  0  0  0  0  0  0  0
    1.1430   17.2806   -2.5266 C   0  0  0  0  0  0  0  0  0  0  0  0
    1.1234   16.2236   -3.4046 C   0  0  0  0  0  0  0  0  0  0  0  0
    0.4571   15.0686   -3.1074 C   0  0  0  0  0  0  0  0  0  0  0  0
   -0.2004   14.9861   -1.8976 C   0  0  0  0  0  0  0  0  0  0  0  0
   -0.1957   16.0220   -1.0091 C   0  0  0  0  0  0  0  0  0  0  0  0
    0.4826   17.1896   -1.3193 C   0  0  0  0  0  0  0  0  0  0  0  0
    2.5517   20.7093   -2.2990 C   0  0  0  0  0  0  0  0  0  0  0  0
    3.0993   21.4898   -1.1552 C   0  0  0  0  0  0  0  0  0  0  0  0
    2.7227   20.9703    0.2042 C   0  0  0  0  0  0  0  0  0  0  0  0
    1.2480   20.5600    0.1755 C   0  0  0  0  0  0  0  0  0  0  0  0
  1  2  1  0  0  0
  2 27  1  0  0  0
 27 28  2  0  0  0
 27 29  1  0  0  0
 29 31  1  0  0  0
 31 32  1  0  0  0
 32 33  1  0  0  0
 33 34  1  0  0  0
 34 35  1  0  0  0
 35 36  1  0  0  0
 36 37  1  0  0  0
 37 39  1  0  0  0
 39 40  2  0  0  0
 40 41  1  0  0  0
 41 42  2  0  0  0
 42 43  1  0  0  0
 43 44  2  0  0  0
 44 45  1  0  0  0
 45 46  2  0  0  0
 46 47  1  0  0  0
 47 48  2  0  0  0
 41 49  1  0  0  0
 49 50  1  0  0  0
 50 51  1  0  0  0
 51 52  1  0  0  0
  2  3  1  0  0  0
  3  4  2  0  0  0
  4  5  1  0  0  0
  5  6  2  0  0  0
  6 10  1  0  0  0
 10 11  2  0  0  0
 11 12  1  0  0  0
 12 13  2  0  0  0
 13 16  1  0  0  0
 16 17  1  0  0  0
 17 18  1  0  0  0
 18 19  1  0  0  0
 19 20  1  0  0  0
 20 21  1  0  0  0
 21 22  1  0  0  0
 22 23  1  0  0  0
 23 24  1  0  0  0
 24 25  2  0  0  0
 24 26  1  0  0  0
 13 14  1  0  0  0
 14 15  2  0  0  0
  6  7  1  0  0  0
  7  8  1  0  0  0
  7  9  2  0  0  0
 48 39  1  0  0  0
  9  3  1  0  0  0
 52 40  1  0  0  0
 15 10  1  0  0  0
 48 43  1  0  0  0
 29 30  1  0  0  0
 37 38  1  0  0  0
M  CHG 1  24   1
M  CHG 1  26  -1
M  END
> <minimizedAffinity>
-7.88530

> <CNNscore>
0.1060871184

> <CNNaffinity>
6.7503242493

> <CNN_VS>
0.7161224484

> <CNNaffinity_variance>
0.5377643704

$$$$
[H]c1c([H])c(-c2c([H])c([H])c(C([H])(C(=O)N([H])C([H])([H])C([H])([H])C([H])([H])C([H])([H])C([H])([H])C([H])([H])N([H])c3c4c(nc5c([H])c([H])c([H])c([H])c35)C([H])([H])C([H])([H])C([H])([H])C4([H])[H])C([H])([H])[H])c([H])c2F)c([H])c([H])c1OC([H])([H])C([H])([H])C([H])([H])C([H])([H])C([H])([H])C([H])([H])O[N+](=O)[O-]


 52 56  0  0  0  0  0  0  0  0999 V2000
   14.5417   20.1503    0.0264 C   0  0  0  0  0  0  0  0  0  0  0  0
   13.7700   21.3908    0.4664 C   0  0  0  0  0  0  0  0  0  0  0  0
   12.3526   21.1678    0.1217 C   0  0  0  0  0  0  0  0  0  0  0  0
   11.5203   20.5785    1.0441 C   0  0  0  0  0  0  0  0  0  0  0  0
   10.1763   20.3293    0.7620 C   0  0  0  0  0  0  0  0  0  0  0  0
    9.6787   20.6781   -0.4543 C   0  0  0  0  0  0  0  0  0  0  0  0
   10.4928   21.2678   -1.3901 C   0  0  0  0  0  0  0  0  0  0  0  0
   10.0147   21.6157   -2.6085 F   0  0  0  0  0  0  0  0  0  0  0  0
   11.8413   21.5144   -1.0987 C   0  0  0  0  0  0  0  0  0  0  0  0
    8.2838   20.4362   -0.7730 C   0  0  0  0  0  0  0  0  0  0  0  0
    7.2605   20.9993   -0.0440 C   0  0  0  0  0  0  0  0  0  0  0  0
    5.9243   20.7546   -0.3769 C   0  0  0  0  0  0  0  0  0  0  0  0
    5.5580   19.9525   -1.4304 C   0  0  0  0  0  0  0  0  0  0  0  0
    6.6173   19.3843   -2.1671 C   0  0  0  0  0  0  0  0  0  0  0  0
    7.9173   19.6335   -1.8293 C   0  0  0  0  0  0  0  0  0  0  0  0
    4.2758   19.6583   -1.8190 O   0  0  0  0  0  0  0  0  0  0  0  0
    3.3597   18.8454   -1.1573 C   0  0  0  0  0  0  0  0  0  0  0  0
    3.5895   17.4094   -1.5048 C   0  0  0  0  0  0  0  0  0  0  0  0
    3.8161   16.5961   -0.2646 C   0  0  0  0  0  0  0  0  0  0  0  0
    5.1768   16.8472    0.2883 C   0  0  0  0  0  0  0  0  0  0  0  0
    5.5435   15.9171    1.4163 C   0  0  0  0  0  0  0  0  0  0  0  0
    5.5651   16.6769    2.7108 C   0  0  0  0  0  0  0  0  0  0  0  0
    5.2710   15.7557    3.7759 O   0  0  0  0  0  0  0  0  0  0  0  0
    5.9368   15.9676    4.9589 N   0  0  0  0  0  0  0  0  0  0  0  0
    6.0294   15.0921    5.8393 O   0  0  0  0  0  0  0  0  0  0  0  0
    6.5036   17.2181    5.1205 O   0  0  0  0  0  0  0  0  0  0  0  0
   14.3562   22.6305   -0.0389 C   0  0  0  0  0  0  0  0  0  0  0  0
   15.0186   23.3965    0.7464 O   0  0  0  0  0  0  0  0  0  0  0  0
   14.2561   23.0815   -1.3749 N   0  0  0  0  0  0  0  0  0  0  0  0
   13.7277   22.4917   -2.0501 H   0  0  0  0  0  0  0  0  0  0  0  0
   14.8423   24.3021   -1.8578 C   0  0  0  0  0  0  0  0  0  0  0  0
   13.8123   25.3762   -2.1119 C   0  0  0  0  0  0  0  0  0  0  0  0
   12.4283   24.8468   -1.7923 C   0  0  0  0  0  0  0  0  0  0  0  0
   12.0816   25.3412   -0.3866 C   0  0  0  0  0  0  0  0  0  0  0  0
   10.9202   24.6104    0.1702 C   0  0  0  0  0  0  0  0  0  0  0  0
   11.0610   24.1360    1.5540 C   0  0  0  0  0  0  0  0  0  0  0  0
    9.9204   23.7071    2.2449 N   0  0  0  0  0  0  0  0  0  0  0  0
    9.1892   23.1665    1.6464 H   0  0  0  0  0  0  0  0  0  0  0  0
    9.5209   23.8361    3.5764 C   0  0  0  0  0  0  0  0  0  0  0  0
    8.8360   24.9661    3.9770 C   0  0  0  0  0  0  0  0  0  0  0  0
    8.4018   25.0702    5.2778 C   0  0  0  0  0  0  0  0  0  0  0  0
    8.6546   24.0532    6.1502 N   0  0  0  0  0  0  0  0  0  0  0  0
    9.3152   22.9394    5.8012 C   0  0  0  0  0  0  0  0  0  0  0  0
    9.5544   21.9264    6.6985 C   0  0  0  0  0  0  0  0  0  0  0  0
   10.2254   20.7957    6.3274 C   0  0  0  0  0  0  0  0  0  0  0  0
   10.6607   20.6925    5.0226 C   0  0  0  0  0  0  0  0  0  0  0  0
   10.4355   21.6847    4.1131 C   0  0  0  0  0  0  0  0  0  0  0  0
    9.7543   22.8279    4.4986 C   0  0  0  0  0  0  0  0  0  0  0  0
    7.6847   26.2749    5.7091 C   0  0  0  0  0  0  0  0  0  0  0  0
    6.8962   26.9719    4.6557 C   0  0  0  0  0  0  0  0  0  0  0  0
    7.0553   26.4111    3.2701 C   0  0  0  0  0  0  0  0  0  0  0  0
    8.5334   26.0809    3.0469 C   0  0  0  0  0  0  0  0  0  0  0  0
  1  2  1  0  0  0
  2 27  1  0  0  0
 27 28  2  0  0  0
 27 29  1  0  0  0
 29 31  1  0  0  0
 31 32  1  0  0  0
 32 33  1  0  0  0
 33 34  1  0  0  0
 34 35  1  0  0  0
 35 36  1  0  0  0
 36 37  1  0  0  0
 37 39  1  0  0  0
 39 40  2  0  0  0
 40 41  1  0  0  0
 41 42  2  0  0  0
 42 43  1  0  0  0
 43 44  2  0  0  0
 44 45  1  0  0  0
 45 46  2  0  0  0
 46 47  1  0  0  0
 47 48  2  0  0  0
 41 49  1  0  0  0
 49 50  1  0  0  0
 50 51  1  0  0  0
 51 52  1  0  0  0
  2  3  1  0  0  0
  3  4  2  0  0  0
  4  5  1  0  0  0
  5  6  2  0  0  0
  6 10  1  0  0  0
 10 11  2  0  0  0
 11 12  1  0  0  0
 12 13  2  0  0  0
 13 16  1  0  0  0
 16 17  1  0  0  0
 17 18  1  0  0  0
 18 19  1  0  0  0
 19 20  1  0  0  0
 20 21  1  0  0  0
 21 22  1  0  0  0
 22 23  1  0  0  0
 23 24  1  0  0  0
 24 25  2  0  0  0
 24 26  1  0  0  0
 13 14  1  0  0  0
 14 15  2  0  0  0
  6  7  1  0  0  0
  7  8  1  0  0  0
  7  9  2  0  0  0
 48 39  1  0  0  0
  9  3  1  0  0  0
 52 40  1  0  0  0
 15 10  1  0  0  0
 48 43  1  0  0  0
 29 30  1  0  0  0
 37 38  1  0  0  0
M  CHG 1  24   1
M  CHG 1  26  -1
M  END
> <minimizedAffinity>
-8.10740

> <CNNscore>
0.1048825234

> <CNNaffinity>
7.5615806580

> <CNN_VS>
0.7930776477

> <CNNaffinity_variance>
1.5414613485

$$$$
[H]c1c([H])c(-c2c([H])c([H])c(C([H])(C(=O)N([H])C([H])([H])C([H])([H])C([H])([H])C([H])([H])C([H])([H])C([H])([H])N([H])c3c4c(nc5c([H])c([H])c([H])c([H])c35)C([H])([H])C([H])([H])C([H])([H])C4([H])[H])C([H])([H])[H])c([H])c2F)c([H])c([H])c1OC([H])([H])C([H])([H])C([H])([H])C([H])([H])C([H])([H])C([H])([H])O[N+](=O)[O-]


 52 56  0  0  0  0  0  0  0  0999 V2000
   14.6286   20.2676   -0.5826 C   0  0  0  0  0  0  0  0  0  0  0  0
   13.9029   21.3807    0.1670 C   0  0  0  0  0  0  0  0  0  0  0  0
   12.4571   21.1862   -0.0558 C   0  0  0  0  0  0  0  0  0  0  0  0
   11.6851   20.6618    0.9539 C   0  0  0  0  0  0  0  0  0  0  0  0
   10.3168   20.4416    0.7889 C   0  0  0  0  0  0  0  0  0  0  0  0
    9.7340   20.7534   -0.3993 C   0  0  0  0  0  0  0  0  0  0  0  0
   10.4869   21.2783   -1.4211 C   0  0  0  0  0  0  0  0  0  0  0  0
    9.9232   21.5886   -2.6128 F   0  0  0  0  0  0  0  0  0  0  0  0
   11.8603   21.4962   -1.2469 C   0  0  0  0  0  0  0  0  0  0  0  0
    8.3122   20.5405   -0.5973 C   0  0  0  0  0  0  0  0  0  0  0  0
    7.8307   19.6573   -1.5374 C   0  0  0  0  0  0  0  0  0  0  0  0
    6.4552   19.4664   -1.7032 C   0  0  0  0  0  0  0  0  0  0  0  0
    5.5184   20.1358   -0.9537 C   0  0  0  0  0  0  0  0  0  0  0  0
    6.0276   21.0356    0.0048 C   0  0  0  0  0  0  0  0  0  0  0  0
    7.3741   21.2105    0.1546 C   0  0  0  0  0  0  0  0  0  0  0  0
    4.1563   20.0107   -1.0565 O   0  0  0  0  0  0  0  0  0  0  0  0
    3.3287   19.1693   -0.3181 C   0  0  0  0  0  0  0  0  0  0  0  0
    2.1347   18.7714   -1.1254 C   0  0  0  0  0  0  0  0  0  0  0  0
    2.2871   17.3692   -1.6370 C   0  0  0  0  0  0  0  0  0  0  0  0
    1.9840   16.3813   -0.5635 C   0  0  0  0  0  0  0  0  0  0  0  0
    0.5323   16.3674   -0.1581 C   0  0  0  0  0  0  0  0  0  0  0  0
   -0.3213   16.0376   -1.3481 C   0  0  0  0  0  0  0  0  0  0  0  0
    0.0867   14.7526   -1.8498 O   0  0  0  0  0  0  0  0  0  0  0  0
    0.2566   14.6613   -3.2101 N   0  0  0  0  0  0  0  0  0  0  0  0
   -0.2178   15.4986   -4.0001 O   0  0  0  0  0  0  0  0  0  0  0  0
    0.9898   13.5787   -3.6587 O   0  0  0  0  0  0  0  0  0  0  0  0
   14.4191   22.7095   -0.1548 C   0  0  0  0  0  0  0  0  0  0  0  0
   14.9735   23.4226    0.7543 O   0  0  0  0  0  0  0  0  0  0  0  0
   14.3617   23.3064   -1.4350 N   0  0  0  0  0  0  0  0  0  0  0  0
   13.9208   22.7643   -2.2061 H   0  0  0  0  0  0  0  0  0  0  0  0
   14.8783   24.6135   -1.7368 C   0  0  0  0  0  0  0  0  0  0  0  0
   13.7920   25.5889   -2.1213 C   0  0  0  0  0  0  0  0  0  0  0  0
   12.4336   24.9983   -1.7992 C   0  0  0  0  0  0  0  0  0  0  0  0
   12.1414   25.3383   -0.3364 C   0  0  0  0  0  0  0  0  0  0  0  0
   10.9785   24.5752    0.1719 C   0  0  0  0  0  0  0  0  0  0  0  0
   11.0560   24.1411    1.5738 C   0  0  0  0  0  0  0  0  0  0  0  0
    9.8981   23.6673    2.2038 N   0  0  0  0  0  0  0  0  0  0  0  0
    9.2168   23.1071    1.5656 H   0  0  0  0  0  0  0  0  0  0  0  0
    9.4284   23.7709    3.5144 C   0  0  0  0  0  0  0  0  0  0  0  0
    9.5720   22.7027    4.3774 C   0  0  0  0  0  0  0  0  0  0  0  0
    9.1518   22.8232    5.6813 C   0  0  0  0  0  0  0  0  0  0  0  0
    8.6007   23.9982    6.1001 N   0  0  0  0  0  0  0  0  0  0  0  0
    8.4442   25.0590    5.2944 C   0  0  0  0  0  0  0  0  0  0  0  0
    7.8891   26.2340    5.7415 C   0  0  0  0  0  0  0  0  0  0  0  0
    7.7397   27.3077    4.9102 C   0  0  0  0  0  0  0  0  0  0  0  0
    8.1613   27.1856    3.6026 C   0  0  0  0  0  0  0  0  0  0  0  0
    8.7154   26.0294    3.1349 C   0  0  0  0  0  0  0  0  0  0  0  0
    8.8628   24.9456    3.9854 C   0  0  0  0  0  0  0  0  0  0  0  0
    9.2920   21.6859    6.5968 C   0  0  0  0  0  0  0  0  0  0  0  0
   10.4260   20.7630    6.3151 C   0  0  0  0  0  0  0  0  0  0  0  0
   11.1859   21.0601    5.0526 C   0  0  0  0  0  0  0  0  0  0  0  0
   10.1812   21.4185    3.9543 C   0  0  0  0  0  0  0  0  0  0  0  0
  1  2  1  0  0  0
  2 27  1  0  0  0
 27 28  2  0  0  0
 27 29  1  0  0  0
 29 31  1  0  0  0
 31 32  1  0  0  0
 32 33  1  0  0  0
 33 34  1  0  0  0
 34 35  1  0  0  0
 35 36  1  0  0  0
 36 37  1  0  0  0
 37 39  1  0  0  0
 39 40  2  0  0  0
 40 41  1  0  0  0
 41 42  2  0  0  0
 42 43  1  0  0  0
 43 44  2  0  0  0
 44 45  1  0  0  0
 45 46  2  0  0  0
 46 47  1  0  0  0
 47 48  2  0  0  0
 41 49  1  0  0  0
 49 50  1  0  0  0
 50 51  1  0  0  0
 51 52  1  0  0  0
  2  3  1  0  0  0
  3  4  2  0  0  0
  4  5  1  0  0  0
  5  6  2  0  0  0
  6 10  1  0  0  0
 10 11  2  0  0  0
 11 12  1  0  0  0
 12 13  2  0  0  0
 13 16  1  0  0  0
 16 17  1  0  0  0
 17 18  1  0  0  0
 18 19  1  0  0  0
 19 20  1  0  0  0
 20 21  1  0  0  0
 21 22  1  0  0  0
 22 23  1  0  0  0
 23 24  1  0  0  0
 24 25  2  0  0  0
 24 26  1  0  0  0
 13 14  1  0  0  0
 14 15  2  0  0  0
  6  7  1  0  0  0
  7  8  1  0  0  0
  7  9  2  0  0  0
 48 39  1  0  0  0
  9  3  1  0  0  0
 52 40  1  0  0  0
 15 10  1  0  0  0
 48 43  1  0  0  0
 29 30  1  0  0  0
 37 38  1  0  0  0
M  CHG 1  24   1
M  CHG 1  26  -1
M  END
> <minimizedAffinity>
-7.50310

> <CNNscore>
0.1025690064

> <CNNaffinity>
7.3583803177

> <CNN_VS>
0.7547417283

> <CNNaffinity_variance>
0.7739275098

$$$$
[H]OC(=O)[C@@]([H])(N([H])[H])C([H])([H])OP(=O)(O[H])O[C@]1([H])C([H])([H])C([H])([H])C([H])([H])O[C@]1([H])C([H])([H])OC(=O)C([H])([H])C([H])([H])c1c([H])c([H])c([H])c([H])c1OC([H])([H])c1c([H])c([H])c([H])c(Oc2c([H])c([H])c(C([H])([H])[H])c([H])c2[H])c1[H]


 49 52  0  0  0  0  0  0  0  0999 V2000
    8.4314   20.1147   -0.8589 C   0  0  0  0  0  0  0  0  0  0  0  0
    7.7586   19.6992    0.0988 O   0  0  0  0  0  0  0  0  0  0  0  0
    7.8982   19.9184   -2.1551 O   0  0  0  0  0  0  0  0  0  0  0  0
    6.7231   19.2992   -2.4426 C   0  0  0  0  0  0  0  0  0  0  0  0
    5.5318   20.1208   -2.8329 C   0  0  0  0  0  0  0  0  0  0  0  0
    4.6271   19.4488   -3.6115 O   0  0  0  0  0  0  0  0  0  0  0  0
    3.3049   19.7672   -3.4269 C   0  0  0  0  0  0  0  0  0  0  0  0
    3.0195   21.1985   -3.0998 C   0  0  0  0  0  0  0  0  0  0  0  0
    3.9459   21.8030   -2.1052 C   0  0  0  0  0  0  0  0  0  0  0  0
    4.8746   20.7208   -1.5832 C   0  0  0  0  0  0  0  0  0  0  0  0
    4.2411   19.8100   -0.7914 O   0  0  0  0  0  0  0  0  0  0  0  0
    3.9545   20.2790    0.7830 P   0  0  0  0  0  0  0  0  0  0  0  0
    5.0135   21.1443    1.3815 O   0  0  0  0  0  0  0  0  0  0  0  0
    2.4888   21.1558    0.9131 O   0  0  0  0  0  0  0  0  0  0  0  0
    1.7595   20.5368    1.0705 H   0  0  0  0  0  0  0  0  0  0  0  0
    3.7263   18.8597    1.6998 O   0  0  0  0  0  0  0  0  0  0  0  0
    4.9313   18.2339    2.0075 C   0  0  0  0  0  0  0  0  0  0  0  0
    4.7110   16.7509    1.7525 C   0  0  0  0  0  0  0  0  0  0  0  0
    4.3518   16.1306    2.9963 N   0  0  0  0  0  0  0  0  0  0  0  0
    3.3614   16.2298    3.2293 H   0  0  0  0  0  0  0  0  0  0  0  0
    4.7678   15.2030    3.1505 H   0  0  0  0  0  0  0  0  0  0  0  0
    5.8274   16.1029    1.0580 C   0  0  0  0  0  0  0  0  0  0  0  0
    6.5254   16.7241    0.2275 O   0  0  0  0  0  0  0  0  0  0  0  0
    6.1302   14.7790    1.3118 O   0  0  0  0  0  0  0  0  0  0  0  0
    6.4855   14.3973    2.1562 H   0  0  0  0  0  0  0  0  0  0  0  0
    9.7248   20.7772   -0.7282 C   0  0  0  0  0  0  0  0  0  0  0  0
    9.7839   22.2295   -0.4931 C   0  0  0  0  0  0  0  0  0  0  0  0
   10.2204   22.2365    1.9983 C   0  0  0  0  0  0  0  0  0  0  0  0
    9.9887   22.8260    3.2113 C   0  0  0  0  0  0  0  0  0  0  0  0
    9.0657   23.8656    3.3841 C   0  0  0  0  0  0  0  0  0  0  0  0
    8.3769   24.2942    2.2753 C   0  0  0  0  0  0  0  0  0  0  0  0
    8.5920   23.7234    1.0497 C   0  0  0  0  0  0  0  0  0  0  0  0
    9.5078   22.6987    0.8924 C   0  0  0  0  0  0  0  0  0  0  0  0
   11.1054   21.2245    1.8605 O   0  0  0  0  0  0  0  0  0  0  0  0
   12.4716   21.1564    1.8618 C   0  0  0  0  0  0  0  0  0  0  0  0
   14.0841   23.2402   -0.8627 C   0  0  0  0  0  0  0  0  0  0  0  0
   14.3679   22.2898   -1.8468 C   0  0  0  0  0  0  0  0  0  0  0  0
   14.0077   20.9947   -1.5653 C   0  0  0  0  0  0  0  0  0  0  0  0
   13.4014   20.6432   -0.3825 C   0  0  0  0  0  0  0  0  0  0  0  0
   13.1313   21.6048    0.5788 C   0  0  0  0  0  0  0  0  0  0  0  0
   13.4795   22.8975    0.3213 C   0  0  0  0  0  0  0  0  0  0  0  0
   14.4481   24.5427   -1.1617 O   0  0  0  0  0  0  0  0  0  0  0  0
   14.9276   26.6843   -6.3215 C   0  0  0  0  0  0  0  0  0  0  0  0
   14.7927   26.1207   -4.9637 C   0  0  0  0  0  0  0  0  0  0  0  0
   13.6126   26.2983   -4.2541 C   0  0  0  0  0  0  0  0  0  0  0  0
   13.5214   25.7553   -2.9749 C   0  0  0  0  0  0  0  0  0  0  0  0
   14.5581   25.0597   -2.4091 C   0  0  0  0  0  0  0  0  0  0  0  0
   15.7326   24.8954   -3.1433 C   0  0  0  0  0  0  0  0  0  0  0  0
   15.8585   25.4166   -4.4085 C   0  0  0  0  0  0  0  0  0  0  0  0
 43 44  1  0  0  0
 44 45  2  0  0  0
 45 46  1  0  0  0
 46 47  2  0  0  0
 47 42  1  0  0  0
 42 36  1  0  0  0
 36 37  2  0  0  0
 37 38  1  0  0  0
 38 39  2  0  0  0
 39 40  1  0  0  0
 40 35  1  0  0  0
 35 34  1  0  0  0
 34 28  1  0  0  0
 28 29  2  0  0  0
 29 30  1  0  0  0
 30 31  2  0  0  0
 31 32  1  0  0  0
 32 33  2  0  0  0
 33 27  1  0  0  0
 27 26  1  0  0  0
 26  1  1  0  0  0
  1  2  2  0  0  0
  1  3  1  0  0  0
  3  4  1  0  0  0
  4  5  1  0  0  0
  5  6  1  0  0  0
  6  7  1  0  0  0
  7  8  1  0  0  0
  8  9  1  0  0  0
  9 10  1  0  0  0
 10 11  1  0  0  0
 11 12  1  0  0  0
 12 13  2  0  0  0
 12 14  1  0  0  0
 12 16  1  0  0  0
 16 17  1  0  0  0
 17 18  1  0  0  0
 18 19  1  0  0  0
 18 22  1  0  0  0
 22 23  2  0  0  0
 22 24  1  0  0  0
 40 41  2  0  0  0
 47 48  1  0  0  0
 48 49  2  0  0  0
 49 44  1  0  0  0
 41 36  1  0  0  0
 33 28  1  0  0  0
 10  5  1  0  0  0
 14 15  1  0  0  0
 19 20  1  0  0  0
 19 21  1  0  0  0
 24 25  1  0  0  0
M  END
> <minimizedAffinity>
-9.52671

> <CNNscore>
0.2807684839

> <CNNaffinity>
6.6348800659

> <CNN_VS>
1.8628652096

> <CNNaffinity_variance>
0.4405098855

$$$$
[H]OC(=O)[C@@]([H])(N([H])[H])C([H])([H])OP(=O)(O[H])O[C@]1([H])C([H])([H])C([H])([H])C([H])([H])O[C@]1([H])C([H])([H])OC(=O)C([H])([H])C([H])([H])c1c([H])c([H])c([H])c([H])c1OC([H])([H])c1c([H])c([H])c([H])c(Oc2c([H])c([H])c(C([H])([H])[H])c([H])c2[H])c1[H]


 49 52  0  0  0  0  0  0  0  0999 V2000
   10.9700   24.0585   -0.2033 C   0  0  0  0  0  0  0  0  0  0  0  0
   10.2356   23.2935   -0.8496 O   0  0  0  0  0  0  0  0  0  0  0  0
   12.1647   24.4874   -0.8291 O   0  0  0  0  0  0  0  0  0  0  0  0
   12.2596   25.4637   -1.7697 C   0  0  0  0  0  0  0  0  0  0  0  0
   13.2626   25.3286   -2.8753 C   0  0  0  0  0  0  0  0  0  0  0  0
   13.7593   26.5248   -3.3211 O   0  0  0  0  0  0  0  0  0  0  0  0
   15.0698   26.5296   -3.7291 C   0  0  0  0  0  0  0  0  0  0  0  0
   15.5477   25.2804   -4.3986 C   0  0  0  0  0  0  0  0  0  0  0  0
   15.1087   24.0195   -3.7428 C   0  0  0  0  0  0  0  0  0  0  0  0
   14.3817   24.3669   -2.4555 C   0  0  0  0  0  0  0  0  0  0  0  0
   15.2097   24.8580   -1.4906 O   0  0  0  0  0  0  0  0  0  0  0  0
   15.3122   23.9646   -0.0863 P   0  0  0  0  0  0  0  0  0  0  0  0
   16.6583   23.9641    0.5590 O   0  0  0  0  0  0  0  0  0  0  0  0
   14.2138   24.5382    1.0964 O   0  0  0  0  0  0  0  0  0  0  0  0
   13.3636   24.0850    0.9889 H   0  0  0  0  0  0  0  0  0  0  0  0
   14.8050   22.3796   -0.4571 O   0  0  0  0  0  0  0  0  0  0  0  0
   14.5173   21.6393    0.6864 C   0  0  0  0  0  0  0  0  0  0  0  0
   13.2398   20.8731    0.3799 C   0  0  0  0  0  0  0  0  0  0  0  0
   12.7188   21.3519   -0.8693 N   0  0  0  0  0  0  0  0  0  0  0  0
   13.1618   20.9244   -1.6853 H   0  0  0  0  0  0  0  0  0  0  0  0
   11.6954   21.4463   -0.9007 H   0  0  0  0  0  0  0  0  0  0  0  0
   12.2707   20.8848    1.4794 C   0  0  0  0  0  0  0  0  0  0  0  0
   11.1433   20.3582    1.3586 O   0  0  0  0  0  0  0  0  0  0  0  0
   12.5901   21.4856    2.6819 O   0  0  0  0  0  0  0  0  0  0  0  0
   13.2719   21.1864    3.3382 H   0  0  0  0  0  0  0  0  0  0  0  0
   10.6810   24.5284    1.1475 C   0  0  0  0  0  0  0  0  0  0  0  0
    9.9107   23.6780    2.0702 C   0  0  0  0  0  0  0  0  0  0  0  0
    9.1617   23.6549    4.4860 C   0  0  0  0  0  0  0  0  0  0  0  0
    8.7731   24.3745    5.5831 C   0  0  0  0  0  0  0  0  0  0  0  0
    8.5562   25.7580    5.5436 C   0  0  0  0  0  0  0  0  0  0  0  0
    8.7483   26.3968    4.3425 C   0  0  0  0  0  0  0  0  0  0  0  0
    9.1399   25.7008    3.2305 C   0  0  0  0  0  0  0  0  0  0  0  0
    9.3525   24.3351    3.2837 C   0  0  0  0  0  0  0  0  0  0  0  0
    9.3497   22.3181    4.5464 O   0  0  0  0  0  0  0  0  0  0  0  0
   10.0366   21.4974    5.3985 C   0  0  0  0  0  0  0  0  0  0  0  0
    7.2783   19.3035    6.7928 C   0  0  0  0  0  0  0  0  0  0  0  0
    7.6697   19.1285    8.1226 C   0  0  0  0  0  0  0  0  0  0  0  0
    8.8338   19.7507    8.5023 C   0  0  0  0  0  0  0  0  0  0  0  0
    9.5799   20.5059    7.6286 C   0  0  0  0  0  0  0  0  0  0  0  0
    9.1706   20.6635    6.3135 C   0  0  0  0  0  0  0  0  0  0  0  0
    8.0178   20.0554    5.9138 C   0  0  0  0  0  0  0  0  0  0  0  0
    6.1004   18.6747    6.4248 O   0  0  0  0  0  0  0  0  0  0  0  0
    5.3854   15.6019    1.7894 C   0  0  0  0  0  0  0  0  0  0  0  0
    5.5675   16.4165    3.0071 C   0  0  0  0  0  0  0  0  0  0  0  0
    5.1754   17.7484    3.0146 C   0  0  0  0  0  0  0  0  0  0  0  0
    5.3646   18.4874    4.1797 C   0  0  0  0  0  0  0  0  0  0  0  0
    5.9230   17.9357    5.3033 C   0  0  0  0  0  0  0  0  0  0  0  0
    6.3081   16.5955    5.2694 C   0  0  0  0  0  0  0  0  0  0  0  0
    6.1362   15.8351    4.1378 C   0  0  0  0  0  0  0  0  0  0  0  0
 43 44  1  0  0  0
 44 45  2  0  0  0
 45 46  1  0  0  0
 46 47  2  0  0  0
 47 42  1  0  0  0
 42 36  1  0  0  0
 36 37  2  0  0  0
 37 38  1  0  0  0
 38 39  2  0  0  0
 39 40  1  0  0  0
 40 35  1  0  0  0
 35 34  1  0  0  0
 34 28  1  0  0  0
 28 29  2  0  0  0
 29 30  1  0  0  0
 30 31  2  0  0  0
 31 32  1  0  0  0
 32 33  2  0  0  0
 33 27  1  0  0  0
 27 26  1  0  0  0
 26  1  1  0  0  0
  1  2  2  0  0  0
  1  3  1  0  0  0
  3  4  1  0  0  0
  4  5  1  0  0  0
  5  6  1  0  0  0
  6  7  1  0  0  0
  7  8  1  0  0  0
  8  9  1  0  0  0
  9 10  1  0  0  0
 10 11  1  0  0  0
 11 12  1  0  0  0
 12 13  2  0  0  0
 12 14  1  0  0  0
 12 16  1  0  0  0
 16 17  1  0  0  0
 17 18  1  0  0  0
 18 19  1  0  0  0
 18 22  1  0  0  0
 22 23  2  0  0  0
 22 24  1  0  0  0
 40 41  2  0  0  0
 47 48  1  0  0  0
 48 49  2  0  0  0
 49 44  1  0  0  0
 41 36  1  0  0  0
 33 28  1  0  0  0
 10  5  1  0  0  0
 14 15  1  0  0  0
 19 20  1  0  0  0
 19 21  1  0  0  0
 24 25  1  0  0  0
M  END
> <minimizedAffinity>
-7.89294

> <CNNscore>
0.2625229955

> <CNNaffinity>
6.5443086624

> <CNN_VS>
1.7180315256

> <CNNaffinity_variance>
0.4378181994

$$$$
[H]OC(=O)[C@@]([H])(N([H])[H])C([H])([H])OP(=O)(O[H])O[C@]1([H])C([H])([H])C([H])([H])C([H])([H])O[C@]1([H])C([H])([H])OC(=O)C([H])([H])C([H])([H])c1c([H])c([H])c([H])c([H])c1OC([H])([H])c1c([H])c([H])c([H])c(Oc2c([H])c([H])c(C([H])([H])[H])c([H])c2[H])c1[H]


 49 52  0  0  0  0  0  0  0  0999 V2000
   11.0887   24.3303   -0.3902 C   0  0  0  0  0  0  0  0  0  0  0  0
   10.3898   23.8580   -1.3018 O   0  0  0  0  0  0  0  0  0  0  0  0
   12.3011   24.9566   -0.7653 O   0  0  0  0  0  0  0  0  0  0  0  0
   12.5049   25.6690   -1.9045 C   0  0  0  0  0  0  0  0  0  0  0  0
   13.5263   25.1997   -2.8960 C   0  0  0  0  0  0  0  0  0  0  0  0
   14.2977   26.2059   -3.4143 O   0  0  0  0  0  0  0  0  0  0  0  0
   15.6025   25.8911   -3.7011 C   0  0  0  0  0  0  0  0  0  0  0  0
   15.8432   24.4999   -4.1947 C   0  0  0  0  0  0  0  0  0  0  0  0
   15.1001   23.4437   -3.4566 C   0  0  0  0  0  0  0  0  0  0  0  0
   14.3813   24.0837   -2.2818 C   0  0  0  0  0  0  0  0  0  0  0  0
   15.2298   24.5033   -1.3012 O   0  0  0  0  0  0  0  0  0  0  0  0
   15.2060   23.6251    0.1162 P   0  0  0  0  0  0  0  0  0  0  0  0
   16.5280   23.5003    0.7980 O   0  0  0  0  0  0  0  0  0  0  0  0
   14.1399   24.3225    1.2613 O   0  0  0  0  0  0  0  0  0  0  0  0
   13.2518   23.9545    1.1359 H   0  0  0  0  0  0  0  0  0  0  0  0
   14.5530   22.0931   -0.2492 O   0  0  0  0  0  0  0  0  0  0  0  0
   13.4863   21.7648    0.5833 C   0  0  0  0  0  0  0  0  0  0  0  0
   12.5644   20.8826   -0.2442 C   0  0  0  0  0  0  0  0  0  0  0  0
   12.4759   21.4403   -1.5641 N   0  0  0  0  0  0  0  0  0  0  0  0
   13.2570   21.1786   -2.1695 H   0  0  0  0  0  0  0  0  0  0  0  0
   11.5384   21.4037   -1.9847 H   0  0  0  0  0  0  0  0  0  0  0  0
   11.2673   20.6315    0.3905 C   0  0  0  0  0  0  0  0  0  0  0  0
   11.1875   20.1046    1.5213 O   0  0  0  0  0  0  0  0  0  0  0  0
   10.0971   20.9764   -0.2581 O   0  0  0  0  0  0  0  0  0  0  0  0
    9.7745   21.8920   -0.4647 H   0  0  0  0  0  0  0  0  0  0  0  0
   10.7415   24.2714    1.0257 C   0  0  0  0  0  0  0  0  0  0  0  0
    9.3279   24.1994    1.4313 C   0  0  0  0  0  0  0  0  0  0  0  0
    8.9747   23.5733    3.8564 C   0  0  0  0  0  0  0  0  0  0  0  0
    8.8156   23.9953    5.1483 C   0  0  0  0  0  0  0  0  0  0  0  0
    8.6887   25.3472    5.4934 C   0  0  0  0  0  0  0  0  0  0  0  0
    8.7289   26.2688    4.4752 C   0  0  0  0  0  0  0  0  0  0  0  0
    8.8901   25.8733    3.1745 C   0  0  0  0  0  0  0  0  0  0  0  0
    9.0162   24.5352    2.8477 C   0  0  0  0  0  0  0  0  0  0  0  0
    9.0796   22.2617    3.5479 O   0  0  0  0  0  0  0  0  0  0  0  0
    8.3400   21.1545    3.8614 C   0  0  0  0  0  0  0  0  0  0  0  0
    5.8739   21.2241    0.9841 C   0  0  0  0  0  0  0  0  0  0  0  0
    4.8483   20.3920    1.4403 C   0  0  0  0  0  0  0  0  0  0  0  0
    5.0174   19.8445    2.6885 C   0  0  0  0  0  0  0  0  0  0  0  0
    6.1315   20.0953    3.4541 C   0  0  0  0  0  0  0  0  0  0  0  0
    7.1361   20.9238    2.9783 C   0  0  0  0  0  0  0  0  0  0  0  0
    6.9899   21.4792    1.7419 C   0  0  0  0  0  0  0  0  0  0  0  0
    5.6882   21.7732   -0.2739 O   0  0  0  0  0  0  0  0  0  0  0  0
    3.0460   19.2871   -4.5491 C   0  0  0  0  0  0  0  0  0  0  0  0
    3.7339   19.9439   -3.4201 C   0  0  0  0  0  0  0  0  0  0  0  0
    3.0785   20.9216   -2.6837 C   0  0  0  0  0  0  0  0  0  0  0  0
    3.7589   21.5218   -1.6272 C   0  0  0  0  0  0  0  0  0  0  0  0
    5.0446   21.1735   -1.3041 C   0  0  0  0  0  0  0  0  0  0  0  0
    5.6803   20.1883   -2.0598 C   0  0  0  0  0  0  0  0  0  0  0  0
    5.0401   19.5737   -3.1089 C   0  0  0  0  0  0  0  0  0  0  0  0
 43 44  1  0  0  0
 44 45  2  0  0  0
 45 46  1  0  0  0
 46 47  2  0  0  0
 47 42  1  0  0  0
 42 36  1  0  0  0
 36 37  2  0  0  0
 37 38  1  0  0  0
 38 39  2  0  0  0
 39 40  1  0  0  0
 40 35  1  0  0  0
 35 34  1  0  0  0
 34 28  1  0  0  0
 28 29  2  0  0  0
 29 30  1  0  0  0
 30 31  2  0  0  0
 31 32  1  0  0  0
 32 33  2  0  0  0
 33 27  1  0  0  0
 27 26  1  0  0  0
 26  1  1  0  0  0
  1  2  2  0  0  0
  1  3  1  0  0  0
  3  4  1  0  0  0
  4  5  1  0  0  0
  5  6  1  0  0  0
  6  7  1  0  0  0
  7  8  1  0  0  0
  8  9  1  0  0  0
  9 10  1  0  0  0
 10 11  1  0  0  0
 11 12  1  0  0  0
 12 13  2  0  0  0
 12 14  1  0  0  0
 12 16  1  0  0  0
 16 17  1  0  0  0
 17 18  1  0  0  0
 18 19  1  0  0  0
 18 22  1  0  0  0
 22 23  2  0  0  0
 22 24  1  0  0  0
 40 41  2  0  0  0
 47 48  1  0  0  0
 48 49  2  0  0  0
 49 44  1  0  0  0
 41 36  1  0  0  0
 33 28  1  0  0  0
 10  5  1  0  0  0
 14 15  1  0  0  0
 19 20  1  0  0  0
 19 21  1  0  0  0
 24 25  1  0  0  0
M  END
> <minimizedAffinity>
-8.16760

> <CNNscore>
0.2432405949

> <CNNaffinity>
6.1750798225

> <CNN_VS>
1.5020301342

> <CNNaffinity_variance>
1.0981571674

$$$$
[H]OC(=O)[C@@]([H])(N([H])[H])C([H])([H])OP(=O)(O[H])O[C@]1([H])C([H])([H])C([H])([H])C([H])([H])O[C@]1([H])C([H])([H])OC(=O)C([H])([H])C([H])([H])c1c([H])c([H])c([H])c([H])c1OC([H])([H])c1c([H])c([H])c([H])c(Oc2c([H])c([H])c(C([H])([H])[H])c([H])c2[H])c1[H]


 49 52  0  0  0  0  0  0  0  0999 V2000
   11.8192   20.5355    0.8659 C   0  0  0  0  0  0  0  0  0  0  0  0
   10.7766   19.9161    0.5979 O   0  0  0  0  0  0  0  0  0  0  0  0
   12.1061   20.7536    2.2345 O   0  0  0  0  0  0  0  0  0  0  0  0
   11.6209   20.0218    3.2717 C   0  0  0  0  0  0  0  0  0  0  0  0
   11.2457   20.7103    4.5492 C   0  0  0  0  0  0  0  0  0  0  0  0
   10.8987   22.0255    4.3879 O   0  0  0  0  0  0  0  0  0  0  0  0
    9.9216   22.5076    5.2226 C   0  0  0  0  0  0  0  0  0  0  0  0
    9.9156   21.9475    6.6094 C   0  0  0  0  0  0  0  0  0  0  0  0
   10.1220   20.4763    6.6839 C   0  0  0  0  0  0  0  0  0  0  0  0
   10.1508   19.9158    5.2727 C   0  0  0  0  0  0  0  0  0  0  0  0
    8.9342   19.9518    4.6592 O   0  0  0  0  0  0  0  0  0  0  0  0
    7.6863   19.1857    5.4569 P   0  0  0  0  0  0  0  0  0  0  0  0
    6.8034   20.0889    6.2525 O   0  0  0  0  0  0  0  0  0  0  0  0
    6.6627   18.3588    4.3603 O   0  0  0  0  0  0  0  0  0  0  0  0
    6.9973   17.4586    4.2281 H   0  0  0  0  0  0  0  0  0  0  0  0
    8.3805   17.9782    6.4403 O   0  0  0  0  0  0  0  0  0  0  0  0
    7.7254   17.8557    7.6628 C   0  0  0  0  0  0  0  0  0  0  0  0
    7.6686   16.3655    7.9609 C   0  0  0  0  0  0  0  0  0  0  0  0
    8.9720   15.8113    7.7259 N   0  0  0  0  0  0  0  0  0  0  0  0
    9.6146   15.9360    8.5110 H   0  0  0  0  0  0  0  0  0  0  0  0
    8.9716   14.8863    7.2769 H   0  0  0  0  0  0  0  0  0  0  0  0
    6.5844   15.6686    7.2630 C   0  0  0  0  0  0  0  0  0  0  0  0
    5.8533   14.8451    7.8547 O   0  0  0  0  0  0  0  0  0  0  0  0
    6.3495   15.9124    5.9234 O   0  0  0  0  0  0  0  0  0  0  0  0
    6.0165   16.7546    5.5175 H   0  0  0  0  0  0  0  0  0  0  0  0
   12.7486   21.0509   -0.1337 C   0  0  0  0  0  0  0  0  0  0  0  0
   13.4609   22.3161    0.1111 C   0  0  0  0  0  0  0  0  0  0  0  0
   12.4241   24.3379   -1.0004 C   0  0  0  0  0  0  0  0  0  0  0  0
   12.5302   25.3165   -1.9508 C   0  0  0  0  0  0  0  0  0  0  0  0
   13.5717   25.3532   -2.8872 C   0  0  0  0  0  0  0  0  0  0  0  0
   14.5136   24.3546   -2.8288 C   0  0  0  0  0  0  0  0  0  0  0  0
   14.4323   23.3655   -1.8858 C   0  0  0  0  0  0  0  0  0  0  0  0
   13.3997   23.3421   -0.9657 C   0  0  0  0  0  0  0  0  0  0  0  0
   11.4010   24.3163   -0.1177 O   0  0  0  0  0  0  0  0  0  0  0  0
   11.3175   24.4854    1.2372 C   0  0  0  0  0  0  0  0  0  0  0  0
    8.0480   24.8024    3.1280 C   0  0  0  0  0  0  0  0  0  0  0  0
    7.4110   23.5920    2.8422 C   0  0  0  0  0  0  0  0  0  0  0  0
    8.0970   22.7181    2.0348 C   0  0  0  0  0  0  0  0  0  0  0  0
    9.3423   23.0097    1.5304 C   0  0  0  0  0  0  0  0  0  0  0  0
    9.9529   24.2183    1.8279 C   0  0  0  0  0  0  0  0  0  0  0  0
    9.2910   25.1017    2.6280 C   0  0  0  0  0  0  0  0  0  0  0  0
    7.3471   25.6721    3.9471 O   0  0  0  0  0  0  0  0  0  0  0  0
    4.4352   30.1376    2.2094 C   0  0  0  0  0  0  0  0  0  0  0  0
    5.2093   28.9662    2.6653 C   0  0  0  0  0  0  0  0  0  0  0  0
    6.5265   28.8047    2.2570 C   0  0  0  0  0  0  0  0  0  0  0  0
    7.2257   27.6865    2.7043 C   0  0  0  0  0  0  0  0  0  0  0  0
    6.6487   26.7541    3.5267 C   0  0  0  0  0  0  0  0  0  0  0  0
    5.3241   26.9400    3.9223 C   0  0  0  0  0  0  0  0  0  0  0  0
    4.6032   28.0316    3.5015 C   0  0  0  0  0  0  0  0  0  0  0  0
 43 44  1  0  0  0
 44 45  2  0  0  0
 45 46  1  0  0  0
 46 47  2  0  0  0
 47 42  1  0  0  0
 42 36  1  0  0  0
 36 37  2  0  0  0
 37 38  1  0  0  0
 38 39  2  0  0  0
 39 40  1  0  0  0
 40 35  1  0  0  0
 35 34  1  0  0  0
 34 28  1  0  0  0
 28 29  2  0  0  0
 29 30  1  0  0  0
 30 31  2  0  0  0
 31 32  1  0  0  0
 32 33  2  0  0  0
 33 27  1  0  0  0
 27 26  1  0  0  0
 26  1  1  0  0  0
  1  2  2  0  0  0
  1  3  1  0  0  0
  3  4  1  0  0  0
  4  5  1  0  0  0
  5  6  1  0  0  0
  6  7  1  0  0  0
  7  8  1  0  0  0
  8  9  1  0  0  0
  9 10  1  0  0  0
 10 11  1  0  0  0
 11 12  1  0  0  0
 12 13  2  0  0  0
 12 14  1  0  0  0
 12 16  1  0  0  0
 16 17  1  0  0  0
 17 18  1  0  0  0
 18 19  1  0  0  0
 18 22  1  0  0  0
 22 23  2  0  0  0
 22 24  1  0  0  0
 40 41  2  0  0  0
 47 48  1  0  0  0
 48 49  2  0  0  0
 49 44  1  0  0  0
 41 36  1  0  0  0
 33 28  1  0  0  0
 10  5  1  0  0  0
 14 15  1  0  0  0
 19 20  1  0  0  0
 19 21  1  0  0  0
 24 25  1  0  0  0
M  END
> <minimizedAffinity>
-7.96770

> <CNNscore>
0.2307685316

> <CNNaffinity>
6.2093458176

> <CNN_VS>
1.4329216480

> <CNNaffinity_variance>
0.2753487229

$$$$
[H]OC(=O)[C@@]([H])(N([H])[H])C([H])([H])OP(=O)(O[H])O[C@]1([H])C([H])([H])C([H])([H])C([H])([H])O[C@]1([H])C([H])([H])OC(=O)C([H])([H])C([H])([H])c1c([H])c([H])c([H])c([H])c1OC([H])([H])c1c([H])c([H])c([H])c(Oc2c([H])c([H])c(C([H])([H])[H])c([H])c2[H])c1[H]


 49 52  0  0  0  0  0  0  0  0999 V2000
    7.1166   21.2399    0.8115 C   0  0  0  0  0  0  0  0  0  0  0  0
    7.3974   20.0358    0.6941 O   0  0  0  0  0  0  0  0  0  0  0  0
    5.7722   21.5623    1.1137 O   0  0  0  0  0  0  0  0  0  0  0  0
    4.6948   20.7691    0.8753 C   0  0  0  0  0  0  0  0  0  0  0  0
    3.8925   20.9695   -0.3748 C   0  0  0  0  0  0  0  0  0  0  0  0
    4.6455   21.3113   -1.4668 O   0  0  0  0  0  0  0  0  0  0  0  0
    4.2166   20.8334   -2.6799 C   0  0  0  0  0  0  0  0  0  0  0  0
    2.7343   20.7372   -2.8545 C   0  0  0  0  0  0  0  0  0  0  0  0
    2.0070   20.1852   -1.6802 C   0  0  0  0  0  0  0  0  0  0  0  0
    3.0228   19.7349   -0.6450 C   0  0  0  0  0  0  0  0  0  0  0  0
    3.7224   18.6300   -1.0290 O   0  0  0  0  0  0  0  0  0  0  0  0
    3.1583   17.1683   -0.4581 P   0  0  0  0  0  0  0  0  0  0  0  0
    2.1996   17.2689    0.6818 O   0  0  0  0  0  0  0  0  0  0  0  0
    2.3507   16.2909   -1.6877 O   0  0  0  0  0  0  0  0  0  0  0  0
    2.9935   15.7430   -2.1636 H   0  0  0  0  0  0  0  0  0  0  0  0
    4.5188   16.2300   -0.0392 O   0  0  0  0  0  0  0  0  0  0  0  0
    5.1164   16.6684    1.1395 C   0  0  0  0  0  0  0  0  0  0  0  0
    5.2477   15.4394    2.0257 C   0  0  0  0  0  0  0  0  0  0  0  0
    4.1915   14.5279    1.6873 N   0  0  0  0  0  0  0  0  0  0  0  0
    4.3988   13.9508    0.8694 H   0  0  0  0  0  0  0  0  0  0  0  0
    3.7638   14.0480    2.4898 H   0  0  0  0  0  0  0  0  0  0  0  0
    5.3360   15.7534    3.4547 C   0  0  0  0  0  0  0  0  0  0  0  0
    4.6580   16.6731    3.9618 O   0  0  0  0  0  0  0  0  0  0  0  0
    6.1805   15.0302    4.2749 O   0  0  0  0  0  0  0  0  0  0  0  0
    6.0940   14.0750    4.5303 H   0  0  0  0  0  0  0  0  0  0  0  0
    8.0768   22.3268    0.6508 C   0  0  0  0  0  0  0  0  0  0  0  0
    8.8143   22.8321    1.8207 C   0  0  0  0  0  0  0  0  0  0  0  0
   10.6721   21.1157    1.8402 C   0  0  0  0  0  0  0  0  0  0  0  0
   11.5434   20.3630    2.5797 C   0  0  0  0  0  0  0  0  0  0  0  0
   11.5067   20.3189    3.9795 C   0  0  0  0  0  0  0  0  0  0  0  0
   10.5476   21.0710    4.6136 C   0  0  0  0  0  0  0  0  0  0  0  0
    9.6657   21.8350    3.8975 C   0  0  0  0  0  0  0  0  0  0  0  0
    9.7141   21.8711    2.5156 C   0  0  0  0  0  0  0  0  0  0  0  0
   10.7183   21.1294    0.4897 O   0  0  0  0  0  0  0  0  0  0  0  0
   11.7133   20.9160   -0.4246 C   0  0  0  0  0  0  0  0  0  0  0  0
   13.5912   24.1046   -1.2439 C   0  0  0  0  0  0  0  0  0  0  0  0
   14.7754   23.9573   -0.5170 C   0  0  0  0  0  0  0  0  0  0  0  0
   14.9024   22.8011    0.2134 C   0  0  0  0  0  0  0  0  0  0  0  0
   13.9232   21.8363    0.2346 C   0  0  0  0  0  0  0  0  0  0  0  0
   12.7565   22.0065   -0.4945 C   0  0  0  0  0  0  0  0  0  0  0  0
   12.6082   23.1464   -1.2277 C   0  0  0  0  0  0  0  0  0  0  0  0
   13.4785   25.2727   -1.9795 O   0  0  0  0  0  0  0  0  0  0  0  0
   15.6598   26.1453   -7.0707 C   0  0  0  0  0  0  0  0  0  0  0  0
   15.0921   25.9101   -5.7285 C   0  0  0  0  0  0  0  0  0  0  0  0
   15.4366   24.7660   -5.0213 C   0  0  0  0  0  0  0  0  0  0  0  0
   14.8799   24.5754   -3.7591 C   0  0  0  0  0  0  0  0  0  0  0  0
   14.0103   25.4803   -3.2081 C   0  0  0  0  0  0  0  0  0  0  0  0
   13.6808   26.6215   -3.9394 C   0  0  0  0  0  0  0  0  0  0  0  0
   14.2110   26.8434   -5.1875 C   0  0  0  0  0  0  0  0  0  0  0  0
 43 44  1  0  0  0
 44 45  2  0  0  0
 45 46  1  0  0  0
 46 47  2  0  0  0
 47 42  1  0  0  0
 42 36  1  0  0  0
 36 37  2  0  0  0
 37 38  1  0  0  0
 38 39  2  0  0  0
 39 40  1  0  0  0
 40 35  1  0  0  0
 35 34  1  0  0  0
 34 28  1  0  0  0
 28 29  2  0  0  0
 29 30  1  0  0  0
 30 31  2  0  0  0
 31 32  1  0  0  0
 32 33  2  0  0  0
 33 27  1  0  0  0
 27 26  1  0  0  0
 26  1  1  0  0  0
  1  2  2  0  0  0
  1  3  1  0  0  0
  3  4  1  0  0  0
  4  5  1  0  0  0
  5  6  1  0  0  0
  6  7  1  0  0  0
  7  8  1  0  0  0
  8  9  1  0  0  0
  9 10  1  0  0  0
 10 11  1  0  0  0
 11 12  1  0  0  0
 12 13  2  0  0  0
 12 14  1  0  0  0
 12 16  1  0  0  0
 16 17  1  0  0  0
 17 18  1  0  0  0
 18 19  1  0  0  0
 18 22  1  0  0  0
 22 23  2  0  0  0
 22 24  1  0  0  0
 40 41  2  0  0  0
 47 48  1  0  0  0
 48 49  2  0  0  0
 49 44  1  0  0  0
 41 36  1  0  0  0
 33 28  1  0  0  0
 10  5  1  0  0  0
 14 15  1  0  0  0
 19 20  1  0  0  0
 19 21  1  0  0  0
 24 25  1  0  0  0
M  END
> <minimizedAffinity>
-9.32507

> <CNNscore>
0.1900888085

> <CNNaffinity>
6.3595128059

> <CNN_VS>
1.2088721991

> <CNNaffinity_variance>
0.2646521330

$$$$
[H]OC(=O)[C@@]([H])(N([H])[H])C([H])([H])OP(=O)(O[H])O[C@]1([H])C([H])([H])C([H])([H])C([H])([H])O[C@]1([H])C([H])([H])OC(=O)C([H])([H])C([H])([H])c1c([H])c([H])c([H])c([H])c1OC([H])([H])c1c([H])c([H])c([H])c(Oc2c([H])c([H])c(C([H])([H])[H])c([H])c2[H])c1[H]


 49 52  0  0  0  0  0  0  0  0999 V2000
    6.5543   21.7761    3.0900 C   0  0  0  0  0  0  0  0  0  0  0  0
    6.2402   21.5694    1.9063 O   0  0  0  0  0  0  0  0  0  0  0  0
    6.1340   20.8203    4.0453 O   0  0  0  0  0  0  0  0  0  0  0  0
    6.3530   20.8900    5.3846 C   0  0  0  0  0  0  0  0  0  0  0  0
    7.4499   20.0726    5.9970 C   0  0  0  0  0  0  0  0  0  0  0  0
    7.5289   20.1846    7.3599 O   0  0  0  0  0  0  0  0  0  0  0  0
    7.9177   19.0606    8.0450 C   0  0  0  0  0  0  0  0  0  0  0  0
    8.9211   18.1923    7.3551 C   0  0  0  0  0  0  0  0  0  0  0  0
    8.6600   17.9744    5.9070 C   0  0  0  0  0  0  0  0  0  0  0  0
    7.3274   18.6098    5.5508 C   0  0  0  0  0  0  0  0  0  0  0  0
    6.2614   17.9489    6.0841 O   0  0  0  0  0  0  0  0  0  0  0  0
    5.5663   16.7784    5.1210 P   0  0  0  0  0  0  0  0  0  0  0  0
    6.0832   15.3958    5.3438 O   0  0  0  0  0  0  0  0  0  0  0  0
    3.8721   16.7014    5.3617 O   0  0  0  0  0  0  0  0  0  0  0  0
    3.4351   17.3180    4.7545 H   0  0  0  0  0  0  0  0  0  0  0  0
    5.7808   17.2637    3.5007 O   0  0  0  0  0  0  0  0  0  0  0  0
    5.5175   16.2315    2.6041 C   0  0  0  0  0  0  0  0  0  0  0  0
    4.7751   16.8670    1.4389 C   0  0  0  0  0  0  0  0  0  0  0  0
    4.3955   15.8250    0.5273 N   0  0  0  0  0  0  0  0  0  0  0  0
    3.5379   15.3395    0.7988 H   0  0  0  0  0  0  0  0  0  0  0  0
    4.4886   16.0684   -0.4674 H   0  0  0  0  0  0  0  0  0  0  0  0
    5.5024   17.9761    0.8149 C   0  0  0  0  0  0  0  0  0  0  0  0
    6.6400   17.8131    0.3228 O   0  0  0  0  0  0  0  0  0  0  0  0
    4.9367   19.2355    0.7598 O   0  0  0  0  0  0  0  0  0  0  0  0
    4.1421   19.5124    0.2337 H   0  0  0  0  0  0  0  0  0  0  0  0
    7.3141   22.9345    3.5481 C   0  0  0  0  0  0  0  0  0  0  0  0
    8.7203   23.0958    3.1423 C   0  0  0  0  0  0  0  0  0  0  0  0
   10.1987   21.1316    2.5473 C   0  0  0  0  0  0  0  0  0  0  0  0
   11.1523   20.2376    2.9522 C   0  0  0  0  0  0  0  0  0  0  0  0
   11.5960   20.1521    4.2783 C   0  0  0  0  0  0  0  0  0  0  0  0
   11.0359   21.0118    5.1920 C   0  0  0  0  0  0  0  0  0  0  0  0
   10.0823   21.9177    4.8125 C   0  0  0  0  0  0  0  0  0  0  0  0
    9.6545   21.9931    3.4992 C   0  0  0  0  0  0  0  0  0  0  0  0
    9.7766   21.1841    1.2646 O   0  0  0  0  0  0  0  0  0  0  0  0
   10.0190   22.0378    0.2236 C   0  0  0  0  0  0  0  0  0  0  0  0
   13.4600   22.9340   -1.0884 C   0  0  0  0  0  0  0  0  0  0  0  0
   14.0092   21.6839   -1.3851 C   0  0  0  0  0  0  0  0  0  0  0  0
   13.2106   20.5937   -1.1399 C   0  0  0  0  0  0  0  0  0  0  0  0
   11.9396   20.7160   -0.6302 C   0  0  0  0  0  0  0  0  0  0  0  0
   11.4178   21.9678   -0.3429 C   0  0  0  0  0  0  0  0  0  0  0  0
   12.1920   23.0648   -0.5786 C   0  0  0  0  0  0  0  0  0  0  0  0
   14.2742   24.0248   -1.3450 O   0  0  0  0  0  0  0  0  0  0  0  0
   14.8217   26.5567   -6.3178 C   0  0  0  0  0  0  0  0  0  0  0  0
   14.6857   25.8871   -5.0092 C   0  0  0  0  0  0  0  0  0  0  0  0
   15.5243   24.8302   -4.6814 C   0  0  0  0  0  0  0  0  0  0  0  0
   15.3660   24.2204   -3.4394 C   0  0  0  0  0  0  0  0  0  0  0  0
   14.4123   24.6350   -2.5466 C   0  0  0  0  0  0  0  0  0  0  0  0
   13.5828   25.6992   -2.9005 C   0  0  0  0  0  0  0  0  0  0  0  0
   13.7103   26.3256   -4.1169 C   0  0  0  0  0  0  0  0  0  0  0  0
 43 44  1  0  0  0
 44 45  2  0  0  0
 45 46  1  0  0  0
 46 47  2  0  0  0
 47 42  1  0  0  0
 42 36  1  0  0  0
 36 37  2  0  0  0
 37 38  1  0  0  0
 38 39  2  0  0  0
 39 40  1  0  0  0
 40 35  1  0  0  0
 35 34  1  0  0  0
 34 28  1  0  0  0
 28 29  2  0  0  0
 29 30  1  0  0  0
 30 31  2  0  0  0
 31 32  1  0  0  0
 32 33  2  0  0  0
 33 27  1  0  0  0
 27 26  1  0  0  0
 26  1  1  0  0  0
  1  2  2  0  0  0
  1  3  1  0  0  0
  3  4  1  0  0  0
  4  5  1  0  0  0
  5  6  1  0  0  0
  6  7  1  0  0  0
  7  8  1  0  0  0
  8  9  1  0  0  0
  9 10  1  0  0  0
 10 11  1  0  0  0
 11 12  1  0  0  0
 12 13  2  0  0  0
 12 14  1  0  0  0
 12 16  1  0  0  0
 16 17  1  0  0  0
 17 18  1  0  0  0
 18 19  1  0  0  0
 18 22  1  0  0  0
 22 23  2  0  0  0
 22 24  1  0  0  0
 40 41  2  0  0  0
 47 48  1  0  0  0
 48 49  2  0  0  0
 49 44  1  0  0  0
 41 36  1  0  0  0
 33 28  1  0  0  0
 10  5  1  0  0  0
 14 15  1  0  0  0
 19 20  1  0  0  0
 19 21  1  0  0  0
 24 25  1  0  0  0
M  END
> <minimizedAffinity>
-8.26678

> <CNNscore>
0.1369310915

> <CNNaffinity>
6.1570749283

> <CNN_VS>
0.8430950046

> <CNNaffinity_variance>
0.3269904554

$$$$
[H]OC(=O)[C@@]([H])(N([H])[H])C([H])([H])OP(=O)(O[H])O[C@]1([H])C([H])([H])C([H])([H])C([H])([H])O[C@]1([H])C([H])([H])OC(=O)C([H])([H])C([H])([H])c1c([H])c([H])c([H])c([H])c1OC([H])([H])c1c([H])c([H])c([H])c(Oc2c([H])c([H])c(C([H])([H])[H])c([H])c2[H])c1[H]


 49 52  0  0  0  0  0  0  0  0999 V2000
   10.2332   24.0370   -0.0016 C   0  0  0  0  0  0  0  0  0  0  0  0
    9.2133   23.3313   -0.0654 O   0  0  0  0  0  0  0  0  0  0  0  0
   10.6338   24.4772    1.2824 O   0  0  0  0  0  0  0  0  0  0  0  0
    9.9906   24.2068    2.4486 C   0  0  0  0  0  0  0  0  0  0  0  0
    9.2508   25.3024    3.1549 C   0  0  0  0  0  0  0  0  0  0  0  0
    8.0928   25.6813    2.5289 O   0  0  0  0  0  0  0  0  0  0  0  0
    7.0564   26.0685    3.3410 C   0  0  0  0  0  0  0  0  0  0  0  0
    7.4444   26.7913    4.5917 C   0  0  0  0  0  0  0  0  0  0  0  0
    8.6073   26.2050    5.3103 C   0  0  0  0  0  0  0  0  0  0  0  0
    9.0072   24.9134    4.6188 C   0  0  0  0  0  0  0  0  0  0  0  0
    8.0970   23.9131    4.7886 O   0  0  0  0  0  0  0  0  0  0  0  0
    8.3853   22.8647    6.0530 P   0  0  0  0  0  0  0  0  0  0  0  0
    8.7041   23.5245    7.3536 O   0  0  0  0  0  0  0  0  0  0  0  0
    7.0313   21.8572    6.3457 O   0  0  0  0  0  0  0  0  0  0  0  0
    7.1031   21.0594    5.7996 H   0  0  0  0  0  0  0  0  0  0  0  0
    9.6418   21.8197    5.5669 O   0  0  0  0  0  0  0  0  0  0  0  0
    9.7032   20.6715    6.3521 C   0  0  0  0  0  0  0  0  0  0  0  0
    9.8910   19.5121    5.3860 C   0  0  0  0  0  0  0  0  0  0  0  0
    9.6586   18.2897    6.1022 N   0  0  0  0  0  0  0  0  0  0  0  0
    8.6686   18.0494    6.1861 H   0  0  0  0  0  0  0  0  0  0  0  0
   10.2975   17.5213    5.8603 H   0  0  0  0  0  0  0  0  0  0  0  0
   11.1650   19.5520    4.6624 C   0  0  0  0  0  0  0  0  0  0  0  0
   11.5923   18.5545    4.0418 O   0  0  0  0  0  0  0  0  0  0  0  0
   11.9246   20.7061    4.6544 O   0  0  0  0  0  0  0  0  0  0  0  0
   11.6969   21.5698    4.2217 H   0  0  0  0  0  0  0  0  0  0  0  0
   11.0274   24.4395   -1.1576 C   0  0  0  0  0  0  0  0  0  0  0  0
   12.3073   25.1399   -0.9595 C   0  0  0  0  0  0  0  0  0  0  0  0
   14.1063   24.1905   -2.4629 C   0  0  0  0  0  0  0  0  0  0  0  0
   14.8068   24.2914   -3.6341 C   0  0  0  0  0  0  0  0  0  0  0  0
   14.6732   25.3806   -4.5050 C   0  0  0  0  0  0  0  0  0  0  0  0
   13.7966   26.3761   -4.1471 C   0  0  0  0  0  0  0  0  0  0  0  0
   13.0814   26.2981   -2.9823 C   0  0  0  0  0  0  0  0  0  0  0  0
   13.2213   25.2160   -2.1321 C   0  0  0  0  0  0  0  0  0  0  0  0
   14.2643   23.1364   -1.6321 O   0  0  0  0  0  0  0  0  0  0  0  0
   13.9307   21.8121   -1.7108 C   0  0  0  0  0  0  0  0  0  0  0  0
   10.9024   20.1998   -0.0998 C   0  0  0  0  0  0  0  0  0  0  0  0
   11.0277   20.5827    1.2381 C   0  0  0  0  0  0  0  0  0  0  0  0
   12.1129   21.3650    1.5491 C   0  0  0  0  0  0  0  0  0  0  0  0
   13.0310   21.7544    0.6027 C   0  0  0  0  0  0  0  0  0  0  0  0
   12.8850   21.3603   -0.7184 C   0  0  0  0  0  0  0  0  0  0  0  0
   11.8150   20.5838   -1.0509 C   0  0  0  0  0  0  0  0  0  0  0  0
    9.8011   19.4153   -0.4003 O   0  0  0  0  0  0  0  0  0  0  0  0
    4.6846   21.3428   -1.6436 C   0  0  0  0  0  0  0  0  0  0  0  0
    6.0298   20.8360   -1.3078 C   0  0  0  0  0  0  0  0  0  0  0  0
    6.5716   21.0867   -0.0542 C   0  0  0  0  0  0  0  0  0  0  0  0
    7.8440   20.5956    0.2271 C   0  0  0  0  0  0  0  0  0  0  0  0
    8.5634   19.8808   -0.6949 C   0  0  0  0  0  0  0  0  0  0  0  0
    7.9961   19.6427   -1.9467 C   0  0  0  0  0  0  0  0  0  0  0  0
    6.7428   20.1110   -2.2597 C   0  0  0  0  0  0  0  0  0  0  0  0
 43 44  1  0  0  0
 44 45  2  0  0  0
 45 46  1  0  0  0
 46 47  2  0  0  0
 47 42  1  0  0  0
 42 36  1  0  0  0
 36 37  2  0  0  0
 37 38  1  0  0  0
 38 39  2  0  0  0
 39 40  1  0  0  0
 40 35  1  0  0  0
 35 34  1  0  0  0
 34 28  1  0  0  0
 28 29  2  0  0  0
 29 30  1  0  0  0
 30 31  2  0  0  0
 31 32  1  0  0  0
 32 33  2  0  0  0
 33 27  1  0  0  0
 27 26  1  0  0  0
 26  1  1  0  0  0
  1  2  2  0  0  0
  1  3  1  0  0  0
  3  4  1  0  0  0
  4  5  1  0  0  0
  5  6  1  0  0  0
  6  7  1  0  0  0
  7  8  1  0  0  0
  8  9  1  0  0  0
  9 10  1  0  0  0
 10 11  1  0  0  0
 11 12  1  0  0  0
 12 13  2  0  0  0
 12 14  1  0  0  0
 12 16  1  0  0  0
 16 17  1  0  0  0
 17 18  1  0  0  0
 18 19  1  0  0  0
 18 22  1  0  0  0
 22 23  2  0  0  0
 22 24  1  0  0  0
 40 41  2  0  0  0
 47 48  1  0  0  0
 48 49  2  0  0  0
 49 44  1  0  0  0
 41 36  1  0  0  0
 33 28  1  0  0  0
 10  5  1  0  0  0
 14 15  1  0  0  0
 19 20  1  0  0  0
 19 21  1  0  0  0
 24 25  1  0  0  0
M  END
> <minimizedAffinity>
-9.25528

> <CNNscore>
0.1353590488

> <CNNaffinity>
6.1099843979

> <CNN_VS>
0.8270416856

> <CNNaffinity_variance>
1.1149766445

$$$$
[H]OC(=O)[C@@]([H])(N([H])[H])C([H])([H])OP(=O)(O[H])O[C@]1([H])C([H])([H])C([H])([H])C([H])([H])O[C@]1([H])C([H])([H])OC(=O)C([H])([H])C([H])([H])c1c([H])c([H])c([H])c([H])c1OC([H])([H])c1c([H])c([H])c([H])c(Oc2c([H])c([H])c(C([H])([H])[H])c([H])c2[H])c1[H]


 49 52  0  0  0  0  0  0  0  0999 V2000
    6.9578   21.6997    2.1176 C   0  0  0  0  0  0  0  0  0  0  0  0
    7.3001   22.5478    1.2773 O   0  0  0  0  0  0  0  0  0  0  0  0
    6.1818   20.6102    1.6553 O   0  0  0  0  0  0  0  0  0  0  0  0
    5.0570   20.1311    2.2485 C   0  0  0  0  0  0  0  0  0  0  0  0
    3.7374   20.2723    1.5517 C   0  0  0  0  0  0  0  0  0  0  0  0
    3.6959   21.3010    0.6482 O   0  0  0  0  0  0  0  0  0  0  0  0
    2.9287   21.1011   -0.4722 C   0  0  0  0  0  0  0  0  0  0  0  0
    1.6857   20.2932   -0.2743 C   0  0  0  0  0  0  0  0  0  0  0  0
    1.8602   19.0873    0.5789 C   0  0  0  0  0  0  0  0  0  0  0  0
    3.3336   18.9364    0.9145 C   0  0  0  0  0  0  0  0  0  0  0  0
    4.0915   18.5763   -0.1596 O   0  0  0  0  0  0  0  0  0  0  0  0
    5.0804   17.2502    0.0508 P   0  0  0  0  0  0  0  0  0  0  0  0
    4.7753   16.4265    1.2578 O   0  0  0  0  0  0  0  0  0  0  0  0
    4.9890   16.1881   -1.2900 O   0  0  0  0  0  0  0  0  0  0  0  0
    5.6490   16.4499   -1.9501 H   0  0  0  0  0  0  0  0  0  0  0  0
    6.6879   17.8178    0.0813 O   0  0  0  0  0  0  0  0  0  0  0  0
    7.2729   17.8062   -1.1821 C   0  0  0  0  0  0  0  0  0  0  0  0
    7.6307   19.2515   -1.4922 C   0  0  0  0  0  0  0  0  0  0  0  0
    8.3511   19.7853   -0.3710 N   0  0  0  0  0  0  0  0  0  0  0  0
    9.3450   19.5464   -0.3751 H   0  0  0  0  0  0  0  0  0  0  0  0
    8.1146   20.7566   -0.1306 H   0  0  0  0  0  0  0  0  0  0  0  0
    6.4841   20.0626   -1.9114 C   0  0  0  0  0  0  0  0  0  0  0  0
    5.7618   19.7204   -2.8726 O   0  0  0  0  0  0  0  0  0  0  0  0
    6.1789   21.2332   -1.2438 O   0  0  0  0  0  0  0  0  0  0  0  0
    5.8512   21.3227   -0.3113 H   0  0  0  0  0  0  0  0  0  0  0  0
    7.2976   21.7640    3.5351 C   0  0  0  0  0  0  0  0  0  0  0  0
    8.6460   22.1884    3.9470 C   0  0  0  0  0  0  0  0  0  0  0  0
   10.7903   21.2558    2.9825 C   0  0  0  0  0  0  0  0  0  0  0  0
   11.8030   20.3415    3.0855 C   0  0  0  0  0  0  0  0  0  0  0  0
   11.8075   19.3212    4.0457 C   0  0  0  0  0  0  0  0  0  0  0  0
   10.7402   19.2565    4.9085 C   0  0  0  0  0  0  0  0  0  0  0  0
    9.7155   20.1608    4.8286 C   0  0  0  0  0  0  0  0  0  0  0  0
    9.7244   21.1647    3.8770 C   0  0  0  0  0  0  0  0  0  0  0  0
   10.8020   22.2217    2.0374 O   0  0  0  0  0  0  0  0  0  0  0  0
   10.6355   22.2181    0.6796 C   0  0  0  0  0  0  0  0  0  0  0  0
   13.8562   23.0154   -1.1526 C   0  0  0  0  0  0  0  0  0  0  0  0
   14.2771   21.7577   -1.5923 C   0  0  0  0  0  0  0  0  0  0  0  0
   13.4701   20.6958   -1.2644 C   0  0  0  0  0  0  0  0  0  0  0  0
   12.3102   20.8521   -0.5429 C   0  0  0  0  0  0  0  0  0  0  0  0
   11.9147   22.1107   -0.1170 C   0  0  0  0  0  0  0  0  0  0  0  0
   12.6998   23.1801   -0.4312 C   0  0  0  0  0  0  0  0  0  0  0  0
   14.6767   24.0776   -1.4943 O   0  0  0  0  0  0  0  0  0  0  0  0
   14.9060   26.5227   -6.5351 C   0  0  0  0  0  0  0  0  0  0  0  0
   14.8378   25.8825   -5.2066 C   0  0  0  0  0  0  0  0  0  0  0  0
   13.9931   26.3971   -4.2322 C   0  0  0  0  0  0  0  0  0  0  0  0
   13.9562   25.7694   -2.9896 C   0  0  0  0  0  0  0  0  0  0  0  0
   14.7265   24.6703   -2.7115 C   0  0  0  0  0  0  0  0  0  0  0  0
   15.5665   24.1732   -3.7080 C   0  0  0  0  0  0  0  0  0  0  0  0
   15.6287   24.7660   -4.9461 C   0  0  0  0  0  0  0  0  0  0  0  0
 43 44  1  0  0  0
 44 45  2  0  0  0
 45 46  1  0  0  0
 46 47  2  0  0  0
 47 42  1  0  0  0
 42 36  1  0  0  0
 36 37  2  0  0  0
 37 38  1  0  0  0
 38 39  2  0  0  0
 39 40  1  0  0  0
 40 35  1  0  0  0
 35 34  1  0  0  0
 34 28  1  0  0  0
 28 29  2  0  0  0
 29 30  1  0  0  0
 30 31  2  0  0  0
 31 32  1  0  0  0
 32 33  2  0  0  0
 33 27  1  0  0  0
 27 26  1  0  0  0
 26  1  1  0  0  0
  1  2  2  0  0  0
  1  3  1  0  0  0
  3  4  1  0  0  0
  4  5  1  0  0  0
  5  6  1  0  0  0
  6  7  1  0  0  0
  7  8  1  0  0  0
  8  9  1  0  0  0
  9 10  1  0  0  0
 10 11  1  0  0  0
 11 12  1  0  0  0
 12 13  2  0  0  0
 12 14  1  0  0  0
 12 16  1  0  0  0
 16 17  1  0  0  0
 17 18  1  0  0  0
 18 19  1  0  0  0
 18 22  1  0  0  0
 22 23  2  0  0  0
 22 24  1  0  0  0
 40 41  2  0  0  0
 47 48  1  0  0  0
 48 49  2  0  0  0
 49 44  1  0  0  0
 41 36  1  0  0  0
 33 28  1  0  0  0
 10  5  1  0  0  0
 14 15  1  0  0  0
 19 20  1  0  0  0
 19 21  1  0  0  0
 24 25  1  0  0  0
M  END
> <minimizedAffinity>
-9.02152

> <CNNscore>
0.1353414506

> <CNNaffinity>
6.4072761536

> <CNN_VS>
0.8671700358

> <CNNaffinity_variance>
0.2720490396

$$$$
[H]OC(=O)[C@@]([H])(N([H])[H])C([H])([H])OP(=O)(O[H])O[C@]1([H])C([H])([H])C([H])([H])C([H])([H])O[C@]1([H])C([H])([H])OC(=O)C([H])([H])C([H])([H])c1c([H])c([H])c([H])c([H])c1OC([H])([H])c1c([H])c([H])c([H])c(Oc2c([H])c([H])c(C([H])([H])[H])c([H])c2[H])c1[H]


 49 52  0  0  0  0  0  0  0  0999 V2000
    9.9635   21.5647   -1.0280 C   0  0  0  0  0  0  0  0  0  0  0  0
   10.8380   21.8008   -1.8777 O   0  0  0  0  0  0  0  0  0  0  0  0
    9.2150   20.3741   -1.1863 O   0  0  0  0  0  0  0  0  0  0  0  0
    8.0629   20.0702   -0.5327 C   0  0  0  0  0  0  0  0  0  0  0  0
    7.2345   18.9105   -0.9970 C   0  0  0  0  0  0  0  0  0  0  0  0
    7.7221   17.6911   -0.6077 O   0  0  0  0  0  0  0  0  0  0  0  0
    6.7922   16.7213   -0.3273 C   0  0  0  0  0  0  0  0  0  0  0  0
    5.5542   16.7444   -1.1663 C   0  0  0  0  0  0  0  0  0  0  0  0
    4.9850   18.0998   -1.3929 C   0  0  0  0  0  0  0  0  0  0  0  0
    5.7736   19.1037   -0.5703 C   0  0  0  0  0  0  0  0  0  0  0  0
    5.5605   18.9802    0.7702 O   0  0  0  0  0  0  0  0  0  0  0  0
    4.7667   20.2478    1.5076 P   0  0  0  0  0  0  0  0  0  0  0  0
    4.2569   19.9544    2.8796 O   0  0  0  0  0  0  0  0  0  0  0  0
    5.7859   21.6163    1.6573 O   0  0  0  0  0  0  0  0  0  0  0  0
    5.7067   22.1620    0.8600 H   0  0  0  0  0  0  0  0  0  0  0  0
    3.5021   20.7256    0.4685 O   0  0  0  0  0  0  0  0  0  0  0  0
    3.9292   21.6364   -0.4941 C   0  0  0  0  0  0  0  0  0  0  0  0
    2.8481   21.6543   -1.5636 C   0  0  0  0  0  0  0  0  0  0  0  0
    1.9784   20.5341   -1.3407 N   0  0  0  0  0  0  0  0  0  0  0  0
    1.2660   20.7076   -0.6286 H   0  0  0  0  0  0  0  0  0  0  0  0
    1.6647   20.0562   -2.1954 H   0  0  0  0  0  0  0  0  0  0  0  0
    3.3748   21.7443   -2.9285 C   0  0  0  0  0  0  0  0  0  0  0  0
    3.8785   20.7521   -3.4982 O   0  0  0  0  0  0  0  0  0  0  0  0
    3.3233   22.9414   -3.6165 O   0  0  0  0  0  0  0  0  0  0  0  0
    2.5115   23.4112   -3.9408 H   0  0  0  0  0  0  0  0  0  0  0  0
    9.6618   22.4345    0.1040 C   0  0  0  0  0  0  0  0  0  0  0  0
   10.6874   22.6833    1.1308 C   0  0  0  0  0  0  0  0  0  0  0  0
   11.9675   20.6954    2.0293 C   0  0  0  0  0  0  0  0  0  0  0  0
   12.1762   19.8270    3.0660 C   0  0  0  0  0  0  0  0  0  0  0  0
   11.3748   19.8127    4.2151 C   0  0  0  0  0  0  0  0  0  0  0  0
   10.3429   20.7174    4.2810 C   0  0  0  0  0  0  0  0  0  0  0  0
   10.1144   21.5991    3.2589 C   0  0  0  0  0  0  0  0  0  0  0  0
   10.9145   21.6040    2.1305 C   0  0  0  0  0  0  0  0  0  0  0  0
   12.7455   20.6790    0.9245 O   0  0  0  0  0  0  0  0  0  0  0  0
   14.0864   20.8445    0.7098 C   0  0  0  0  0  0  0  0  0  0  0  0
   14.2256   24.1903   -1.0654 C   0  0  0  0  0  0  0  0  0  0  0  0
   15.3495   24.7928   -0.4943 C   0  0  0  0  0  0  0  0  0  0  0  0
   16.0175   24.0597    0.4558 C   0  0  0  0  0  0  0  0  0  0  0  0
   15.6097   22.8014    0.8311 C   0  0  0  0  0  0  0  0  0  0  0  0
   14.4904   22.2257    0.2501 C   0  0  0  0  0  0  0  0  0  0  0  0
   13.8114   22.9346   -0.6960 C   0  0  0  0  0  0  0  0  0  0  0  0
   13.5645   24.9386   -2.0253 O   0  0  0  0  0  0  0  0  0  0  0  0
   15.6671   26.3501   -7.0280 C   0  0  0  0  0  0  0  0  0  0  0  0
   15.1066   25.9836   -5.7123 C   0  0  0  0  0  0  0  0  0  0  0  0
   14.1674   26.8069   -5.1058 C   0  0  0  0  0  0  0  0  0  0  0  0
   13.6621   26.4313   -3.8636 C   0  0  0  0  0  0  0  0  0  0  0  0
   14.0675   25.2826   -3.2353 C   0  0  0  0  0  0  0  0  0  0  0  0
   15.0120   24.4731   -3.8663 C   0  0  0  0  0  0  0  0  0  0  0  0
   15.5322   24.8113   -5.0924 C   0  0  0  0  0  0  0  0  0  0  0  0
 43 44  1  0  0  0
 44 45  2  0  0  0
 45 46  1  0  0  0
 46 47  2  0  0  0
 47 42  1  0  0  0
 42 36  1  0  0  0
 36 37  2  0  0  0
 37 38  1  0  0  0
 38 39  2  0  0  0
 39 40  1  0  0  0
 40 35  1  0  0  0
 35 34  1  0  0  0
 34 28  1  0  0  0
 28 29  2  0  0  0
 29 30  1  0  0  0
 30 31  2  0  0  0
 31 32  1  0  0  0
 32 33  2  0  0  0
 33 27  1  0  0  0
 27 26  1  0  0  0
 26  1  1  0  0  0
  1  2  2  0  0  0
  1  3  1  0  0  0
  3  4  1  0  0  0
  4  5  1  0  0  0
  5  6  1  0  0  0
  6  7  1  0  0  0
  7  8  1  0  0  0
  8  9  1  0  0  0
  9 10  1  0  0  0
 10 11  1  0  0  0
 11 12  1  0  0  0
 12 13  2  0  0  0
 12 14  1  0  0  0
 12 16  1  0  0  0
 16 17  1  0  0  0
 17 18  1  0  0  0
 18 19  1  0  0  0
 18 22  1  0  0  0
 22 23  2  0  0  0
 22 24  1  0  0  0
 40 41  2  0  0  0
 47 48  1  0  0  0
 48 49  2  0  0  0
 49 44  1  0  0  0
 41 36  1  0  0  0
 33 28  1  0  0  0
 10  5  1  0  0  0
 14 15  1  0  0  0
 19 20  1  0  0  0
 19 21  1  0  0  0
 24 25  1  0  0  0
M  END
> <minimizedAffinity>
-9.36439

> <CNNscore>
0.1342699975

> <CNNaffinity>
6.6562919617

> <CNN_VS>
0.8937402964

> <CNNaffinity_variance>
0.1739659309

$$$$
[H]C([H])([H])C1([H])OC([H])(C([H])([H])[N+](C([H])([H])[H])(C([H])([H])[H])C([H])([H])[H])C([H])([H])OC1([H])[H].[I-]


 12 12  0  0  0  0  0  0  0  0999 V2000
   14.3187   26.5736   -4.3787 C   0  0  0  0  0  0  0  0  0  0  0  0
   14.2148   25.2218   -3.6644 C   0  0  0  0  0  0  0  0  0  0  0  0
   15.6399   24.8263   -3.3179 C   0  0  0  0  0  0  0  0  0  0  0  0
   15.8184   25.2057   -1.9662 O   0  0  0  0  0  0  0  0  0  0  0  0
   15.0486   24.2830   -1.2302 C   0  0  0  0  0  0  0  0  0  0  0  0
   13.5735   24.3924   -1.5993 C   0  0  0  0  0  0  0  0  0  0  0  0
   13.4118   25.3710   -2.5638 O   0  0  0  0  0  0  0  0  0  0  0  0
   12.8230   24.7461   -0.3566 C   0  0  0  0  0  0  0  0  0  0  0  0
   11.9091   23.7743    0.1105 N   0  0  0  0  0  0  0  0  0  0  0  0
   11.1528   23.2251   -1.0265 C   0  0  0  0  0  0  0  0  0  0  0  0
   10.9348   24.4239    1.0015 C   0  0  0  0  0  0  0  0  0  0  0  0
   12.4649   22.6749    0.8226 C   0  0  0  0  0  0  0  0  0  0  0  0
  1  2  1  0  0  0
  2  3  1  0  0  0
  3  4  1  0  0  0
  4  5  1  0  0  0
  5  6  1  0  0  0
  6  8  1  0  0  0
  8  9  1  0  0  0
  9 10  1  0  0  0
  9 11  1  0  0  0
  9 12  1  0  0  0
  6  7  1  0  0  0
  7  2  1  0  0  0
M  CHG 1   9   1
M  END
> <minimizedAffinity>
-4.45900

> <CNNscore>
0.6129555106

> <CNNaffinity>
4.3684859276

> <CNN_VS>
2.6776874065

> <CNNaffinity_variance>
0.1657942981

$$$$
[H]C([H])([H])C1([H])OC([H])(C([H])([H])[N+](C([H])([H])[H])(C([H])([H])[H])C([H])([H])[H])C([H])([H])OC1([H])[H].[I-]


 12 12  0  0  0  0  0  0  0  0999 V2000
   16.2995   27.7669   -4.7391 C   0  0  0  0  0  0  0  0  0  0  0  0
   15.1694   26.7944   -4.3849 C   0  0  0  0  0  0  0  0  0  0  0  0
   15.1818   25.7324   -5.4710 C   0  0  0  0  0  0  0  0  0  0  0  0
   15.9047   24.6444   -4.9263 O   0  0  0  0  0  0  0  0  0  0  0  0
   15.0444   24.0920   -3.9566 C   0  0  0  0  0  0  0  0  0  0  0  0
   14.7450   25.1055   -2.8580 C   0  0  0  0  0  0  0  0  0  0  0  0
   15.4049   26.2902   -3.1324 O   0  0  0  0  0  0  0  0  0  0  0  0
   15.2194   24.5234   -1.5662 C   0  0  0  0  0  0  0  0  0  0  0  0
   14.2117   24.1811   -0.6360 N   0  0  0  0  0  0  0  0  0  0  0  0
   14.5968   24.6578    0.7023 C   0  0  0  0  0  0  0  0  0  0  0  0
   14.1113   22.7153   -0.5580 C   0  0  0  0  0  0  0  0  0  0  0  0
   12.9068   24.6800   -0.9060 C   0  0  0  0  0  0  0  0  0  0  0  0
  1  2  1  0  0  0
  2  3  1  0  0  0
  3  4  1  0  0  0
  4  5  1  0  0  0
  5  6  1  0  0  0
  6  8  1  0  0  0
  8  9  1  0  0  0
  9 10  1  0  0  0
  9 11  1  0  0  0
  9 12  1  0  0  0
  6  7  1  0  0  0
  7  2  1  0  0  0
M  CHG 1   9   1
M  END
> <minimizedAffinity>
-4.68512

> <CNNscore>
0.5469797850

> <CNNaffinity>
4.5108966827

> <CNN_VS>
2.4673693180

> <CNNaffinity_variance>
0.1734603196

$$$$
[H]C([H])([H])C1([H])OC([H])(C([H])([H])[N+](C([H])([H])[H])(C([H])([H])[H])C([H])([H])[H])C([H])([H])OC1([H])[H].[I-]


 12 12  0  0  0  0  0  0  0  0999 V2000
   15.5237   24.5208    0.4562 C   0  0  0  0  0  0  0  0  0  0  0  0
   14.6172   24.0836   -0.6995 C   0  0  0  0  0  0  0  0  0  0  0  0
   13.2116   24.0313   -0.1258 C   0  0  0  0  0  0  0  0  0  0  0  0
   12.6087   25.2581   -0.4927 O   0  0  0  0  0  0  0  0  0  0  0  0
   12.3862   25.1475   -1.8797 C   0  0  0  0  0  0  0  0  0  0  0  0
   13.7042   24.9839   -2.6281 C   0  0  0  0  0  0  0  0  0  0  0  0
   14.7506   24.9851   -1.7231 O   0  0  0  0  0  0  0  0  0  0  0  0
   13.8273   26.1291   -3.5799 C   0  0  0  0  0  0  0  0  0  0  0  0
   14.9072   26.0630   -4.4894 N   0  0  0  0  0  0  0  0  0  0  0  0
   16.0166   26.8948   -3.9954 C   0  0  0  0  0  0  0  0  0  0  0  0
   14.4827   26.6334   -5.7776 C   0  0  0  0  0  0  0  0  0  0  0  0
   15.4322   24.7672   -4.7538 C   0  0  0  0  0  0  0  0  0  0  0  0
  1  2  1  0  0  0
  2  3  1  0  0  0
  3  4  1  0  0  0
  4  5  1  0  0  0
  5  6  1  0  0  0
  6  8  1  0  0  0
  8  9  1  0  0  0
  9 10  1  0  0  0
  9 11  1  0  0  0
  9 12  1  0  0  0
  6  7  1  0  0  0
  7  2  1  0  0  0
M  CHG 1   9   1
M  END
> <minimizedAffinity>
-4.74367

> <CNNscore>
0.5167385936

> <CNNaffinity>
4.4441804886

> <CNN_VS>
2.2964794636

> <CNNaffinity_variance>
0.3511363864

$$$$
[H]C([H])([H])C1([H])OC([H])(C([H])([H])[N+](C([H])([H])[H])(C([H])([H])[H])C([H])([H])[H])C([H])([H])OC1([H])[H].[I-]


 12 12  0  0  0  0  0  0  0  0999 V2000
   15.4250   25.1571   -5.4865 C   0  0  0  0  0  0  0  0  0  0  0  0
   15.1935   25.5692   -4.0287 C   0  0  0  0  0  0  0  0  0  0  0  0
   14.2659   26.7710   -4.0808 C   0  0  0  0  0  0  0  0  0  0  0  0
   12.9689   26.2568   -3.8436 O   0  0  0  0  0  0  0  0  0  0  0  0
   12.9633   25.9147   -2.4767 C   0  0  0  0  0  0  0  0  0  0  0  0
   14.0001   24.8360   -2.1843 C   0  0  0  0  0  0  0  0  0  0  0  0
   14.6597   24.5024   -3.3538 O   0  0  0  0  0  0  0  0  0  0  0  0
   13.2754   23.6526   -1.6304 C   0  0  0  0  0  0  0  0  0  0  0  0
   13.6385   23.2632   -0.3210 N   0  0  0  0  0  0  0  0  0  0  0  0
   14.7728   24.0816    0.1376 C   0  0  0  0  0  0  0  0  0  0  0  0
   14.0995   21.8662   -0.3484 C   0  0  0  0  0  0  0  0  0  0  0  0
   12.6212   23.3529    0.6698 C   0  0  0  0  0  0  0  0  0  0  0  0
  1  2  1  0  0  0
  2  3  1  0  0  0
  3  4  1  0  0  0
  4  5  1  0  0  0
  5  6  1  0  0  0
  6  8  1  0  0  0
  8  9  1  0  0  0
  9 10  1  0  0  0
  9 11  1  0  0  0
  9 12  1  0  0  0
  6  7  1  0  0  0
  7  2  1  0  0  0
M  CHG 1   9   1
M  END
> <minimizedAffinity>
-4.60150

> <CNNscore>
0.4923954606

> <CNNaffinity>
4.2384109497

> <CNN_VS>
2.0869743824

> <CNNaffinity_variance>
0.2487204075

$$$$
[H]C([H])([H])C1([H])OC([H])(C([H])([H])[N+](C([H])([H])[H])(C([H])([H])[H])C([H])([H])[H])C([H])([H])OC1([H])[H].[I-]


 12 12  0  0  0  0  0  0  0  0999 V2000
   13.1815   26.9195   -3.9677 C   0  0  0  0  0  0  0  0  0  0  0  0
   14.0096   25.6328   -3.8842 C   0  0  0  0  0  0  0  0  0  0  0  0
   15.4415   26.0422   -4.1835 C   0  0  0  0  0  0  0  0  0  0  0  0
   16.0640   26.1874   -2.9207 O   0  0  0  0  0  0  0  0  0  0  0  0
   16.2079   24.8713   -2.4385 C   0  0  0  0  0  0  0  0  0  0  0  0
   14.8469   24.2074   -2.2621 C   0  0  0  0  0  0  0  0  0  0  0  0
   13.8512   25.0929   -2.6344 O   0  0  0  0  0  0  0  0  0  0  0  0
   14.7108   23.8344   -0.8217 C   0  0  0  0  0  0  0  0  0  0  0  0
   14.1749   22.5521   -0.5637 N   0  0  0  0  0  0  0  0  0  0  0  0
   14.2339   21.7398   -1.7898 C   0  0  0  0  0  0  0  0  0  0  0  0
   12.7540   22.6907   -0.2076 C   0  0  0  0  0  0  0  0  0  0  0  0
   14.7990   21.8034    0.4729 C   0  0  0  0  0  0  0  0  0  0  0  0
  1  2  1  0  0  0
  2  3  1  0  0  0
  3  4  1  0  0  0
  4  5  1  0  0  0
  5  6  1  0  0  0
  6  8  1  0  0  0
  8  9  1  0  0  0
  9 10  1  0  0  0
  9 11  1  0  0  0
  9 12  1  0  0  0
  6  7  1  0  0  0
  7  2  1  0  0  0
M  CHG 1   9   1
M  END
> <minimizedAffinity>
-4.64759

> <CNNscore>
0.4527944028

> <CNNaffinity>
4.2856955528

> <CNN_VS>
1.9405390024

> <CNNaffinity_variance>
0.3757359087

$$$$
[H]C([H])([H])C1([H])OC([H])(C([H])([H])[N+](C([H])([H])[H])(C([H])([H])[H])C([H])([H])[H])C([H])([H])OC1([H])[H].[I-]


 12 12  0  0  0  0  0  0  0  0999 V2000
   15.5334   24.3565   -4.7768 C   0  0  0  0  0  0  0  0  0  0  0  0
   15.1895   24.6366   -3.3099 C   0  0  0  0  0  0  0  0  0  0  0  0
   14.5216   26.0008   -3.2947 C   0  0  0  0  0  0  0  0  0  0  0  0
   13.1308   25.7396   -3.2749 O   0  0  0  0  0  0  0  0  0  0  0  0
   12.8762   25.2508   -1.9781 C   0  0  0  0  0  0  0  0  0  0  0  0
   13.6412   23.9562   -1.7276 C   0  0  0  0  0  0  0  0  0  0  0  0
   14.3774   23.6315   -2.8531 O   0  0  0  0  0  0  0  0  0  0  0  0
   12.6377   22.8907   -1.4270 C   0  0  0  0  0  0  0  0  0  0  0  0
   13.0651   21.8702   -0.5474 N   0  0  0  0  0  0  0  0  0  0  0  0
   12.0305   21.6367    0.4732 C   0  0  0  0  0  0  0  0  0  0  0  0
   14.2727   22.3239    0.1603 C   0  0  0  0  0  0  0  0  0  0  0  0
   13.3701   20.6126   -1.1393 C   0  0  0  0  0  0  0  0  0  0  0  0
  1  2  1  0  0  0
  2  3  1  0  0  0
  3  4  1  0  0  0
  4  5  1  0  0  0
  5  6  1  0  0  0
  6  8  1  0  0  0
  8  9  1  0  0  0
  9 10  1  0  0  0
  9 11  1  0  0  0
  9 12  1  0  0  0
  6  7  1  0  0  0
  7  2  1  0  0  0
M  CHG 1   9   1
M  END
> <minimizedAffinity>
-4.54228

> <CNNscore>
0.3725807369

> <CNNaffinity>
4.0983643532

> <CNN_VS>
1.5269715786

> <CNNaffinity_variance>
0.3483039737

$$$$
[H]C([H])([H])C1([H])OC([H])(C([H])([H])[N+](C([H])([H])[H])(C([H])([H])[H])C([H])([H])[H])C([H])([H])OC1([H])[H].[I-]


 12 12  0  0  0  0  0  0  0  0999 V2000
   13.6221   20.6323   -1.0695 C   0  0  0  0  0  0  0  0  0  0  0  0
   13.2460   22.1178   -1.0510 C   0  0  0  0  0  0  0  0  0  0  0  0
   13.2111   22.5176    0.4141 C   0  0  0  0  0  0  0  0  0  0  0  0
   14.4641   23.1239    0.6695 O   0  0  0  0  0  0  0  0  0  0  0  0
   14.4043   24.3645    0.0039 C   0  0  0  0  0  0  0  0  0  0  0  0
   14.2314   24.1655   -1.4976 C   0  0  0  0  0  0  0  0  0  0  0  0
   14.1765   22.8121   -1.7793 O   0  0  0  0  0  0  0  0  0  0  0  0
   15.4034   24.7990   -2.1741 C   0  0  0  0  0  0  0  0  0  0  0  0
   15.1325   25.4472   -3.4006 N   0  0  0  0  0  0  0  0  0  0  0  0
   15.4369   24.5356   -4.5154 C   0  0  0  0  0  0  0  0  0  0  0  0
   16.0282   26.6067   -3.5363 C   0  0  0  0  0  0  0  0  0  0  0  0
   13.8023   25.9172   -3.5865 C   0  0  0  0  0  0  0  0  0  0  0  0
  1  2  1  0  0  0
  2  3  1  0  0  0
  3  4  1  0  0  0
  4  5  1  0  0  0
  5  6  1  0  0  0
  6  8  1  0  0  0
  8  9  1  0  0  0
  9 10  1  0  0  0
  9 11  1  0  0  0
  9 12  1  0  0  0
  6  7  1  0  0  0
  7  2  1  0  0  0
M  CHG 1   9   1
M  END
> <minimizedAffinity>
-4.91642

> <CNNscore>
0.3631412387

> <CNNaffinity>
4.4097051620

> <CNN_VS>
1.6013457775

> <CNNaffinity_variance>
0.3152857721

$$$$
[H]C([H])([H])C1([H])OC([H])(C([H])([H])[N+](C([H])([H])[H])(C([H])([H])[H])C([H])([H])[H])C([H])([H])OC1([H])[H].[I-]


 12 12  0  0  0  0  0  0  0  0999 V2000
   15.4873   25.5660   -7.5163 C   0  0  0  0  0  0  0  0  0  0  0  0
   15.8971   25.8381   -6.0649 C   0  0  0  0  0  0  0  0  0  0  0  0
   15.7523   27.3374   -5.8682 C   0  0  0  0  0  0  0  0  0  0  0  0
   14.4932   27.5164   -5.2472 O   0  0  0  0  0  0  0  0  0  0  0  0
   14.6716   27.0428   -3.9321 C   0  0  0  0  0  0  0  0  0  0  0  0
   15.0325   25.5617   -3.9342 C   0  0  0  0  0  0  0  0  0  0  0  0
   15.0875   25.1033   -5.2384 O   0  0  0  0  0  0  0  0  0  0  0  0
   13.9753   24.8391   -3.1643 C   0  0  0  0  0  0  0  0  0  0  0  0
   14.3784   24.2932   -1.9244 N   0  0  0  0  0  0  0  0  0  0  0  0
   15.7334   24.7660   -1.5973 C   0  0  0  0  0  0  0  0  0  0  0  0
   14.4521   22.8289   -2.0483 C   0  0  0  0  0  0  0  0  0  0  0  0
   13.5461   24.5811   -0.8068 C   0  0  0  0  0  0  0  0  0  0  0  0
  1  2  1  0  0  0
  2  3  1  0  0  0
  3  4  1  0  0  0
  4  5  1  0  0  0
  5  6  1  0  0  0
  6  8  1  0  0  0
  8  9  1  0  0  0
  9 10  1  0  0  0
  9 11  1  0  0  0
  9 12  1  0  0  0
  6  7  1  0  0  0
  7  2  1  0  0  0
M  CHG 1   9   1
M  END
> <minimizedAffinity>
-4.34577

> <CNNscore>
0.3425277472

> <CNNaffinity>
4.2257704735

> <CNN_VS>
1.4474436045

> <CNNaffinity_variance>
0.3723152578

$$$$
[H]C([H])([H])C1([H])OC([H])(C([H])([H])[N+](C([H])([H])[H])(C([H])([H])[H])C([H])([H])[H])C([H])([H])OC1([H])[H].[I-]


 12 12  0  0  0  0  0  0  0  0999 V2000
   14.8558   20.7461    0.4751 C   0  0  0  0  0  0  0  0  0  0  0  0
   14.2044   21.2722   -0.8084 C   0  0  0  0  0  0  0  0  0  0  0  0
   12.7094   21.2814   -0.5398 C   0  0  0  0  0  0  0  0  0  0  0  0
   12.4000   22.6134   -0.1750 O   0  0  0  0  0  0  0  0  0  0  0  0
   12.5085   23.3476   -1.3728 C   0  0  0  0  0  0  0  0  0  0  0  0
   13.9306   23.2863   -1.9185 C   0  0  0  0  0  0  0  0  0  0  0  0
   14.7135   22.5160   -1.0773 O   0  0  0  0  0  0  0  0  0  0  0  0
   14.4478   24.6864   -1.9870 C   0  0  0  0  0  0  0  0  0  0  0  0
   14.9645   25.0934   -3.2381 N   0  0  0  0  0  0  0  0  0  0  0  0
   16.1511   25.9385   -3.0275 C   0  0  0  0  0  0  0  0  0  0  0  0
   13.9610   25.9239   -3.9223 C   0  0  0  0  0  0  0  0  0  0  0  0
   15.3363   24.0544   -4.1364 C   0  0  0  0  0  0  0  0  0  0  0  0
  1  2  1  0  0  0
  2  3  1  0  0  0
  3  4  1  0  0  0
  4  5  1  0  0  0
  5  6  1  0  0  0
  6  8  1  0  0  0
  8  9  1  0  0  0
  9 10  1  0  0  0
  9 11  1  0  0  0
  9 12  1  0  0  0
  6  7  1  0  0  0
  7  2  1  0  0  0
M  CHG 1   9   1
M  END
> <minimizedAffinity>
-4.68920

> <CNNscore>
0.3165777326

> <CNNaffinity>
4.4729447365

> <CNN_VS>
1.4160346985

> <CNNaffinity_variance>
0.2224504501

$$$$
[H]Sc1nnc(N([H])C(=O)N([H])N=C([H])c2c([H])c([H])c([H])c(OC([H])([H])[H])c2[H])s1


 23 24  0  0  0  0  0  0  0  0999 V2000
   12.3381   23.4140    0.0160 N   0  0  0  0  0  0  0  0  0  0  0  0
   12.7174   24.3407   -0.9804 C   0  0  0  0  0  0  0  0  0  0  0  0
   12.4107   25.5522   -0.8551 O   0  0  0  0  0  0  0  0  0  0  0  0
   13.4374   23.9409   -2.1230 N   0  0  0  0  0  0  0  0  0  0  0  0
   12.6037   22.4092   -0.1078 H   0  0  0  0  0  0  0  0  0  0  0  0
   13.7011   22.9510   -2.2487 H   0  0  0  0  0  0  0  0  0  0  0  0
   13.8213   24.8790   -3.1315 C   0  0  0  0  0  0  0  0  0  0  0  0
   13.2364   26.0152   -3.5003 N   0  0  0  0  0  0  0  0  0  0  0  0
   13.7357   26.7151   -4.4259 N   0  0  0  0  0  0  0  0  0  0  0  0
   14.8465   26.3146   -5.0310 C   0  0  0  0  0  0  0  0  0  0  0  0
   15.6748   27.1838   -6.3494 S   0  0  0  0  0  0  0  0  0  0  0  0
   15.1637   24.8565   -4.2055 S   0  0  0  0  0  0  0  0  0  0  0  0
   15.7380   28.5810   -6.0932 H   0  0  0  0  0  0  0  0  0  0  0  0
   10.3675   23.5652    1.3006 C   0  0  0  0  0  0  0  0  0  0  0  0
   11.6342   23.7379    1.1561 N   0  0  0  0  0  0  0  0  0  0  0  0
    8.5631   23.3133    4.5734 C   0  0  0  0  0  0  0  0  0  0  0  0
    8.4055   24.6520    4.8631 C   0  0  0  0  0  0  0  0  0  0  0  0
    8.8874   25.6063    3.9917 C   0  0  0  0  0  0  0  0  0  0  0  0
    9.5310   25.2594    2.8232 C   0  0  0  0  0  0  0  0  0  0  0  0
    9.6879   23.9307    2.5346 C   0  0  0  0  0  0  0  0  0  0  0  0
    9.2066   22.9820    3.4050 C   0  0  0  0  0  0  0  0  0  0  0  0
    8.6127   21.0284    5.3915 C   0  0  0  0  0  0  0  0  0  0  0  0
    8.0937   22.3365    5.4219 O   0  0  0  0  0  0  0  0  0  0  0  0
 22 23  1  0  0  0
 23 16  1  0  0  0
 16 17  2  0  0  0
 17 18  1  0  0  0
 18 19  2  0  0  0
 19 20  1  0  0  0
 20 14  1  0  0  0
 14 15  2  0  0  0
 15  1  1  0  0  0
  1  2  1  0  0  0
  2  3  2  0  0  0
  2  4  1  0  0  0
  4  7  1  0  0  0
  7  8  2  0  0  0
  8  9  1  0  0  0
  9 10  2  0  0  0
 10 11  1  0  0  0
 10 12  1  0  0  0
 20 21  2  0  0  0
 21 16  1  0  0  0
 12  7  1  0  0  0
  1  5  1  0  0  0
  4  6  1  0  0  0
 11 13  1  0  0  0
M  END
> <minimizedAffinity>
-6.23974

> <CNNscore>
0.5205053091

> <CNNaffinity>
5.7156295776

> <CNN_VS>
2.9750156403

> <CNNaffinity_variance>
0.0948768109

$$$$
[H]Sc1nnc(N([H])C(=O)N([H])N=C([H])c2c([H])c([H])c([H])c(OC([H])([H])[H])c2[H])s1


 23 24  0  0  0  0  0  0  0  0999 V2000
   13.1950   22.5220    0.2854 N   0  0  0  0  0  0  0  0  0  0  0  0
   13.7687   23.6013   -0.4226 C   0  0  0  0  0  0  0  0  0  0  0  0
   13.6055   24.7761   -0.0091 O   0  0  0  0  0  0  0  0  0  0  0  0
   14.5267   23.3961   -1.5918 N   0  0  0  0  0  0  0  0  0  0  0  0
   13.3431   21.5510   -0.0763 H   0  0  0  0  0  0  0  0  0  0  0  0
   14.6749   22.4401   -1.9516 H   0  0  0  0  0  0  0  0  0  0  0  0
   15.1074   24.4887   -2.3084 C   0  0  0  0  0  0  0  0  0  0  0  0
   16.2809   25.0899   -2.1337 N   0  0  0  0  0  0  0  0  0  0  0  0
   16.6189   26.0517   -2.8797 N   0  0  0  0  0  0  0  0  0  0  0  0
   15.8002   26.4623   -3.8397 C   0  0  0  0  0  0  0  0  0  0  0  0
   16.1266   27.7999   -4.9729 S   0  0  0  0  0  0  0  0  0  0  0  0
   14.4883   25.3925   -3.6334 S   0  0  0  0  0  0  0  0  0  0  0  0
   17.4621   27.7564   -5.4593 H   0  0  0  0  0  0  0  0  0  0  0  0
   11.1654   22.7964    1.4522 C   0  0  0  0  0  0  0  0  0  0  0  0
   12.4437   22.6528    1.4337 N   0  0  0  0  0  0  0  0  0  0  0  0
    9.0829   24.2266    4.2178 C   0  0  0  0  0  0  0  0  0  0  0  0
    9.0601   23.1513    5.0805 C   0  0  0  0  0  0  0  0  0  0  0  0
    9.7199   21.9870    4.7468 C   0  0  0  0  0  0  0  0  0  0  0  0
   10.4116   21.8621    3.5611 C   0  0  0  0  0  0  0  0  0  0  0  0
   10.4348   22.9291    2.7040 C   0  0  0  0  0  0  0  0  0  0  0  0
    9.7763   24.0880    3.0393 C   0  0  0  0  0  0  0  0  0  0  0  0
    8.8867   26.6381    4.0208 C   0  0  0  0  0  0  0  0  0  0  0  0
    8.4349   25.4024    4.5212 O   0  0  0  0  0  0  0  0  0  0  0  0
 22 23  1  0  0  0
 23 16  1  0  0  0
 16 17  2  0  0  0
 17 18  1  0  0  0
 18 19  2  0  0  0
 19 20  1  0  0  0
 20 14  1  0  0  0
 14 15  2  0  0  0
 15  1  1  0  0  0
  1  2  1  0  0  0
  2  3  2  0  0  0
  2  4  1  0  0  0
  4  7  1  0  0  0
  7  8  2  0  0  0
  8  9  1  0  0  0
  9 10  2  0  0  0
 10 11  1  0  0  0
 10 12  1  0  0  0
 20 21  2  0  0  0
 21 16  1  0  0  0
 12  7  1  0  0  0
  1  5  1  0  0  0
  4  6  1  0  0  0
 11 13  1  0  0  0
M  END
> <minimizedAffinity>
-6.57001

> <CNNscore>
0.5028184652

> <CNNaffinity>
5.9670853615

> <CNN_VS>
3.0003607273

> <CNNaffinity_variance>
0.0952658281

$$$$
[H]Sc1nnc(N([H])C(=O)N([H])N=C([H])c2c([H])c([H])c([H])c(OC([H])([H])[H])c2[H])s1


 23 24  0  0  0  0  0  0  0  0999 V2000
   14.7644   24.1404    0.2748 N   0  0  0  0  0  0  0  0  0  0  0  0
   14.6914   24.6071   -1.0564 C   0  0  0  0  0  0  0  0  0  0  0  0
   13.5753   24.6996   -1.6250 O   0  0  0  0  0  0  0  0  0  0  0  0
   15.8469   24.9755   -1.7725 N   0  0  0  0  0  0  0  0  0  0  0  0
   15.7043   24.0709    0.7301 H   0  0  0  0  0  0  0  0  0  0  0  0
   16.7756   24.9084   -1.3271 H   0  0  0  0  0  0  0  0  0  0  0  0
   15.7730   25.4480   -3.1201 C   0  0  0  0  0  0  0  0  0  0  0  0
   15.8612   26.6891   -3.5901 N   0  0  0  0  0  0  0  0  0  0  0  0
   15.7700   26.9061   -4.8312 N   0  0  0  0  0  0  0  0  0  0  0  0
   15.5856   25.8923   -5.6671 C   0  0  0  0  0  0  0  0  0  0  0  0
   15.4370   26.0290   -7.4389 S   0  0  0  0  0  0  0  0  0  0  0  0
   15.5459   24.5756   -4.5841 S   0  0  0  0  0  0  0  0  0  0  0  0
   16.3969   26.9313   -7.9741 H   0  0  0  0  0  0  0  0  0  0  0  0
   12.8449   22.8393    0.6979 C   0  0  0  0  0  0  0  0  0  0  0  0
   13.6749   23.7640    1.0310 N   0  0  0  0  0  0  0  0  0  0  0  0
   10.7460   21.1868    3.3237 C   0  0  0  0  0  0  0  0  0  0  0  0
    9.5569   21.8593    3.1375 C   0  0  0  0  0  0  0  0  0  0  0  0
    9.4618   22.8330    2.1654 C   0  0  0  0  0  0  0  0  0  0  0  0
   10.5332   23.1603    1.3622 C   0  0  0  0  0  0  0  0  0  0  0  0
   11.7141   22.4932    1.5463 C   0  0  0  0  0  0  0  0  0  0  0  0
   11.8059   21.5233    2.5159 C   0  0  0  0  0  0  0  0  0  0  0  0
   11.7382   19.1136    4.1049 C   0  0  0  0  0  0  0  0  0  0  0  0
   10.8737   20.2099    4.2849 O   0  0  0  0  0  0  0  0  0  0  0  0
 22 23  1  0  0  0
 23 16  1  0  0  0
 16 17  2  0  0  0
 17 18  1  0  0  0
 18 19  2  0  0  0
 19 20  1  0  0  0
 20 14  1  0  0  0
 14 15  2  0  0  0
 15  1  1  0  0  0
  1  2  1  0  0  0
  2  3  2  0  0  0
  2  4  1  0  0  0
  4  7  1  0  0  0
  7  8  2  0  0  0
  8  9  1  0  0  0
  9 10  2  0  0  0
 10 11  1  0  0  0
 10 12  1  0  0  0
 20 21  2  0  0  0
 21 16  1  0  0  0
 12  7  1  0  0  0
  1  5  1  0  0  0
  4  6  1  0  0  0
 11 13  1  0  0  0
M  END
> <minimizedAffinity>
-6.28265

> <CNNscore>
0.4900767803

> <CNNaffinity>
5.9405193329

> <CNN_VS>
2.9113106728

> <CNNaffinity_variance>
0.0540850461

$$$$
[H]Sc1nnc(N([H])C(=O)N([H])N=C([H])c2c([H])c([H])c([H])c(OC([H])([H])[H])c2[H])s1


 23 24  0  0  0  0  0  0  0  0999 V2000
   12.7521   22.7661    0.2076 N   0  0  0  0  0  0  0  0  0  0  0  0
   13.4144   23.7892   -0.5065 C   0  0  0  0  0  0  0  0  0  0  0  0
   13.3077   24.9827   -0.1300 O   0  0  0  0  0  0  0  0  0  0  0  0
   14.1996   23.5065   -1.6411 N   0  0  0  0  0  0  0  0  0  0  0  0
   12.8543   21.7782   -0.1229 H   0  0  0  0  0  0  0  0  0  0  0  0
   14.3027   22.5337   -1.9702 H   0  0  0  0  0  0  0  0  0  0  0  0
   14.8700   24.5422   -2.3639 C   0  0  0  0  0  0  0  0  0  0  0  0
   16.1249   24.9714   -2.2635 N   0  0  0  0  0  0  0  0  0  0  0  0
   16.5353   25.9116   -3.0006 N   0  0  0  0  0  0  0  0  0  0  0  0
   15.7113   26.4717   -3.8769 C   0  0  0  0  0  0  0  0  0  0  0  0
   16.1331   27.8029   -4.9859 S   0  0  0  0  0  0  0  0  0  0  0  0
   14.2837   25.5801   -3.6029 S   0  0  0  0  0  0  0  0  0  0  0  0
   17.4096   27.6020   -5.5793 H   0  0  0  0  0  0  0  0  0  0  0  0
   10.8750   23.6490    1.3271 C   0  0  0  0  0  0  0  0  0  0  0  0
   11.9699   22.9734    1.3236 N   0  0  0  0  0  0  0  0  0  0  0  0
    9.1378   22.9465    4.5704 C   0  0  0  0  0  0  0  0  0  0  0  0
    8.6231   24.1965    4.8416 C   0  0  0  0  0  0  0  0  0  0  0  0
    8.8504   25.2389    3.9676 C   0  0  0  0  0  0  0  0  0  0  0  0
    9.5866   25.0686    2.8147 C   0  0  0  0  0  0  0  0  0  0  0  0
   10.0979   23.8280    2.5446 C   0  0  0  0  0  0  0  0  0  0  0  0
    9.8697   22.7911    3.4176 C   0  0  0  0  0  0  0  0  0  0  0  0
    8.6235   20.6019    4.9319 C   0  0  0  0  0  0  0  0  0  0  0  0
    8.9290   21.8856    5.4221 O   0  0  0  0  0  0  0  0  0  0  0  0
 22 23  1  0  0  0
 23 16  1  0  0  0
 16 17  2  0  0  0
 17 18  1  0  0  0
 18 19  2  0  0  0
 19 20  1  0  0  0
 20 14  1  0  0  0
 14 15  2  0  0  0
 15  1  1  0  0  0
  1  2  1  0  0  0
  2  3  2  0  0  0
  2  4  1  0  0  0
  4  7  1  0  0  0
  7  8  2  0  0  0
  8  9  1  0  0  0
  9 10  2  0  0  0
 10 11  1  0  0  0
 10 12  1  0  0  0
 20 21  2  0  0  0
 21 16  1  0  0  0
 12  7  1  0  0  0
  1  5  1  0  0  0
  4  6  1  0  0  0
 11 13  1  0  0  0
M  END
> <minimizedAffinity>
-6.32257

> <CNNscore>
0.4344066083

> <CNNaffinity>
5.8504004478

> <CNN_VS>
2.5414526463

> <CNNaffinity_variance>
0.1235622913

$$$$
[H]Sc1nnc(N([H])C(=O)N([H])N=C([H])c2c([H])c([H])c([H])c(OC([H])([H])[H])c2[H])s1


 23 24  0  0  0  0  0  0  0  0999 V2000
   14.2244   23.7998    0.1412 N   0  0  0  0  0  0  0  0  0  0  0  0
   14.2588   24.2997   -1.1795 C   0  0  0  0  0  0  0  0  0  0  0  0
   13.2093   24.3127   -1.8694 O   0  0  0  0  0  0  0  0  0  0  0  0
   15.4491   24.7894   -1.7514 N   0  0  0  0  0  0  0  0  0  0  0  0
   15.1101   23.7980    0.6989 H   0  0  0  0  0  0  0  0  0  0  0  0
   16.3246   24.7892   -1.2046 H   0  0  0  0  0  0  0  0  0  0  0  0
   15.4839   25.2955   -3.0883 C   0  0  0  0  0  0  0  0  0  0  0  0
   15.5404   26.5528   -3.5183 N   0  0  0  0  0  0  0  0  0  0  0  0
   15.5633   26.7998   -4.7570 N   0  0  0  0  0  0  0  0  0  0  0  0
   15.5308   25.8014   -5.6303 C   0  0  0  0  0  0  0  0  0  0  0  0
   15.5565   25.9803   -7.4044 S   0  0  0  0  0  0  0  0  0  0  0  0
   15.4644   24.4538   -4.5874 S   0  0  0  0  0  0  0  0  0  0  0  0
   16.5066   26.9549   -7.8160 H   0  0  0  0  0  0  0  0  0  0  0  0
   12.0005   23.9663    0.9046 C   0  0  0  0  0  0  0  0  0  0  0  0
   13.0957   23.3069    0.7602 N   0  0  0  0  0  0  0  0  0  0  0  0
    8.5989   23.5643    2.4205 C   0  0  0  0  0  0  0  0  0  0  0  0
    8.6743   22.2506    2.8320 C   0  0  0  0  0  0  0  0  0  0  0  0
    9.8255   21.5244    2.6091 C   0  0  0  0  0  0  0  0  0  0  0  0
   10.9192   22.0782    1.9788 C   0  0  0  0  0  0  0  0  0  0  0  0
   10.8453   23.3824    1.5700 C   0  0  0  0  0  0  0  0  0  0  0  0
    9.6967   24.1035    1.7935 C   0  0  0  0  0  0  0  0  0  0  0  0
    7.5146   25.5422    3.3176 C   0  0  0  0  0  0  0  0  0  0  0  0
    7.4647   24.3161    2.6280 O   0  0  0  0  0  0  0  0  0  0  0  0
 22 23  1  0  0  0
 23 16  1  0  0  0
 16 17  2  0  0  0
 17 18  1  0  0  0
 18 19  2  0  0  0
 19 20  1  0  0  0
 20 14  1  0  0  0
 14 15  2  0  0  0
 15  1  1  0  0  0
  1  2  1  0  0  0
  2  3  2  0  0  0
  2  4  1  0  0  0
  4  7  1  0  0  0
  7  8  2  0  0  0
  8  9  1  0  0  0
  9 10  2  0  0  0
 10 11  1  0  0  0
 10 12  1  0  0  0
 20 21  2  0  0  0
 21 16  1  0  0  0
 12  7  1  0  0  0
  1  5  1  0  0  0
  4  6  1  0  0  0
 11 13  1  0  0  0
M  END
> <minimizedAffinity>
-6.18069

> <CNNscore>
0.3894530535

> <CNNaffinity>
5.8619904518

> <CNN_VS>
2.2829701900

> <CNNaffinity_variance>
0.0834185779

$$$$
[H]Sc1nnc(N([H])C(=O)N([H])N=C([H])c2c([H])c([H])c([H])c(OC([H])([H])[H])c2[H])s1


 23 24  0  0  0  0  0  0  0  0999 V2000
   12.1129   25.2167   -0.3260 N   0  0  0  0  0  0  0  0  0  0  0  0
   12.8544   25.0096   -1.5103 C   0  0  0  0  0  0  0  0  0  0  0  0
   13.2415   23.8528   -1.8100 O   0  0  0  0  0  0  0  0  0  0  0  0
   13.1760   26.0744   -2.3743 N   0  0  0  0  0  0  0  0  0  0  0  0
   11.8000   26.1884   -0.0949 H   0  0  0  0  0  0  0  0  0  0  0  0
   12.8693   27.0340   -2.1498 H   0  0  0  0  0  0  0  0  0  0  0  0
   13.9266   25.8646   -3.5731 C   0  0  0  0  0  0  0  0  0  0  0  0
   14.7703   24.8850   -3.8854 N   0  0  0  0  0  0  0  0  0  0  0  0
   15.3438   24.8757   -5.0110 N   0  0  0  0  0  0  0  0  0  0  0  0
   15.1030   25.8463   -5.8830 C   0  0  0  0  0  0  0  0  0  0  0  0
   15.8280   25.9785   -7.5069 S   0  0  0  0  0  0  0  0  0  0  0  0
   13.9931   26.8038   -5.0117 S   0  0  0  0  0  0  0  0  0  0  0  0
   15.8486   24.7220   -8.1721 H   0  0  0  0  0  0  0  0  0  0  0  0
   10.7670   24.2864    1.3708 C   0  0  0  0  0  0  0  0  0  0  0  0
   11.7649   24.2210    0.5615 N   0  0  0  0  0  0  0  0  0  0  0  0
    9.1605   22.2777    4.0939 C   0  0  0  0  0  0  0  0  0  0  0  0
    9.8924   21.1133    3.9956 C   0  0  0  0  0  0  0  0  0  0  0  0
   10.8899   21.0051    3.0493 C   0  0  0  0  0  0  0  0  0  0  0  0
   11.1829   22.0390    2.1859 C   0  0  0  0  0  0  0  0  0  0  0  0
   10.4570   23.1953    2.2827 C   0  0  0  0  0  0  0  0  0  0  0  0
    9.4635   23.3001    3.2268 C   0  0  0  0  0  0  0  0  0  0  0  0
    6.9410   21.7221    4.9047 C   0  0  0  0  0  0  0  0  0  0  0  0
    8.1587   22.4176    5.0273 O   0  0  0  0  0  0  0  0  0  0  0  0
 22 23  1  0  0  0
 23 16  1  0  0  0
 16 17  2  0  0  0
 17 18  1  0  0  0
 18 19  2  0  0  0
 19 20  1  0  0  0
 20 14  1  0  0  0
 14 15  2  0  0  0
 15  1  1  0  0  0
  1  2  1  0  0  0
  2  3  2  0  0  0
  2  4  1  0  0  0
  4  7  1  0  0  0
  7  8  2  0  0  0
  8  9  1  0  0  0
  9 10  2  0  0  0
 10 11  1  0  0  0
 10 12  1  0  0  0
 20 21  2  0  0  0
 21 16  1  0  0  0
 12  7  1  0  0  0
  1  5  1  0  0  0
  4  6  1  0  0  0
 11 13  1  0  0  0
M  END
> <minimizedAffinity>
-5.53426

> <CNNscore>
0.3362704515

> <CNNaffinity>
5.5403537750

> <CNN_VS>
1.8630572557

> <CNNaffinity_variance>
0.0669025928

$$$$
[H]Sc1nnc(N([H])C(=O)N([H])N=C([H])c2c([H])c([H])c([H])c(OC([H])([H])[H])c2[H])s1


 23 24  0  0  0  0  0  0  0  0999 V2000
   12.9590   22.1313   -0.7038 N   0  0  0  0  0  0  0  0  0  0  0  0
   13.6193   23.2684   -1.2196 C   0  0  0  0  0  0  0  0  0  0  0  0
   13.6818   24.3186   -0.5335 O   0  0  0  0  0  0  0  0  0  0  0  0
   14.2161   23.2586   -2.4953 N   0  0  0  0  0  0  0  0  0  0  0  0
   12.9184   21.2663   -1.2918 H   0  0  0  0  0  0  0  0  0  0  0  0
   14.1782   22.4076   -3.0782 H   0  0  0  0  0  0  0  0  0  0  0  0
   14.8846   24.4097   -3.0175 C   0  0  0  0  0  0  0  0  0  0  0  0
   16.1235   24.8425   -2.8009 N   0  0  0  0  0  0  0  0  0  0  0  0
   16.5352   25.8965   -3.3625 N   0  0  0  0  0  0  0  0  0  0  0  0
   15.7286   26.5726   -4.1705 C   0  0  0  0  0  0  0  0  0  0  0  0
   16.1548   28.0721   -5.0365 S   0  0  0  0  0  0  0  0  0  0  0  0
   14.3160   25.6201   -4.0981 S   0  0  0  0  0  0  0  0  0  0  0  0
   17.4564   27.9943   -5.6034 H   0  0  0  0  0  0  0  0  0  0  0  0
   11.2981   22.7321    0.8573 C   0  0  0  0  0  0  0  0  0  0  0  0
   12.3551   22.0737    0.5341 N   0  0  0  0  0  0  0  0  0  0  0  0
   10.3511   21.3939    4.2252 C   0  0  0  0  0  0  0  0  0  0  0  0
    9.5930   22.4451    4.6956 C   0  0  0  0  0  0  0  0  0  0  0  0
    9.4058   23.5639    3.9111 C   0  0  0  0  0  0  0  0  0  0  0  0
    9.9603   23.6663    2.6533 C   0  0  0  0  0  0  0  0  0  0  0  0
   10.7130   22.6232    2.1854 C   0  0  0  0  0  0  0  0  0  0  0  0
   10.8979   21.5096    2.9696 C   0  0  0  0  0  0  0  0  0  0  0  0
   11.2934   19.1720    4.4855 C   0  0  0  0  0  0  0  0  0  0  0  0
   10.5569   20.2636    4.9831 O   0  0  0  0  0  0  0  0  0  0  0  0
 22 23  1  0  0  0
 23 16  1  0  0  0
 16 17  2  0  0  0
 17 18  1  0  0  0
 18 19  2  0  0  0
 19 20  1  0  0  0
 20 14  1  0  0  0
 14 15  2  0  0  0
 15  1  1  0  0  0
  1  2  1  0  0  0
  2  3  2  0  0  0
  2  4  1  0  0  0
  4  7  1  0  0  0
  7  8  2  0  0  0
  8  9  1  0  0  0
  9 10  2  0  0  0
 10 11  1  0  0  0
 10 12  1  0  0  0
 20 21  2  0  0  0
 21 16  1  0  0  0
 12  7  1  0  0  0
  1  5  1  0  0  0
  4  6  1  0  0  0
 11 13  1  0  0  0
M  END
> <minimizedAffinity>
-6.24038

> <CNNscore>
0.3133971393

> <CNNaffinity>
5.8436264992

> <CNN_VS>
1.8313758373

> <CNNaffinity_variance>
0.2062737495

$$$$
[H]Sc1nnc(N([H])C(=O)N([H])N=C([H])c2c([H])c([H])c([H])c(OC([H])([H])[H])c2[H])s1


 23 24  0  0  0  0  0  0  0  0999 V2000
   11.2178   23.3623   -0.4373 N   0  0  0  0  0  0  0  0  0  0  0  0
   12.1680   24.2476   -0.9930 C   0  0  0  0  0  0  0  0  0  0  0  0
   12.2363   25.4309   -0.5773 O   0  0  0  0  0  0  0  0  0  0  0  0
   13.0507   23.8373   -2.0109 N   0  0  0  0  0  0  0  0  0  0  0  0
   11.1776   22.3805   -0.7980 H   0  0  0  0  0  0  0  0  0  0  0  0
   13.0141   22.8700   -2.3692 H   0  0  0  0  0  0  0  0  0  0  0  0
   14.0125   24.7335   -2.5733 C   0  0  0  0  0  0  0  0  0  0  0  0
   15.3098   24.8609   -2.3089 N   0  0  0  0  0  0  0  0  0  0  0  0
   16.0006   25.7240   -2.9202 N   0  0  0  0  0  0  0  0  0  0  0  0
   15.4294   26.5049   -3.8281 C   0  0  0  0  0  0  0  0  0  0  0  0
   16.2610   27.7667   -4.7748 S   0  0  0  0  0  0  0  0  0  0  0  0
   13.8191   25.9457   -3.7771 S   0  0  0  0  0  0  0  0  0  0  0  0
   17.5240   27.3158   -5.2475 H   0  0  0  0  0  0  0  0  0  0  0  0
   10.5824   23.6238    1.8174 C   0  0  0  0  0  0  0  0  0  0  0  0
   10.3264   23.6986    0.5589 N   0  0  0  0  0  0  0  0  0  0  0  0
    7.6936   25.3115    3.5019 C   0  0  0  0  0  0  0  0  0  0  0  0
    7.7292   24.6801    4.7271 C   0  0  0  0  0  0  0  0  0  0  0  0
    8.6883   23.7218    4.9800 C   0  0  0  0  0  0  0  0  0  0  0  0
    9.6262   23.3698    4.0332 C   0  0  0  0  0  0  0  0  0  0  0  0
    9.5917   23.9960    2.8166 C   0  0  0  0  0  0  0  0  0  0  0  0
    8.6347   24.9506    2.5675 C   0  0  0  0  0  0  0  0  0  0  0  0
    7.1035   27.6267    3.0729 C   0  0  0  0  0  0  0  0  0  0  0  0
    6.7495   26.2720    3.2181 O   0  0  0  0  0  0  0  0  0  0  0  0
 22 23  1  0  0  0
 23 16  1  0  0  0
 16 17  2  0  0  0
 17 18  1  0  0  0
 18 19  2  0  0  0
 19 20  1  0  0  0
 20 14  1  0  0  0
 14 15  2  0  0  0
 15  1  1  0  0  0
  1  2  1  0  0  0
  2  3  2  0  0  0
  2  4  1  0  0  0
  4  7  1  0  0  0
  7  8  2  0  0  0
  8  9  1  0  0  0
  9 10  2  0  0  0
 10 11  1  0  0  0
 10 12  1  0  0  0
 20 21  2  0  0  0
 21 16  1  0  0  0
 12  7  1  0  0  0
  1  5  1  0  0  0
  4  6  1  0  0  0
 11 13  1  0  0  0
M  END
> <minimizedAffinity>
-6.26513

> <CNNscore>
0.2959733605

> <CNNaffinity>
5.4959120750

> <CNN_VS>
1.6266435385

> <CNNaffinity_variance>
0.0239024274

$$$$
[H]Sc1nnc(N([H])C(=O)N([H])N=C([H])c2c([H])c([H])c([H])c(OC([H])([H])[H])c2[H])s1


 23 24  0  0  0  0  0  0  0  0999 V2000
   13.0402   22.2595   -0.0955 N   0  0  0  0  0  0  0  0  0  0  0  0
   13.3147   23.2554   -1.0588 C   0  0  0  0  0  0  0  0  0  0  0  0
   12.4161   24.0682   -1.3897 O   0  0  0  0  0  0  0  0  0  0  0  0
   14.5809   23.3646   -1.6657 N   0  0  0  0  0  0  0  0  0  0  0  0
   13.8030   21.5923    0.1661 H   0  0  0  0  0  0  0  0  0  0  0  0
   15.3358   22.7085   -1.4105 H   0  0  0  0  0  0  0  0  0  0  0  0
   14.8588   24.3728   -2.6409 C   0  0  0  0  0  0  0  0  0  0  0  0
   14.3247   24.5591   -3.8446 N   0  0  0  0  0  0  0  0  0  0  0  0
   14.7086   25.5211   -4.5677 N   0  0  0  0  0  0  0  0  0  0  0  0
   15.6474   26.3473   -4.1240 C   0  0  0  0  0  0  0  0  0  0  0  0
   16.2968   27.7473   -5.0174 S   0  0  0  0  0  0  0  0  0  0  0  0
   15.9732   25.6810   -2.5884 S   0  0  0  0  0  0  0  0  0  0  0  0
   15.2612   28.4855   -5.6532 H   0  0  0  0  0  0  0  0  0  0  0  0
   10.9893   23.0502    0.7561 C   0  0  0  0  0  0  0  0  0  0  0  0
   11.8254   22.0975    0.5357 N   0  0  0  0  0  0  0  0  0  0  0  0
    8.1800   23.2534    3.2254 C   0  0  0  0  0  0  0  0  0  0  0  0
    7.3167   22.3257    2.6821 C   0  0  0  0  0  0  0  0  0  0  0  0
    7.6641   21.6552    1.5280 C   0  0  0  0  0  0  0  0  0  0  0  0
    8.8644   21.8862    0.8909 C   0  0  0  0  0  0  0  0  0  0  0  0
    9.7222   22.8069    1.4294 C   0  0  0  0  0  0  0  0  0  0  0  0
    9.3732   23.4735    2.5797 C   0  0  0  0  0  0  0  0  0  0  0  0
    8.7947   24.0864    5.4210 C   0  0  0  0  0  0  0  0  0  0  0  0
    7.8633   23.9393    4.3759 O   0  0  0  0  0  0  0  0  0  0  0  0
 22 23  1  0  0  0
 23 16  1  0  0  0
 16 17  2  0  0  0
 17 18  1  0  0  0
 18 19  2  0  0  0
 19 20  1  0  0  0
 20 14  1  0  0  0
 14 15  2  0  0  0
 15  1  1  0  0  0
  1  2  1  0  0  0
  2  3  2  0  0  0
  2  4  1  0  0  0
  4  7  1  0  0  0
  7  8  2  0  0  0
  8  9  1  0  0  0
  9 10  2  0  0  0
 10 11  1  0  0  0
 10 12  1  0  0  0
 20 21  2  0  0  0
 21 16  1  0  0  0
 12  7  1  0  0  0
  1  5  1  0  0  0
  4  6  1  0  0  0
 11 13  1  0  0  0
M  END
> <minimizedAffinity>
-5.00143

> <CNNscore>
0.2849881351

> <CNNaffinity>
5.7283778191

> <CNN_VS>
1.6325197220

> <CNNaffinity_variance>
0.3589643538

$$$$
[H]c1c([H])c(-c2c([H])c(SC([H])([H])[H])n([H])c2-c2c([H])c([H])c(S(=O)(=O)C([H])([H])[H])c([H])c2[H])c([H])c([H])c1F


 25 27  0  0  0  0  0  0  0  0999 V2000
   17.0789   23.9346    0.7461 C   0  0  0  0  0  0  0  0  0  0  0  0
   15.7029   23.6866    0.8622 C   0  0  0  0  0  0  0  0  0  0  0  0
   15.0925   24.0807   -0.3026 C   0  0  0  0  0  0  0  0  0  0  0  0
   16.0806   24.5626   -1.1190 C   0  0  0  0  0  0  0  0  0  0  0  0
   17.2644   24.4663   -0.4723 N   0  0  0  0  0  0  0  0  0  0  0  0
   18.1942   24.7509   -0.8339 H   0  0  0  0  0  0  0  0  0  0  0  0
   13.6758   24.0016   -0.6101 C   0  0  0  0  0  0  0  0  0  0  0  0
   12.8829   25.1300   -0.5666 C   0  0  0  0  0  0  0  0  0  0  0  0
   11.5564   25.0996   -0.8438 C   0  0  0  0  0  0  0  0  0  0  0  0
   10.9523   23.9154   -1.1836 C   0  0  0  0  0  0  0  0  0  0  0  0
    9.6353   23.9356   -1.4489 F   0  0  0  0  0  0  0  0  0  0  0  0
   11.7239   22.7632   -1.2359 C   0  0  0  0  0  0  0  0  0  0  0  0
   13.0657   22.8082   -0.9529 C   0  0  0  0  0  0  0  0  0  0  0  0
   15.8616   25.0885   -2.4523 C   0  0  0  0  0  0  0  0  0  0  0  0
   15.3124   24.2622   -3.4386 C   0  0  0  0  0  0  0  0  0  0  0  0
   15.1299   24.8328   -4.6798 C   0  0  0  0  0  0  0  0  0  0  0  0
   15.4512   26.1321   -4.9848 C   0  0  0  0  0  0  0  0  0  0  0  0
   15.9928   26.9387   -4.0045 C   0  0  0  0  0  0  0  0  0  0  0  0
   16.1857   26.4049   -2.7672 C   0  0  0  0  0  0  0  0  0  0  0  0
   15.2016   26.8225   -6.5663 S   0  0  0  0  0  0  0  0  0  0  0  0
   15.9220   25.7298   -7.7767 C   0  0  0  0  0  0  0  0  0  0  0  0
   15.9330   28.1471   -6.6411 O   0  0  0  0  0  0  0  0  0  0  0  0
   13.7632   27.0986   -6.8221 O   0  0  0  0  0  0  0  0  0  0  0  0
   19.6009   24.9430    1.9862 C   0  0  0  0  0  0  0  0  0  0  0  0
   18.3611   23.6315    1.9373 S   0  0  0  0  0  0  0  0  0  0  0  0
 24 25  1  0  0  0
 25  1  1  0  0  0
  1  2  2  0  0  0
  2  3  1  0  0  0
  3  7  1  0  0  0
  7  8  2  0  0  0
  8  9  1  0  0  0
  9 10  2  0  0  0
 10 11  1  0  0  0
 10 12  1  0  0  0
 12 13  2  0  0  0
  3  4  2  0  0  0
  4 14  1  0  0  0
 14 15  2  0  0  0
 15 16  1  0  0  0
 16 17  2  0  0  0
 17 20  1  0  0  0
 20 21  1  0  0  0
 20 22  2  0  0  0
 20 23  2  0  0  0
 17 18  1  0  0  0
 18 19  2  0  0  0
  4  5  1  0  0  0
  5  1  1  0  0  0
 13  7  1  0  0  0
 19 14  1  0  0  0
  5  6  1  0  0  0
M  END
> <minimizedAffinity>
-0.36553

> <CNNscore>
0.6939506531

> <CNNaffinity>
6.9642777443

> <CNN_VS>
4.8328652382

> <CNNaffinity_variance>
0.2591644824

$$$$
[H]c1c([H])c(-c2c([H])c(SC([H])([H])[H])n([H])c2-c2c([H])c([H])c(S(=O)(=O)C([H])([H])[H])c([H])c2[H])c([H])c([H])c1F


 25 27  0  0  0  0  0  0  0  0999 V2000
   10.5803   23.6378    0.2062 C   0  0  0  0  0  0  0  0  0  0  0  0
   11.7972   23.4420    0.8762 C   0  0  0  0  0  0  0  0  0  0  0  0
   12.8147   23.8674    0.0586 C   0  0  0  0  0  0  0  0  0  0  0  0
   12.2285   24.3168   -1.0945 C   0  0  0  0  0  0  0  0  0  0  0  0
   10.8884   24.1709   -0.9865 N   0  0  0  0  0  0  0  0  0  0  0  0
   10.1772   24.4227   -1.6985 H   0  0  0  0  0  0  0  0  0  0  0  0
   14.2352   23.8462    0.3575 C   0  0  0  0  0  0  0  0  0  0  0  0
   14.9701   25.0140    0.3622 C   0  0  0  0  0  0  0  0  0  0  0  0
   16.2980   25.0382    0.6333 C   0  0  0  0  0  0  0  0  0  0  0  0
   16.9628   23.8719    0.9174 C   0  0  0  0  0  0  0  0  0  0  0  0
   18.2785   23.9467    1.1789 F   0  0  0  0  0  0  0  0  0  0  0  0
   16.2504   22.6811    0.9204 C   0  0  0  0  0  0  0  0  0  0  0  0
   14.9064   22.6710    0.6442 C   0  0  0  0  0  0  0  0  0  0  0  0
   12.9534   24.8514   -2.2307 C   0  0  0  0  0  0  0  0  0  0  0  0
   14.0250   24.1298   -2.7674 C   0  0  0  0  0  0  0  0  0  0  0  0
   14.6629   24.6990   -3.8484 C   0  0  0  0  0  0  0  0  0  0  0  0
   14.3082   25.9023   -4.4058 C   0  0  0  0  0  0  0  0  0  0  0  0
   13.2497   26.6063   -3.8685 C   0  0  0  0  0  0  0  0  0  0  0  0
   12.5983   26.0709   -2.7997 C   0  0  0  0  0  0  0  0  0  0  0  0
   15.1357   26.5903   -5.7778 S   0  0  0  0  0  0  0  0  0  0  0  0
   16.1936   27.9020   -5.1963 C   0  0  0  0  0  0  0  0  0  0  0  0
   14.1094   27.1989   -6.7112 O   0  0  0  0  0  0  0  0  0  0  0  0
   15.8722   25.5541   -6.5487 O   0  0  0  0  0  0  0  0  0  0  0  0
    8.4963   21.5305    0.5695 C   0  0  0  0  0  0  0  0  0  0  0  0
    8.9364   23.2700    0.7698 S   0  0  0  0  0  0  0  0  0  0  0  0
 24 25  1  0  0  0
 25  1  1  0  0  0
  1  2  2  0  0  0
  2  3  1  0  0  0
  3  7  1  0  0  0
  7  8  2  0  0  0
  8  9  1  0  0  0
  9 10  2  0  0  0
 10 11  1  0  0  0
 10 12  1  0  0  0
 12 13  2  0  0  0
  3  4  2  0  0  0
  4 14  1  0  0  0
 14 15  2  0  0  0
 15 16  1  0  0  0
 16 17  2  0  0  0
 17 20  1  0  0  0
 20 21  1  0  0  0
 20 22  2  0  0  0
 20 23  2  0  0  0
 17 18  1  0  0  0
 18 19  2  0  0  0
  4  5  1  0  0  0
  5  1  1  0  0  0
 13  7  1  0  0  0
 19 14  1  0  0  0
  5  6  1  0  0  0
M  END
> <minimizedAffinity>
-7.44304

> <CNNscore>
0.6900792718

> <CNNaffinity>
7.1651725769

> <CNN_VS>
4.9445371628

> <CNNaffinity_variance>
0.1119964495

$$$$
[H]c1c([H])c(-c2c([H])c(SC([H])([H])[H])n([H])c2-c2c([H])c([H])c(S(=O)(=O)C([H])([H])[H])c([H])c2[H])c([H])c([H])c1F


 25 27  0  0  0  0  0  0  0  0999 V2000
   14.8392   26.0749    1.1356 C   0  0  0  0  0  0  0  0  0  0  0  0
   14.4287   24.7473    0.9429 C   0  0  0  0  0  0  0  0  0  0  0  0
   14.3999   24.4948   -0.4062 C   0  0  0  0  0  0  0  0  0  0  0  0
   14.7870   25.6511   -1.0294 C   0  0  0  0  0  0  0  0  0  0  0  0
   15.0462   26.5867   -0.0879 N   0  0  0  0  0  0  0  0  0  0  0  0
   15.3596   27.5619   -0.2516 H   0  0  0  0  0  0  0  0  0  0  0  0
   14.0317   23.2458   -1.0481 C   0  0  0  0  0  0  0  0  0  0  0  0
   12.9441   22.5215   -0.6048 C   0  0  0  0  0  0  0  0  0  0  0  0
   12.5679   21.3500   -1.1738 C   0  0  0  0  0  0  0  0  0  0  0  0
   13.2772   20.8412   -2.2325 C   0  0  0  0  0  0  0  0  0  0  0  0
   12.8661   19.6770   -2.7623 F   0  0  0  0  0  0  0  0  0  0  0  0
   14.3761   21.5472   -2.7008 C   0  0  0  0  0  0  0  0  0  0  0  0
   14.7460   22.7318   -2.1156 C   0  0  0  0  0  0  0  0  0  0  0  0
   14.8879   25.8164   -2.4663 C   0  0  0  0  0  0  0  0  0  0  0  0
   13.7259   26.0006   -3.2232 C   0  0  0  0  0  0  0  0  0  0  0  0
   13.9010   26.1545   -4.5816 C   0  0  0  0  0  0  0  0  0  0  0  0
   15.1227   26.1361   -5.2074 C   0  0  0  0  0  0  0  0  0  0  0  0
   16.2627   25.9534   -4.4514 C   0  0  0  0  0  0  0  0  0  0  0  0
   16.1238   25.7984   -3.1062 C   0  0  0  0  0  0  0  0  0  0  0  0
   15.3069   26.3393   -6.9293 S   0  0  0  0  0  0  0  0  0  0  0  0
   15.7929   24.7743   -7.6311 C   0  0  0  0  0  0  0  0  0  0  0  0
   16.4224   27.3315   -7.1866 O   0  0  0  0  0  0  0  0  0  0  0  0
   14.0742   26.8919   -7.5502 O   0  0  0  0  0  0  0  0  0  0  0  0
   13.6107   27.9381    3.1192 C   0  0  0  0  0  0  0  0  0  0  0  0
   15.0546   26.9546    2.6636 S   0  0  0  0  0  0  0  0  0  0  0  0
 24 25  1  0  0  0
 25  1  1  0  0  0
  1  2  2  0  0  0
  2  3  1  0  0  0
  3  7  1  0  0  0
  7  8  2  0  0  0
  8  9  1  0  0  0
  9 10  2  0  0  0
 10 11  1  0  0  0
 10 12  1  0  0  0
 12 13  2  0  0  0
  3  4  2  0  0  0
  4 14  1  0  0  0
 14 15  2  0  0  0
 15 16  1  0  0  0
 16 17  2  0  0  0
 17 20  1  0  0  0
 20 21  1  0  0  0
 20 22  2  0  0  0
 20 23  2  0  0  0
 17 18  1  0  0  0
 18 19  2  0  0  0
  4  5  1  0  0  0
  5  1  1  0  0  0
 13  7  1  0  0  0
 19 14  1  0  0  0
  5  6  1  0  0  0
M  END
> <minimizedAffinity>
9.54716

> <CNNscore>
0.6339315772

> <CNNaffinity>
6.5626387596

> <CNN_VS>
4.1602640152

> <CNNaffinity_variance>
0.4068218172

$$$$
[H]c1c([H])c(-c2c([H])c(SC([H])([H])[H])n([H])c2-c2c([H])c([H])c(S(=O)(=O)C([H])([H])[H])c([H])c2[H])c([H])c([H])c1F


 25 27  0  0  0  0  0  0  0  0999 V2000
    9.8093   23.4425    0.2812 C   0  0  0  0  0  0  0  0  0  0  0  0
   10.9049   22.8020    0.8794 C   0  0  0  0  0  0  0  0  0  0  0  0
   12.0328   23.1126    0.1610 C   0  0  0  0  0  0  0  0  0  0  0  0
   11.6329   23.9310   -0.8615 C   0  0  0  0  0  0  0  0  0  0  0  0
   10.2963   24.1170   -0.7721 N   0  0  0  0  0  0  0  0  0  0  0  0
    9.7055   24.6884   -1.4051 H   0  0  0  0  0  0  0  0  0  0  0  0
   13.3861   22.6625    0.4321 C   0  0  0  0  0  0  0  0  0  0  0  0
   13.6847   21.3159    0.4706 C   0  0  0  0  0  0  0  0  0  0  0  0
   14.9337   20.8534    0.7228 C   0  0  0  0  0  0  0  0  0  0  0  0
   15.9597   21.7351    0.9521 C   0  0  0  0  0  0  0  0  0  0  0  0
   17.1797   21.2288    1.1981 F   0  0  0  0  0  0  0  0  0  0  0  0
   15.6904   23.0959    0.9198 C   0  0  0  0  0  0  0  0  0  0  0  0
   14.4214   23.5505    0.6634 C   0  0  0  0  0  0  0  0  0  0  0  0
   12.5203   24.4874   -1.8640 C   0  0  0  0  0  0  0  0  0  0  0  0
   13.5948   23.7250   -2.3343 C   0  0  0  0  0  0  0  0  0  0  0  0
   14.3920   24.3186   -3.2891 C   0  0  0  0  0  0  0  0  0  0  0  0
   14.1884   25.5824   -3.7848 C   0  0  0  0  0  0  0  0  0  0  0  0
   13.1256   26.3263   -3.3138 C   0  0  0  0  0  0  0  0  0  0  0  0
   12.3188   25.7682   -2.3700 C   0  0  0  0  0  0  0  0  0  0  0  0
   15.2155   26.3001   -4.9973 S   0  0  0  0  0  0  0  0  0  0  0  0
   16.4397   27.3021   -4.1755 C   0  0  0  0  0  0  0  0  0  0  0  0
   14.3767   27.2117   -5.8693 O   0  0  0  0  0  0  0  0  0  0  0  0
   15.8153   25.2701   -5.8860 O   0  0  0  0  0  0  0  0  0  0  0  0
    7.6412   21.8589    1.5877 C   0  0  0  0  0  0  0  0  0  0  0  0
    8.1025   23.4017    0.7710 S   0  0  0  0  0  0  0  0  0  0  0  0
 24 25  1  0  0  0
 25  1  1  0  0  0
  1  2  2  0  0  0
  2  3  1  0  0  0
  3  7  1  0  0  0
  7  8  2  0  0  0
  8  9  1  0  0  0
  9 10  2  0  0  0
 10 11  1  0  0  0
 10 12  1  0  0  0
 12 13  2  0  0  0
  3  4  2  0  0  0
  4 14  1  0  0  0
 14 15  2  0  0  0
 15 16  1  0  0  0
 16 17  2  0  0  0
 17 20  1  0  0  0
 20 21  1  0  0  0
 20 22  2  0  0  0
 20 23  2  0  0  0
 17 18  1  0  0  0
 18 19  2  0  0  0
  4  5  1  0  0  0
  5  1  1  0  0  0
 13  7  1  0  0  0
 19 14  1  0  0  0
  5  6  1  0  0  0
M  END
> <minimizedAffinity>
-7.14173

> <CNNscore>
0.5913140774

> <CNNaffinity>
7.0305137634

> <CNN_VS>
4.1572418213

> <CNNaffinity_variance>
0.0846079141

$$$$
[H]c1c([H])c(-c2c([H])c(SC([H])([H])[H])n([H])c2-c2c([H])c([H])c(S(=O)(=O)C([H])([H])[H])c([H])c2[H])c([H])c([H])c1F


 25 27  0  0  0  0  0  0  0  0999 V2000
   11.4861   23.8401    0.1272 C   0  0  0  0  0  0  0  0  0  0  0  0
   12.7587   23.6840    0.6968 C   0  0  0  0  0  0  0  0  0  0  0  0
   13.6954   24.1012   -0.2160 C   0  0  0  0  0  0  0  0  0  0  0  0
   13.0057   24.5064   -1.3275 C   0  0  0  0  0  0  0  0  0  0  0  0
   11.6825   24.3422   -1.1020 N   0  0  0  0  0  0  0  0  0  0  0  0
   10.9091   24.5611   -1.7579 H   0  0  0  0  0  0  0  0  0  0  0  0
   15.1362   24.1118   -0.0383 C   0  0  0  0  0  0  0  0  0  0  0  0
   15.9482   24.7963   -0.9193 C   0  0  0  0  0  0  0  0  0  0  0  0
   17.2972   24.8296   -0.7914 C   0  0  0  0  0  0  0  0  0  0  0  0
   17.9059   24.1664    0.2443 C   0  0  0  0  0  0  0  0  0  0  0  0
   19.2454   24.2282    0.3287 F   0  0  0  0  0  0  0  0  0  0  0  0
   17.1155   23.4690    1.1467 C   0  0  0  0  0  0  0  0  0  0  0  0
   15.7510   23.4436    1.0054 C   0  0  0  0  0  0  0  0  0  0  0  0
   13.6221   25.0185   -2.5359 C   0  0  0  0  0  0  0  0  0  0  0  0
   14.7955   24.4273   -3.0162 C   0  0  0  0  0  0  0  0  0  0  0  0
   15.3207   24.9652   -4.1713 C   0  0  0  0  0  0  0  0  0  0  0  0
   14.7649   26.0203   -4.8513 C   0  0  0  0  0  0  0  0  0  0  0  0
   13.6074   26.5965   -4.3687 C   0  0  0  0  0  0  0  0  0  0  0  0
   13.0631   26.0880   -3.2293 C   0  0  0  0  0  0  0  0  0  0  0  0
   15.4548   26.6723   -6.3139 S   0  0  0  0  0  0  0  0  0  0  0  0
   14.3807   26.2586   -7.6751 C   0  0  0  0  0  0  0  0  0  0  0  0
   16.7942   26.0083   -6.5593 O   0  0  0  0  0  0  0  0  0  0  0  0
   15.7024   28.1337   -6.1981 O   0  0  0  0  0  0  0  0  0  0  0  0
    9.2556   21.8632    0.3074 C   0  0  0  0  0  0  0  0  0  0  0  0
    9.9028   23.4628    0.8385 S   0  0  0  0  0  0  0  0  0  0  0  0
 24 25  1  0  0  0
 25  1  1  0  0  0
  1  2  2  0  0  0
  2  3  1  0  0  0
  3  7  1  0  0  0
  7  8  2  0  0  0
  8  9  1  0  0  0
  9 10  2  0  0  0
 10 11  1  0  0  0
 10 12  1  0  0  0
 12 13  2  0  0  0
  3  4  2  0  0  0
  4 14  1  0  0  0
 14 15  2  0  0  0
 15 16  1  0  0  0
 16 17  2  0  0  0
 17 20  1  0  0  0
 20 21  1  0  0  0
 20 22  2  0  0  0
 20 23  2  0  0  0
 17 18  1  0  0  0
 18 19  2  0  0  0
  4  5  1  0  0  0
  5  1  1  0  0  0
 13  7  1  0  0  0
 19 14  1  0  0  0
  5  6  1  0  0  0
M  END
> <minimizedAffinity>
-2.93037

> <CNNscore>
0.5748426318

> <CNNaffinity>
6.7836785316

> <CNN_VS>
3.8995475769

> <CNNaffinity_variance>
0.1979810447

$$$$
[H]c1c([H])c(-c2c([H])c(SC([H])([H])[H])n([H])c2-c2c([H])c([H])c(S(=O)(=O)C([H])([H])[H])c([H])c2[H])c([H])c([H])c1F


 25 27  0  0  0  0  0  0  0  0999 V2000
   14.5624   25.8842    1.0169 C   0  0  0  0  0  0  0  0  0  0  0  0
   13.5863   24.8903    0.8505 C   0  0  0  0  0  0  0  0  0  0  0  0
   13.5100   24.5780   -0.4841 C   0  0  0  0  0  0  0  0  0  0  0  0
   14.4259   25.3693   -1.1246 C   0  0  0  0  0  0  0  0  0  0  0  0
   15.0468   26.1453   -0.2074 N   0  0  0  0  0  0  0  0  0  0  0  0
   15.7896   26.8466   -0.3883 H   0  0  0  0  0  0  0  0  0  0  0  0
   12.6307   23.5993   -1.0978 C   0  0  0  0  0  0  0  0  0  0  0  0
   11.3288   23.9264   -1.4171 C   0  0  0  0  0  0  0  0  0  0  0  0
   10.4745   23.0423   -1.9882 C   0  0  0  0  0  0  0  0  0  0  0  0
   10.8931   21.7665   -2.2708 C   0  0  0  0  0  0  0  0  0  0  0  0
   10.0100   20.9265   -2.8362 F   0  0  0  0  0  0  0  0  0  0  0  0
   12.1973   21.4079   -1.9612 C   0  0  0  0  0  0  0  0  0  0  0  0
   13.0517   22.3127   -1.3832 C   0  0  0  0  0  0  0  0  0  0  0  0
   14.6647   25.3580   -2.5546 C   0  0  0  0  0  0  0  0  0  0  0  0
   15.4186   24.3242   -3.1204 C   0  0  0  0  0  0  0  0  0  0  0  0
   15.6000   24.3785   -4.4856 C   0  0  0  0  0  0  0  0  0  0  0  0
   15.0922   25.3673   -5.2911 C   0  0  0  0  0  0  0  0  0  0  0  0
   14.3501   26.3826   -4.7227 C   0  0  0  0  0  0  0  0  0  0  0  0
   14.1525   26.3579   -3.3760 C   0  0  0  0  0  0  0  0  0  0  0  0
   15.3377   25.4012   -7.0170 S   0  0  0  0  0  0  0  0  0  0  0  0
   16.2750   26.8623   -7.4228 C   0  0  0  0  0  0  0  0  0  0  0  0
   13.9894   25.5085   -7.6992 O   0  0  0  0  0  0  0  0  0  0  0  0
   15.9790   24.1510   -7.5032 O   0  0  0  0  0  0  0  0  0  0  0  0
   13.8839   27.8646    3.1460 C   0  0  0  0  0  0  0  0  0  0  0  0
   15.0889   26.6764    2.5170 S   0  0  0  0  0  0  0  0  0  0  0  0
 24 25  1  0  0  0
 25  1  1  0  0  0
  1  2  2  0  0  0
  2  3  1  0  0  0
  3  7  1  0  0  0
  7  8  2  0  0  0
  8  9  1  0  0  0
  9 10  2  0  0  0
 10 11  1  0  0  0
 10 12  1  0  0  0
 12 13  2  0  0  0
  3  4  2  0  0  0
  4 14  1  0  0  0
 14 15  2  0  0  0
 15 16  1  0  0  0
 16 17  2  0  0  0
 17 20  1  0  0  0
 20 21  1  0  0  0
 20 22  2  0  0  0
 20 23  2  0  0  0
 17 18  1  0  0  0
 18 19  2  0  0  0
  4  5  1  0  0  0
  5  1  1  0  0  0
 13  7  1  0  0  0
 19 14  1  0  0  0
  5  6  1  0  0  0
M  END
> <minimizedAffinity>
9.78406

> <CNNscore>
0.5636148453

> <CNNaffinity>
6.4976854324

> <CNN_VS>
3.6621918678

> <CNNaffinity_variance>
0.6749111414

$$$$
[H]c1c([H])c(-c2c([H])c(SC([H])([H])[H])n([H])c2-c2c([H])c([H])c(S(=O)(=O)C([H])([H])[H])c([H])c2[H])c([H])c([H])c1F


 25 27  0  0  0  0  0  0  0  0999 V2000
   14.8492   25.2101   -7.1385 C   0  0  0  0  0  0  0  0  0  0  0  0
   15.5726   26.2800   -6.5908 C   0  0  0  0  0  0  0  0  0  0  0  0
   15.6968   26.0716   -5.2395 C   0  0  0  0  0  0  0  0  0  0  0  0
   15.0586   24.8916   -4.9650 C   0  0  0  0  0  0  0  0  0  0  0  0
   14.5571   24.3903   -6.1166 N   0  0  0  0  0  0  0  0  0  0  0  0
   14.0228   23.5083   -6.2289 H   0  0  0  0  0  0  0  0  0  0  0  0
   16.3732   26.9332   -4.2868 C   0  0  0  0  0  0  0  0  0  0  0  0
   16.9419   26.4081   -3.1445 C   0  0  0  0  0  0  0  0  0  0  0  0
   17.5799   27.1771   -2.2284 C   0  0  0  0  0  0  0  0  0  0  0  0
   17.6792   28.5324   -2.4184 C   0  0  0  0  0  0  0  0  0  0  0  0
   18.3202   29.2524   -1.4825 F   0  0  0  0  0  0  0  0  0  0  0  0
   17.1171   29.0898   -3.5580 C   0  0  0  0  0  0  0  0  0  0  0  0
   16.4741   28.2998   -4.4772 C   0  0  0  0  0  0  0  0  0  0  0  0
   14.9504   24.3036   -3.6441 C   0  0  0  0  0  0  0  0  0  0  0  0
   14.3406   23.0536   -3.4928 C   0  0  0  0  0  0  0  0  0  0  0  0
   14.2779   22.5572   -2.2086 C   0  0  0  0  0  0  0  0  0  0  0  0
   14.7697   23.2103   -1.1058 C   0  0  0  0  0  0  0  0  0  0  0  0
   15.3691   24.4430   -1.2661 C   0  0  0  0  0  0  0  0  0  0  0  0
   15.4470   24.9612   -2.5225 C   0  0  0  0  0  0  0  0  0  0  0  0
   14.6772   22.5490    0.5049 S   0  0  0  0  0  0  0  0  0  0  0  0
   13.8455   20.9746    0.4193 C   0  0  0  0  0  0  0  0  0  0  0  0
   13.8382   23.4728    1.3638 O   0  0  0  0  0  0  0  0  0  0  0  0
   16.0198   22.4585    1.1372 O   0  0  0  0  0  0  0  0  0  0  0  0
   13.2197   23.5763   -9.0335 C   0  0  0  0  0  0  0  0  0  0  0  0
   14.3814   24.9435   -8.8312 S   0  0  0  0  0  0  0  0  0  0  0  0
 24 25  1  0  0  0
 25  1  1  0  0  0
  1  2  2  0  0  0
  2  3  1  0  0  0
  3  7  1  0  0  0
  7  8  2  0  0  0
  8  9  1  0  0  0
  9 10  2  0  0  0
 10 11  1  0  0  0
 10 12  1  0  0  0
 12 13  2  0  0  0
  3  4  2  0  0  0
  4 14  1  0  0  0
 14 15  2  0  0  0
 15 16  1  0  0  0
 16 17  2  0  0  0
 17 20  1  0  0  0
 20 21  1  0  0  0
 20 22  2  0  0  0
 20 23  2  0  0  0
 17 18  1  0  0  0
 18 19  2  0  0  0
  4  5  1  0  0  0
  5  1  1  0  0  0
 13  7  1  0  0  0
 19 14  1  0  0  0
  5  6  1  0  0  0
M  END
> <minimizedAffinity>
19.34260

> <CNNscore>
0.5271865726

> <CNNaffinity>
6.6410512924

> <CNN_VS>
3.5010731220

> <CNNaffinity_variance>
0.4381550252

$$$$
[H]c1c([H])c(-c2c([H])c(SC([H])([H])[H])n([H])c2-c2c([H])c([H])c(S(=O)(=O)C([H])([H])[H])c([H])c2[H])c([H])c([H])c1F


 25 27  0  0  0  0  0  0  0  0999 V2000
   11.2537   22.0800   -0.6860 C   0  0  0  0  0  0  0  0  0  0  0  0
   12.3876   22.0785    0.1402 C   0  0  0  0  0  0  0  0  0  0  0  0
   13.3296   22.9077   -0.4163 C   0  0  0  0  0  0  0  0  0  0  0  0
   12.7799   23.4089   -1.5660 C   0  0  0  0  0  0  0  0  0  0  0  0
   11.5349   22.9009   -1.7101 N   0  0  0  0  0  0  0  0  0  0  0  0
   10.8708   23.0953   -2.4830 H   0  0  0  0  0  0  0  0  0  0  0  0
   14.6508   23.1979    0.1109 C   0  0  0  0  0  0  0  0  0  0  0  0
   15.1654   24.4769    0.0531 C   0  0  0  0  0  0  0  0  0  0  0  0
   16.3947   24.7900    0.5309 C   0  0  0  0  0  0  0  0  0  0  0  0
   17.1792   23.8181    1.0990 C   0  0  0  0  0  0  0  0  0  0  0  0
   18.3901   24.1769    1.5575 F   0  0  0  0  0  0  0  0  0  0  0  0
   16.6888   22.5220    1.1715 C   0  0  0  0  0  0  0  0  0  0  0  0
   15.4426   22.2189    0.6839 C   0  0  0  0  0  0  0  0  0  0  0  0
   13.4502   24.3285   -2.4645 C   0  0  0  0  0  0  0  0  0  0  0  0
   12.9537   25.6273   -2.6195 C   0  0  0  0  0  0  0  0  0  0  0  0
   13.6454   26.4449   -3.4870 C   0  0  0  0  0  0  0  0  0  0  0  0
   14.7628   26.0579   -4.1842 C   0  0  0  0  0  0  0  0  0  0  0  0
   15.2441   24.7744   -4.0242 C   0  0  0  0  0  0  0  0  0  0  0  0
   14.5832   23.9416   -3.1740 C   0  0  0  0  0  0  0  0  0  0  0  0
   15.6161   27.1219   -5.2704 S   0  0  0  0  0  0  0  0  0  0  0  0
   15.6301   26.3780   -6.8903 C   0  0  0  0  0  0  0  0  0  0  0  0
   17.0516   27.2469   -4.8029 O   0  0  0  0  0  0  0  0  0  0  0  0
   15.0318   28.4892   -5.2686 O   0  0  0  0  0  0  0  0  0  0  0  0
    8.5996   22.0013    0.6795 C   0  0  0  0  0  0  0  0  0  0  0  0
    9.7297   21.1928   -0.4732 S   0  0  0  0  0  0  0  0  0  0  0  0
 24 25  1  0  0  0
 25  1  1  0  0  0
  1  2  2  0  0  0
  2  3  1  0  0  0
  3  7  1  0  0  0
  7  8  2  0  0  0
  8  9  1  0  0  0
  9 10  2  0  0  0
 10 11  1  0  0  0
 10 12  1  0  0  0
 12 13  2  0  0  0
  3  4  2  0  0  0
  4 14  1  0  0  0
 14 15  2  0  0  0
 15 16  1  0  0  0
 16 17  2  0  0  0
 17 20  1  0  0  0
 20 21  1  0  0  0
 20 22  2  0  0  0
 20 23  2  0  0  0
 17 18  1  0  0  0
 18 19  2  0  0  0
  4  5  1  0  0  0
  5  1  1  0  0  0
 13  7  1  0  0  0
 19 14  1  0  0  0
  5  6  1  0  0  0
M  END
> <minimizedAffinity>
-6.98487

> <CNNscore>
0.5139796138

> <CNNaffinity>
7.0807752609

> <CNN_VS>
3.6393740177

> <CNNaffinity_variance>
0.1191018596

$$$$
[H]c1c([H])c(-c2c([H])c(SC([H])([H])[H])n([H])c2-c2c([H])c([H])c(S(=O)(=O)C([H])([H])[H])c([H])c2[H])c([H])c([H])c1F


 25 27  0  0  0  0  0  0  0  0999 V2000
   15.0151   21.6587   -4.4485 C   0  0  0  0  0  0  0  0  0  0  0  0
   15.7766   22.8285   -4.3069 C   0  0  0  0  0  0  0  0  0  0  0  0
   15.2421   23.5715   -3.2837 C   0  0  0  0  0  0  0  0  0  0  0  0
   14.1694   22.8665   -2.8066 C   0  0  0  0  0  0  0  0  0  0  0  0
   14.0499   21.7225   -3.5179 N   0  0  0  0  0  0  0  0  0  0  0  0
   13.3326   20.9841   -3.3900 H   0  0  0  0  0  0  0  0  0  0  0  0
   15.7205   24.8542   -2.8004 C   0  0  0  0  0  0  0  0  0  0  0  0
   15.6575   25.9754   -3.6022 C   0  0  0  0  0  0  0  0  0  0  0  0
   16.0953   27.1907   -3.1910 C   0  0  0  0  0  0  0  0  0  0  0  0
   16.6260   27.3410   -1.9346 C   0  0  0  0  0  0  0  0  0  0  0  0
   17.0468   28.5647   -1.5730 F   0  0  0  0  0  0  0  0  0  0  0  0
   16.7025   26.2313   -1.1050 C   0  0  0  0  0  0  0  0  0  0  0  0
   16.2557   25.0070   -1.5339 C   0  0  0  0  0  0  0  0  0  0  0  0
   13.3167   23.3038   -1.7186 C   0  0  0  0  0  0  0  0  0  0  0  0
   12.6408   24.5245   -1.8191 C   0  0  0  0  0  0  0  0  0  0  0  0
   11.8460   24.8714   -0.7479 C   0  0  0  0  0  0  0  0  0  0  0  0
   11.6911   24.1006    0.3774 C   0  0  0  0  0  0  0  0  0  0  0  0
   12.3626   22.8982    0.4665 C   0  0  0  0  0  0  0  0  0  0  0  0
   13.1560   22.5265   -0.5753 C   0  0  0  0  0  0  0  0  0  0  0  0
   10.6723   24.5693    1.7126 S   0  0  0  0  0  0  0  0  0  0  0  0
   10.6570   23.2409    2.9013 C   0  0  0  0  0  0  0  0  0  0  0  0
    9.2574   24.7556    1.2042 O   0  0  0  0  0  0  0  0  0  0  0  0
   11.1029   25.8650    2.3010 O   0  0  0  0  0  0  0  0  0  0  0  0
   13.6711   19.6799   -6.2354 C   0  0  0  0  0  0  0  0  0  0  0  0
   15.2338   20.3310   -5.6079 S   0  0  0  0  0  0  0  0  0  0  0  0
 24 25  1  0  0  0
 25  1  1  0  0  0
  1  2  2  0  0  0
  2  3  1  0  0  0
  3  7  1  0  0  0
  7  8  2  0  0  0
  8  9  1  0  0  0
  9 10  2  0  0  0
 10 11  1  0  0  0
 10 12  1  0  0  0
 12 13  2  0  0  0
  3  4  2  0  0  0
  4 14  1  0  0  0
 14 15  2  0  0  0
 15 16  1  0  0  0
 16 17  2  0  0  0
 17 20  1  0  0  0
 20 21  1  0  0  0
 20 22  2  0  0  0
 20 23  2  0  0  0
 17 18  1  0  0  0
 18 19  2  0  0  0
  4  5  1  0  0  0
  5  1  1  0  0  0
 13  7  1  0  0  0
 19 14  1  0  0  0
  5  6  1  0  0  0
M  END
> <minimizedAffinity>
7.29078

> <CNNscore>
0.4907077253

> <CNNaffinity>
6.5389280319

> <CNN_VS>
3.2087025642

> <CNNaffinity_variance>
0.7628248334

$$$$
[H]OC([H])([H])C([H])([H])N([H])C(=O)[C@@]1([H])O[C@@]([H])(n2c([H])nc3c(N([H])C([H])([H])c4c([H])c([H])c([H])c([H])c4C([H])([H])[H])nc([H])nc32)[C@]([H])(O[H])[C@]1([H])O[H]


 36 39  0  0  0  0  0  0  0  0999 V2000
   15.0502   23.9836   -1.1238 C   0  0  0  0  0  0  0  0  0  0  0  0
   14.8258   24.7842   -0.0585 N   0  0  0  0  0  0  0  0  0  0  0  0
   13.8762   24.5185    0.8490 C   0  0  0  0  0  0  0  0  0  0  0  0
   13.1235   23.4210    0.6942 N   0  0  0  0  0  0  0  0  0  0  0  0
   13.2974   22.5920   -0.3366 C   0  0  0  0  0  0  0  0  0  0  0  0
   14.2610   22.8575   -1.2615 C   0  0  0  0  0  0  0  0  0  0  0  0
   14.2291   21.8792   -2.1856 N   0  0  0  0  0  0  0  0  0  0  0  0
   13.2652   20.9995   -1.8655 C   0  0  0  0  0  0  0  0  0  0  0  0
   12.6984   21.4412   -0.7326 N   0  0  0  0  0  0  0  0  0  0  0  0
   11.6258   20.7918   -0.0528 C   0  0  0  0  0  0  0  0  0  0  0  0
   10.6759   20.2480   -0.9140 O   0  0  0  0  0  0  0  0  0  0  0  0
    9.6036   19.9615   -0.0476 C   0  0  0  0  0  0  0  0  0  0  0  0
    9.4404   21.3172    0.6302 C   0  0  0  0  0  0  0  0  0  0  0  0
    8.6578   21.2632    1.7535 O   0  0  0  0  0  0  0  0  0  0  0  0
   10.8987   21.6317    0.9418 C   0  0  0  0  0  0  0  0  0  0  0  0
   11.1207   21.1947    2.2584 O   0  0  0  0  0  0  0  0  0  0  0  0
    8.2948   22.1770    1.9340 H   0  0  0  0  0  0  0  0  0  0  0  0
   11.5371   21.9173    2.8018 H   0  0  0  0  0  0  0  0  0  0  0  0
    8.4117   19.5230   -0.7546 C   0  0  0  0  0  0  0  0  0  0  0  0
    7.9286   18.3885   -0.5464 O   0  0  0  0  0  0  0  0  0  0  0  0
    7.7744   20.3698   -1.6916 N   0  0  0  0  0  0  0  0  0  0  0  0
    8.1582   21.3165   -1.8805 H   0  0  0  0  0  0  0  0  0  0  0  0
    6.5803   19.9555   -2.4127 C   0  0  0  0  0  0  0  0  0  0  0  0
    5.3733   20.6123   -1.8309 C   0  0  0  0  0  0  0  0  0  0  0  0
    5.7629   21.7525   -1.1257 O   0  0  0  0  0  0  0  0  0  0  0  0
    5.0353   22.4436   -1.1096 H   0  0  0  0  0  0  0  0  0  0  0  0
   16.0502   24.2950   -2.0822 N   0  0  0  0  0  0  0  0  0  0  0  0
   16.5242   23.4910   -2.5627 H   0  0  0  0  0  0  0  0  0  0  0  0
   16.4304   25.6327   -2.4125 C   0  0  0  0  0  0  0  0  0  0  0  0
   17.3763   28.1409   -3.3467 C   0  0  0  0  0  0  0  0  0  0  0  0
   16.5323   27.3172   -4.2222 C   0  0  0  0  0  0  0  0  0  0  0  0
   16.2032   27.7638   -5.4656 C   0  0  0  0  0  0  0  0  0  0  0  0
   15.4125   27.0132   -6.3111 C   0  0  0  0  0  0  0  0  0  0  0  0
   14.9355   25.7846   -5.9092 C   0  0  0  0  0  0  0  0  0  0  0  0
   15.2890   25.3593   -4.6374 C   0  0  0  0  0  0  0  0  0  0  0  0
   16.0733   26.0774   -3.7689 C   0  0  0  0  0  0  0  0  0  0  0  0
 30 31  1  0  0  0
 31 32  2  0  0  0
 32 33  1  0  0  0
 33 34  2  0  0  0
 34 35  1  0  0  0
 35 36  2  0  0  0
 36 29  1  0  0  0
 29 27  1  0  0  0
 27  1  1  0  0  0
  1  2  2  0  0  0
  2  3  1  0  0  0
  3  4  2  0  0  0
  4  5  1  0  0  0
  5  6  2  0  0  0
  6  7  1  0  0  0
  7  8  2  0  0  0
  8  9  1  0  0  0
  9 10  1  0  0  0
 10 11  1  0  0  0
 11 12  1  0  0  0
 12 19  1  0  0  0
 19 20  2  0  0  0
 19 21  1  0  0  0
 21 23  1  0  0  0
 23 24  1  0  0  0
 24 25  1  0  0  0
 12 13  1  0  0  0
 13 14  1  0  0  0
 13 15  1  0  0  0
 15 16  1  0  0  0
 36 31  1  0  0  0
  6  1  1  0  0  0
 15 10  1  0  0  0
  9  5  1  0  0  0
 27 28  1  0  0  0
 21 22  1  0  0  0
 25 26  1  0  0  0
 14 17  1  0  0  0
 16 18  1  0  0  0
M  END
> <minimizedAffinity>
-8.92663

> <CNNscore>
0.6064060926

> <CNNaffinity>
7.0329413414

> <CNN_VS>
4.2648186684

> <CNNaffinity_variance>
0.2666823864

$$$$
[H]OC([H])([H])C([H])([H])N([H])C(=O)[C@@]1([H])O[C@@]([H])(n2c([H])nc3c(N([H])C([H])([H])c4c([H])c([H])c([H])c([H])c4C([H])([H])[H])nc([H])nc32)[C@]([H])(O[H])[C@]1([H])O[H]


 36 39  0  0  0  0  0  0  0  0999 V2000
   12.6715   22.3400    1.0297 C   0  0  0  0  0  0  0  0  0  0  0  0
   13.9619   21.9393    1.0074 N   0  0  0  0  0  0  0  0  0  0  0  0
   14.8286   22.3685    0.0798 C   0  0  0  0  0  0  0  0  0  0  0  0
   14.4004   23.2245   -0.8577 N   0  0  0  0  0  0  0  0  0  0  0  0
   13.1383   23.6564   -0.8880 C   0  0  0  0  0  0  0  0  0  0  0  0
   12.2538   23.2233    0.0524 C   0  0  0  0  0  0  0  0  0  0  0  0
   11.0647   23.8017   -0.1998 N   0  0  0  0  0  0  0  0  0  0  0  0
   11.1775   24.5922   -1.2804 C   0  0  0  0  0  0  0  0  0  0  0  0
   12.4493   24.4991   -1.6973 N   0  0  0  0  0  0  0  0  0  0  0  0
   12.9881   25.1867   -2.8247 C   0  0  0  0  0  0  0  0  0  0  0  0
   14.3688   25.3571   -2.7586 O   0  0  0  0  0  0  0  0  0  0  0  0
   14.6110   26.3017   -3.7743 C   0  0  0  0  0  0  0  0  0  0  0  0
   13.6139   27.3833   -3.3742 C   0  0  0  0  0  0  0  0  0  0  0  0
   13.4058   28.3107   -4.3611 O   0  0  0  0  0  0  0  0  0  0  0  0
   12.3860   26.5214   -3.1061 C   0  0  0  0  0  0  0  0  0  0  0  0
   11.6413   26.5194   -4.2975 O   0  0  0  0  0  0  0  0  0  0  0  0
   13.0594   29.1499   -3.9426 H   0  0  0  0  0  0  0  0  0  0  0  0
   10.6928   26.7621   -4.1181 H   0  0  0  0  0  0  0  0  0  0  0  0
   15.9884   26.7657   -3.7933 C   0  0  0  0  0  0  0  0  0  0  0  0
   16.4601   27.3197   -4.8104 O   0  0  0  0  0  0  0  0  0  0  0  0
   16.8225   26.6004   -2.6627 N   0  0  0  0  0  0  0  0  0  0  0  0
   16.4519   26.1429   -1.8068 H   0  0  0  0  0  0  0  0  0  0  0  0
   18.2046   27.0558   -2.6554 C   0  0  0  0  0  0  0  0  0  0  0  0
   18.4268   28.0454   -3.7499 C   0  0  0  0  0  0  0  0  0  0  0  0
   19.7921   28.1239   -4.0312 O   0  0  0  0  0  0  0  0  0  0  0  0
   19.9581   28.3867   -4.9855 H   0  0  0  0  0  0  0  0  0  0  0  0
   11.7669   21.8578    2.0119 N   0  0  0  0  0  0  0  0  0  0  0  0
   11.7755   20.8270    2.2103 H   0  0  0  0  0  0  0  0  0  0  0  0
   10.8625   22.7025    2.7272 C   0  0  0  0  0  0  0  0  0  0  0  0
   11.1141   20.6124    4.6315 C   0  0  0  0  0  0  0  0  0  0  0  0
    9.7778   21.0092    4.1691 C   0  0  0  0  0  0  0  0  0  0  0  0
    8.6751   20.3693    4.6471 C   0  0  0  0  0  0  0  0  0  0  0  0
    7.4067   20.7192    4.2322 C   0  0  0  0  0  0  0  0  0  0  0  0
    7.2295   21.7334    3.3165 C   0  0  0  0  0  0  0  0  0  0  0  0
    8.3728   22.3645    2.8496 C   0  0  0  0  0  0  0  0  0  0  0  0
    9.6499   22.0447    3.2391 C   0  0  0  0  0  0  0  0  0  0  0  0
 30 31  1  0  0  0
 31 32  2  0  0  0
 32 33  1  0  0  0
 33 34  2  0  0  0
 34 35  1  0  0  0
 35 36  2  0  0  0
 36 29  1  0  0  0
 29 27  1  0  0  0
 27  1  1  0  0  0
  1  2  2  0  0  0
  2  3  1  0  0  0
  3  4  2  0  0  0
  4  5  1  0  0  0
  5  6  2  0  0  0
  6  7  1  0  0  0
  7  8  2  0  0  0
  8  9  1  0  0  0
  9 10  1  0  0  0
 10 11  1  0  0  0
 11 12  1  0  0  0
 12 19  1  0  0  0
 19 20  2  0  0  0
 19 21  1  0  0  0
 21 23  1  0  0  0
 23 24  1  0  0  0
 24 25  1  0  0  0
 12 13  1  0  0  0
 13 14  1  0  0  0
 13 15  1  0  0  0
 15 16  1  0  0  0
 36 31  1  0  0  0
  6  1  1  0  0  0
 15 10  1  0  0  0
  9  5  1  0  0  0
 27 28  1  0  0  0
 21 22  1  0  0  0
 25 26  1  0  0  0
 14 17  1  0  0  0
 16 18  1  0  0  0
M  END
> <minimizedAffinity>
-1.52674

> <CNNscore>
0.4504801333

> <CNNaffinity>
6.6308555603

> <CNN_VS>
2.9870686531

> <CNNaffinity_variance>
0.7088926435

$$$$
[H]OC([H])([H])C([H])([H])N([H])C(=O)[C@@]1([H])O[C@@]([H])(n2c([H])nc3c(N([H])C([H])([H])c4c([H])c([H])c([H])c([H])c4C([H])([H])[H])nc([H])nc32)[C@]([H])(O[H])[C@]1([H])O[H]


 36 39  0  0  0  0  0  0  0  0999 V2000
   13.7625   23.6931   -1.5502 C   0  0  0  0  0  0  0  0  0  0  0  0
   14.8047   23.4554   -0.7235 N   0  0  0  0  0  0  0  0  0  0  0  0
   14.6442   23.2602    0.5925 C   0  0  0  0  0  0  0  0  0  0  0  0
   13.4073   23.3024    1.1059 N   0  0  0  0  0  0  0  0  0  0  0  0
   12.3388   23.5327    0.3408 C   0  0  0  0  0  0  0  0  0  0  0  0
   12.4966   23.7316   -0.9971 C   0  0  0  0  0  0  0  0  0  0  0  0
   11.2788   23.9397   -1.5315 N   0  0  0  0  0  0  0  0  0  0  0  0
   10.3527   23.8769   -0.5600 C   0  0  0  0  0  0  0  0  0  0  0  0
   11.0078   23.6275    0.5840 N   0  0  0  0  0  0  0  0  0  0  0  0
   10.3891   23.4853    1.8612 C   0  0  0  0  0  0  0  0  0  0  0  0
    9.7954   22.2397    2.0507 O   0  0  0  0  0  0  0  0  0  0  0  0
    9.0079   22.4461    3.1995 C   0  0  0  0  0  0  0  0  0  0  0  0
    8.2325   23.6866    2.7705 C   0  0  0  0  0  0  0  0  0  0  0  0
    7.5941   24.3057    3.8129 O   0  0  0  0  0  0  0  0  0  0  0  0
    9.3707   24.5216    2.1962 C   0  0  0  0  0  0  0  0  0  0  0  0
    9.8019   25.3631    3.2352 O   0  0  0  0  0  0  0  0  0  0  0  0
    6.8433   24.8548    3.4465 H   0  0  0  0  0  0  0  0  0  0  0  0
    9.8348   26.3095    2.9287 H   0  0  0  0  0  0  0  0  0  0  0  0
    8.1545   21.3104    3.5073 C   0  0  0  0  0  0  0  0  0  0  0  0
    8.6122   20.3142    4.1090 O   0  0  0  0  0  0  0  0  0  0  0  0
    6.7903   21.3089    3.1330 N   0  0  0  0  0  0  0  0  0  0  0  0
    6.3887   22.1258    2.6325 H   0  0  0  0  0  0  0  0  0  0  0  0
    5.9145   20.1851    3.4290 C   0  0  0  0  0  0  0  0  0  0  0  0
    5.2777   19.6842    2.1759 C   0  0  0  0  0  0  0  0  0  0  0  0
    6.2649   19.1846    1.3242 O   0  0  0  0  0  0  0  0  0  0  0  0
    5.9053   18.4650    0.7241 H   0  0  0  0  0  0  0  0  0  0  0  0
   13.9588   23.9147   -2.9387 N   0  0  0  0  0  0  0  0  0  0  0  0
   13.1022   23.9812   -3.5419 H   0  0  0  0  0  0  0  0  0  0  0  0
   15.2502   24.0480   -3.5367 C   0  0  0  0  0  0  0  0  0  0  0  0
   16.7910   25.9459   -2.0936 C   0  0  0  0  0  0  0  0  0  0  0  0
   16.2859   26.2928   -3.4284 C   0  0  0  0  0  0  0  0  0  0  0  0
   16.5505   27.5188   -3.9581 C   0  0  0  0  0  0  0  0  0  0  0  0
   16.0902   27.8741   -5.2093 C   0  0  0  0  0  0  0  0  0  0  0  0
   15.3459   26.9858   -5.9545 C   0  0  0  0  0  0  0  0  0  0  0  0
   15.0943   25.7460   -5.3861 C   0  0  0  0  0  0  0  0  0  0  0  0
   15.5355   25.3569   -4.1456 C   0  0  0  0  0  0  0  0  0  0  0  0
 30 31  1  0  0  0
 31 32  2  0  0  0
 32 33  1  0  0  0
 33 34  2  0  0  0
 34 35  1  0  0  0
 35 36  2  0  0  0
 36 29  1  0  0  0
 29 27  1  0  0  0
 27  1  1  0  0  0
  1  2  2  0  0  0
  2  3  1  0  0  0
  3  4  2  0  0  0
  4  5  1  0  0  0
  5  6  2  0  0  0
  6  7  1  0  0  0
  7  8  2  0  0  0
  8  9  1  0  0  0
  9 10  1  0  0  0
 10 11  1  0  0  0
 11 12  1  0  0  0
 12 19  1  0  0  0
 19 20  2  0  0  0
 19 21  1  0  0  0
 21 23  1  0  0  0
 23 24  1  0  0  0
 24 25  1  0  0  0
 12 13  1  0  0  0
 13 14  1  0  0  0
 13 15  1  0  0  0
 15 16  1  0  0  0
 36 31  1  0  0  0
  6  1  1  0  0  0
 15 10  1  0  0  0
  9  5  1  0  0  0
 27 28  1  0  0  0
 21 22  1  0  0  0
 25 26  1  0  0  0
 14 17  1  0  0  0
 16 18  1  0  0  0
M  END
> <minimizedAffinity>
-8.81222

> <CNNscore>
0.3762923777

> <CNNaffinity>
6.3645820618

> <CNN_VS>
2.3949437141

> <CNNaffinity_variance>
0.3113394678

$$$$
[H]OC([H])([H])C([H])([H])N([H])C(=O)[C@@]1([H])O[C@@]([H])(n2c([H])nc3c(N([H])C([H])([H])c4c([H])c([H])c([H])c([H])c4C([H])([H])[H])nc([H])nc32)[C@]([H])(O[H])[C@]1([H])O[H]


 36 39  0  0  0  0  0  0  0  0999 V2000
   14.3939   22.8693   -2.3966 C   0  0  0  0  0  0  0  0  0  0  0  0
   14.3761   21.5367   -2.1732 N   0  0  0  0  0  0  0  0  0  0  0  0
   13.4964   20.9621   -1.3415 C   0  0  0  0  0  0  0  0  0  0  0  0
   12.6038   21.7363   -0.7098 N   0  0  0  0  0  0  0  0  0  0  0  0
   12.5715   23.0580   -0.8894 C   0  0  0  0  0  0  0  0  0  0  0  0
   13.4633   23.6466   -1.7334 C   0  0  0  0  0  0  0  0  0  0  0  0
   13.2200   24.9706   -1.7356 N   0  0  0  0  0  0  0  0  0  0  0  0
   12.1926   25.2329   -0.9104 C   0  0  0  0  0  0  0  0  0  0  0  0
   11.7998   24.0581   -0.3953 N   0  0  0  0  0  0  0  0  0  0  0  0
   10.7298   23.8942    0.5334 C   0  0  0  0  0  0  0  0  0  0  0  0
   11.1493   23.4514    1.7855 O   0  0  0  0  0  0  0  0  0  0  0  0
    9.9400   23.0705    2.3979 C   0  0  0  0  0  0  0  0  0  0  0  0
    9.3804   22.1422    1.3259 C   0  0  0  0  0  0  0  0  0  0  0  0
    8.0548   21.8489    1.5108 O   0  0  0  0  0  0  0  0  0  0  0  0
    9.6289   22.9934    0.0864 C   0  0  0  0  0  0  0  0  0  0  0  0
    8.4374   23.6995   -0.1490 O   0  0  0  0  0  0  0  0  0  0  0  0
    7.8470   20.9957    1.0331 H   0  0  0  0  0  0  0  0  0  0  0  0
    8.1450   23.5881   -1.0939 H   0  0  0  0  0  0  0  0  0  0  0  0
   10.1412   22.4157    3.6800 C   0  0  0  0  0  0  0  0  0  0  0  0
    9.5048   22.7853    4.6910 O   0  0  0  0  0  0  0  0  0  0  0  0
   11.0601   21.3479    3.8100 N   0  0  0  0  0  0  0  0  0  0  0  0
   11.5997   21.0242    2.9834 H   0  0  0  0  0  0  0  0  0  0  0  0
   11.2803   20.6754    5.0814 C   0  0  0  0  0  0  0  0  0  0  0  0
   10.5516   19.3735    5.1086 C   0  0  0  0  0  0  0  0  0  0  0  0
   11.4304   18.3452    4.7626 O   0  0  0  0  0  0  0  0  0  0  0  0
   11.1624   17.4736    5.1818 H   0  0  0  0  0  0  0  0  0  0  0  0
   15.3472   23.4579   -3.2686 N   0  0  0  0  0  0  0  0  0  0  0  0
   16.3332   23.1013   -3.2161 H   0  0  0  0  0  0  0  0  0  0  0  0
   15.0251   24.4961   -4.1967 C   0  0  0  0  0  0  0  0  0  0  0  0
   14.8820   26.4871   -6.2151 C   0  0  0  0  0  0  0  0  0  0  0  0
   15.6943   26.7329   -5.0164 C   0  0  0  0  0  0  0  0  0  0  0  0
   16.3771   27.9037   -4.8861 C   0  0  0  0  0  0  0  0  0  0  0  0
   17.1483   28.1640   -3.7721 C   0  0  0  0  0  0  0  0  0  0  0  0
   17.2435   27.2344   -2.7595 C   0  0  0  0  0  0  0  0  0  0  0  0
   16.5361   26.0529   -2.9234 C   0  0  0  0  0  0  0  0  0  0  0  0
   15.7588   25.7588   -4.0162 C   0  0  0  0  0  0  0  0  0  0  0  0
 30 31  1  0  0  0
 31 32  2  0  0  0
 32 33  1  0  0  0
 33 34  2  0  0  0
 34 35  1  0  0  0
 35 36  2  0  0  0
 36 29  1  0  0  0
 29 27  1  0  0  0
 27  1  1  0  0  0
  1  2  2  0  0  0
  2  3  1  0  0  0
  3  4  2  0  0  0
  4  5  1  0  0  0
  5  6  2  0  0  0
  6  7  1  0  0  0
  7  8  2  0  0  0
  8  9  1  0  0  0
  9 10  1  0  0  0
 10 11  1  0  0  0
 11 12  1  0  0  0
 12 19  1  0  0  0
 19 20  2  0  0  0
 19 21  1  0  0  0
 21 23  1  0  0  0
 23 24  1  0  0  0
 24 25  1  0  0  0
 12 13  1  0  0  0
 13 14  1  0  0  0
 13 15  1  0  0  0
 15 16  1  0  0  0
 36 31  1  0  0  0
  6  1  1  0  0  0
 15 10  1  0  0  0
  9  5  1  0  0  0
 27 28  1  0  0  0
 21 22  1  0  0  0
 25 26  1  0  0  0
 14 17  1  0  0  0
 16 18  1  0  0  0
M  END
> <minimizedAffinity>
-10.05332

> <CNNscore>
0.3688270748

> <CNNaffinity>
6.3720788956

> <CNN_VS>
2.3501951694

> <CNNaffinity_variance>
0.2869601548

$$$$
[H]OC([H])([H])C([H])([H])N([H])C(=O)[C@@]1([H])O[C@@]([H])(n2c([H])nc3c(N([H])C([H])([H])c4c([H])c([H])c([H])c([H])c4C([H])([H])[H])nc([H])nc32)[C@]([H])(O[H])[C@]1([H])O[H]


 36 39  0  0  0  0  0  0  0  0999 V2000
   15.5077   25.4729   -4.0274 C   0  0  0  0  0  0  0  0  0  0  0  0
   16.1688   25.8745   -5.1355 N   0  0  0  0  0  0  0  0  0  0  0  0
   15.6595   26.7772   -5.9849 C   0  0  0  0  0  0  0  0  0  0  0  0
   14.4529   27.2993   -5.7261 N   0  0  0  0  0  0  0  0  0  0  0  0
   13.7519   26.9427   -4.6484 C   0  0  0  0  0  0  0  0  0  0  0  0
   14.2651   26.0258   -3.7821 C   0  0  0  0  0  0  0  0  0  0  0  0
   13.3709   25.8452   -2.7923 N   0  0  0  0  0  0  0  0  0  0  0  0
   12.3018   26.6285   -3.0134 C   0  0  0  0  0  0  0  0  0  0  0  0
   12.5410   27.2980   -4.1512 N   0  0  0  0  0  0  0  0  0  0  0  0
   11.6491   28.2406   -4.7432 C   0  0  0  0  0  0  0  0  0  0  0  0
   10.9254   28.9771   -3.8086 O   0  0  0  0  0  0  0  0  0  0  0  0
    9.9268   29.5790   -4.5980 C   0  0  0  0  0  0  0  0  0  0  0  0
    9.3711   28.3487   -5.3064 C   0  0  0  0  0  0  0  0  0  0  0  0
    8.5756   28.6615   -6.3773 O   0  0  0  0  0  0  0  0  0  0  0  0
   10.6734   27.6719   -5.7168 C   0  0  0  0  0  0  0  0  0  0  0  0
   10.9374   28.0947   -7.0303 O   0  0  0  0  0  0  0  0  0  0  0  0
    7.9717   27.8869   -6.5634 H   0  0  0  0  0  0  0  0  0  0  0  0
   11.1161   27.3134   -7.6206 H   0  0  0  0  0  0  0  0  0  0  0  0
    8.9341   30.2858   -3.8057 C   0  0  0  0  0  0  0  0  0  0  0  0
    9.2700   31.2318   -3.0599 O   0  0  0  0  0  0  0  0  0  0  0  0
    7.5691   29.9185   -3.8620 N   0  0  0  0  0  0  0  0  0  0  0  0
    7.2673   29.1357   -4.4747 H   0  0  0  0  0  0  0  0  0  0  0  0
    6.5554   30.6094   -3.0794 C   0  0  0  0  0  0  0  0  0  0  0  0
    6.3711   29.9324   -1.7625 C   0  0  0  0  0  0  0  0  0  0  0  0
    5.3112   29.0280   -1.8527 O   0  0  0  0  0  0  0  0  0  0  0  0
    5.4219   28.2640   -1.2114 H   0  0  0  0  0  0  0  0  0  0  0  0
   16.0597   24.5017   -3.1513 N   0  0  0  0  0  0  0  0  0  0  0  0
   16.7554   23.8277   -3.5558 H   0  0  0  0  0  0  0  0  0  0  0  0
   15.7128   24.4063   -1.7679 C   0  0  0  0  0  0  0  0  0  0  0  0
   14.3257   24.4686    0.7081 C   0  0  0  0  0  0  0  0  0  0  0  0
   14.1495   23.3184   -0.1881 C   0  0  0  0  0  0  0  0  0  0  0  0
   13.3340   22.2909    0.1767 C   0  0  0  0  0  0  0  0  0  0  0  0
   13.1480   21.1971   -0.6434 C   0  0  0  0  0  0  0  0  0  0  0  0
   13.7908   21.1225   -1.8598 C   0  0  0  0  0  0  0  0  0  0  0  0
   14.6141   22.1852   -2.2010 C   0  0  0  0  0  0  0  0  0  0  0  0
   14.8233   23.2894   -1.4123 C   0  0  0  0  0  0  0  0  0  0  0  0
 30 31  1  0  0  0
 31 32  2  0  0  0
 32 33  1  0  0  0
 33 34  2  0  0  0
 34 35  1  0  0  0
 35 36  2  0  0  0
 36 29  1  0  0  0
 29 27  1  0  0  0
 27  1  1  0  0  0
  1  2  2  0  0  0
  2  3  1  0  0  0
  3  4  2  0  0  0
  4  5  1  0  0  0
  5  6  2  0  0  0
  6  7  1  0  0  0
  7  8  2  0  0  0
  8  9  1  0  0  0
  9 10  1  0  0  0
 10 11  1  0  0  0
 11 12  1  0  0  0
 12 19  1  0  0  0
 19 20  2  0  0  0
 19 21  1  0  0  0
 21 23  1  0  0  0
 23 24  1  0  0  0
 24 25  1  0  0  0
 12 13  1  0  0  0
 13 14  1  0  0  0
 13 15  1  0  0  0
 15 16  1  0  0  0
 36 31  1  0  0  0
  6  1  1  0  0  0
 15 10  1  0  0  0
  9  5  1  0  0  0
 27 28  1  0  0  0
 21 22  1  0  0  0
 25 26  1  0  0  0
 14 17  1  0  0  0
 16 18  1  0  0  0
M  END
> <minimizedAffinity>
17.15188

> <CNNscore>
0.3649873734

> <CNNaffinity>
6.0714025497

> <CNN_VS>
2.2159852982

> <CNNaffinity_variance>
0.1990007162

$$$$
[H]OC([H])([H])C([H])([H])N([H])C(=O)[C@@]1([H])O[C@@]([H])(n2c([H])nc3c(N([H])C([H])([H])c4c([H])c([H])c([H])c([H])c4C([H])([H])[H])nc([H])nc32)[C@]([H])(O[H])[C@]1([H])O[H]


 36 39  0  0  0  0  0  0  0  0999 V2000
   13.9645   22.4676    0.2369 C   0  0  0  0  0  0  0  0  0  0  0  0
   14.1477   23.5477    1.0280 N   0  0  0  0  0  0  0  0  0  0  0  0
   14.6516   24.6987    0.5620 C   0  0  0  0  0  0  0  0  0  0  0  0
   14.9851   24.7808   -0.7330 N   0  0  0  0  0  0  0  0  0  0  0  0
   14.8276   23.7487   -1.5637 C   0  0  0  0  0  0  0  0  0  0  0  0
   14.3159   22.5769   -1.0952 C   0  0  0  0  0  0  0  0  0  0  0  0
   14.2606   21.7088   -2.1225 N   0  0  0  0  0  0  0  0  0  0  0  0
   14.7267   22.3062   -3.2321 C   0  0  0  0  0  0  0  0  0  0  0  0
   15.0722   23.5549   -2.8837 N   0  0  0  0  0  0  0  0  0  0  0  0
   15.6157   24.5270   -3.7747 C   0  0  0  0  0  0  0  0  0  0  0  0
   15.2043   25.8268   -3.4902 O   0  0  0  0  0  0  0  0  0  0  0  0
   15.5906   26.5315   -4.6463 C   0  0  0  0  0  0  0  0  0  0  0  0
   14.9397   25.6628   -5.7167 C   0  0  0  0  0  0  0  0  0  0  0  0
   15.3989   25.9346   -6.9787 O   0  0  0  0  0  0  0  0  0  0  0  0
   15.3553   24.2824   -5.2223 C   0  0  0  0  0  0  0  0  0  0  0  0
   16.5312   23.9550   -5.9180 O   0  0  0  0  0  0  0  0  0  0  0  0
   14.7156   25.6265   -7.6403 H   0  0  0  0  0  0  0  0  0  0  0  0
   16.4523   23.0548   -6.3351 H   0  0  0  0  0  0  0  0  0  0  0  0
   15.1162   27.9055   -4.6517 C   0  0  0  0  0  0  0  0  0  0  0  0
   15.7581   28.7989   -5.2464 O   0  0  0  0  0  0  0  0  0  0  0  0
   13.9197   28.2597   -3.9851 N   0  0  0  0  0  0  0  0  0  0  0  0
   13.3702   27.5340   -3.4847 H   0  0  0  0  0  0  0  0  0  0  0  0
   13.4226   29.6273   -3.9752 C   0  0  0  0  0  0  0  0  0  0  0  0
   11.9486   29.6380   -3.7436 C   0  0  0  0  0  0  0  0  0  0  0  0
   11.4781   30.9501   -3.8239 O   0  0  0  0  0  0  0  0  0  0  0  0
   10.5211   30.9817   -4.1246 H   0  0  0  0  0  0  0  0  0  0  0  0
   13.4456   21.2527    0.7569 N   0  0  0  0  0  0  0  0  0  0  0  0
   14.1234   20.5978    1.2191 H   0  0  0  0  0  0  0  0  0  0  0  0
   12.0646   20.8923    0.6779 C   0  0  0  0  0  0  0  0  0  0  0  0
   10.5706   22.1723   -1.3685 C   0  0  0  0  0  0  0  0  0  0  0  0
   10.3837   22.5879    0.0277 C   0  0  0  0  0  0  0  0  0  0  0  0
    9.5069   23.5851    0.3288 C   0  0  0  0  0  0  0  0  0  0  0  0
    9.3093   23.9975    1.6304 C   0  0  0  0  0  0  0  0  0  0  0  0
   10.0028   23.4021    2.6615 C   0  0  0  0  0  0  0  0  0  0  0  0
   10.8877   22.3902    2.3209 C   0  0  0  0  0  0  0  0  0  0  0  0
   11.1104   21.9527    1.0386 C   0  0  0  0  0  0  0  0  0  0  0  0
 30 31  1  0  0  0
 31 32  2  0  0  0
 32 33  1  0  0  0
 33 34  2  0  0  0
 34 35  1  0  0  0
 35 36  2  0  0  0
 36 29  1  0  0  0
 29 27  1  0  0  0
 27  1  1  0  0  0
  1  2  2  0  0  0
  2  3  1  0  0  0
  3  4  2  0  0  0
  4  5  1  0  0  0
  5  6  2  0  0  0
  6  7  1  0  0  0
  7  8  2  0  0  0
  8  9  1  0  0  0
  9 10  1  0  0  0
 10 11  1  0  0  0
 11 12  1  0  0  0
 12 19  1  0  0  0
 19 20  2  0  0  0
 19 21  1  0  0  0
 21 23  1  0  0  0
 23 24  1  0  0  0
 24 25  1  0  0  0
 12 13  1  0  0  0
 13 14  1  0  0  0
 13 15  1  0  0  0
 15 16  1  0  0  0
 36 31  1  0  0  0
  6  1  1  0  0  0
 15 10  1  0  0  0
  9  5  1  0  0  0
 27 28  1  0  0  0
 21 22  1  0  0  0
 25 26  1  0  0  0
 14 17  1  0  0  0
 16 18  1  0  0  0
M  END
> <minimizedAffinity>
0.75183

> <CNNscore>
0.3635932207

> <CNNaffinity>
6.8951559067

> <CNN_VS>
2.5070319176

> <CNNaffinity_variance>
0.6062223911

$$$$
[H]OC([H])([H])C([H])([H])N([H])C(=O)[C@@]1([H])O[C@@]([H])(n2c([H])nc3c(N([H])C([H])([H])c4c([H])c([H])c([H])c([H])c4C([H])([H])[H])nc([H])nc32)[C@]([H])(O[H])[C@]1([H])O[H]


 36 39  0  0  0  0  0  0  0  0999 V2000
   14.7369   23.9471   -0.1167 C   0  0  0  0  0  0  0  0  0  0  0  0
   15.2290   22.6951    0.0109 N   0  0  0  0  0  0  0  0  0  0  0  0
   14.4974   21.6851    0.5013 C   0  0  0  0  0  0  0  0  0  0  0  0
   13.2343   21.9257    0.8780 N   0  0  0  0  0  0  0  0  0  0  0  0
   12.6923   23.1406    0.7763 C   0  0  0  0  0  0  0  0  0  0  0  0
   13.4316   24.1702    0.2785 C   0  0  0  0  0  0  0  0  0  0  0  0
   12.6603   25.2735    0.2816 N   0  0  0  0  0  0  0  0  0  0  0  0
   11.4478   24.9642    0.7711 C   0  0  0  0  0  0  0  0  0  0  0  0
   11.4735   23.6571    1.0722 N   0  0  0  0  0  0  0  0  0  0  0  0
   10.3782   22.9273    1.6217 C   0  0  0  0  0  0  0  0  0  0  0  0
    9.5771   22.3241    0.6552 O   0  0  0  0  0  0  0  0  0  0  0  0
    8.4342   21.9548    1.3900 C   0  0  0  0  0  0  0  0  0  0  0  0
    8.0959   23.2899    2.0435 C   0  0  0  0  0  0  0  0  0  0  0  0
    7.1931   23.1710    3.0674 O   0  0  0  0  0  0  0  0  0  0  0  0
    9.4813   23.7051    2.5239 C   0  0  0  0  0  0  0  0  0  0  0  0
    9.5787   23.2744    3.8576 O   0  0  0  0  0  0  0  0  0  0  0  0
    6.7468   24.0551    3.2038 H   0  0  0  0  0  0  0  0  0  0  0  0
    9.8756   24.0204    4.4458 H   0  0  0  0  0  0  0  0  0  0  0  0
    7.3677   21.4381    0.5483 C   0  0  0  0  0  0  0  0  0  0  0  0
    6.2673   22.0282    0.4801 O   0  0  0  0  0  0  0  0  0  0  0  0
    7.5528   20.2585   -0.2104 N   0  0  0  0  0  0  0  0  0  0  0  0
    8.4588   19.7519   -0.1693 H   0  0  0  0  0  0  0  0  0  0  0  0
    6.5019   19.7202   -1.0609 C   0  0  0  0  0  0  0  0  0  0  0  0
    6.9610   19.6729   -2.4799 C   0  0  0  0  0  0  0  0  0  0  0  0
    8.1764   20.3505   -2.5947 O   0  0  0  0  0  0  0  0  0  0  0  0
    8.7315   19.9883   -3.3483 H   0  0  0  0  0  0  0  0  0  0  0  0
   15.5368   25.0055   -0.6225 N   0  0  0  0  0  0  0  0  0  0  0  0
   15.4089   25.9543   -0.1920 H   0  0  0  0  0  0  0  0  0  0  0  0
   16.4902   24.8346   -1.6736 C   0  0  0  0  0  0  0  0  0  0  0  0
   15.1363   23.4787   -3.7682 C   0  0  0  0  0  0  0  0  0  0  0  0
   15.5352   24.8796   -3.9560 C   0  0  0  0  0  0  0  0  0  0  0  0
   15.2630   25.5125   -5.1304 C   0  0  0  0  0  0  0  0  0  0  0  0
   15.6247   26.8278   -5.3369 C   0  0  0  0  0  0  0  0  0  0  0  0
   16.2754   27.5335   -4.3484 C   0  0  0  0  0  0  0  0  0  0  0  0
   16.5377   26.8598   -3.1650 C   0  0  0  0  0  0  0  0  0  0  0  0
   16.1930   25.5530   -2.9229 C   0  0  0  0  0  0  0  0  0  0  0  0
 30 31  1  0  0  0
 31 32  2  0  0  0
 32 33  1  0  0  0
 33 34  2  0  0  0
 34 35  1  0  0  0
 35 36  2  0  0  0
 36 29  1  0  0  0
 29 27  1  0  0  0
 27  1  1  0  0  0
  1  2  2  0  0  0
  2  3  1  0  0  0
  3  4  2  0  0  0
  4  5  1  0  0  0
  5  6  2  0  0  0
  6  7  1  0  0  0
  7  8  2  0  0  0
  8  9  1  0  0  0
  9 10  1  0  0  0
 10 11  1  0  0  0
 11 12  1  0  0  0
 12 19  1  0  0  0
 19 20  2  0  0  0
 19 21  1  0  0  0
 21 23  1  0  0  0
 23 24  1  0  0  0
 24 25  1  0  0  0
 12 13  1  0  0  0
 13 14  1  0  0  0
 13 15  1  0  0  0
 15 16  1  0  0  0
 36 31  1  0  0  0
  6  1  1  0  0  0
 15 10  1  0  0  0
  9  5  1  0  0  0
 27 28  1  0  0  0
 21 22  1  0  0  0
 25 26  1  0  0  0
 14 17  1  0  0  0
 16 18  1  0  0  0
M  END
> <minimizedAffinity>
-9.23274

> <CNNscore>
0.2877874374

> <CNNaffinity>
6.3422684669

> <CNN_VS>
1.8252252340

> <CNNaffinity_variance>
0.3426217437

$$$$
[H]OC([H])([H])C([H])([H])N([H])C(=O)[C@@]1([H])O[C@@]([H])(n2c([H])nc3c(N([H])C([H])([H])c4c([H])c([H])c([H])c([H])c4C([H])([H])[H])nc([H])nc32)[C@]([H])(O[H])[C@]1([H])O[H]


 36 39  0  0  0  0  0  0  0  0999 V2000
   14.1230   22.8970   -1.8943 C   0  0  0  0  0  0  0  0  0  0  0  0
   14.1258   21.5505   -2.0081 N   0  0  0  0  0  0  0  0  0  0  0  0
   13.2436   20.7759   -1.3620 C   0  0  0  0  0  0  0  0  0  0  0  0
   12.3273   21.3571   -0.5760 N   0  0  0  0  0  0  0  0  0  0  0  0
   12.2740   22.6815   -0.4235 C   0  0  0  0  0  0  0  0  0  0  0  0
   13.1682   23.4730   -1.0779 C   0  0  0  0  0  0  0  0  0  0  0  0
   12.9010   24.7528   -0.7571 N   0  0  0  0  0  0  0  0  0  0  0  0
   11.8562   24.7885    0.0870 C   0  0  0  0  0  0  0  0  0  0  0  0
   11.4767   23.5174    0.2875 N   0  0  0  0  0  0  0  0  0  0  0  0
   10.3953   23.1139    1.1254 C   0  0  0  0  0  0  0  0  0  0  0  0
    9.4215   22.3791    0.4535 O   0  0  0  0  0  0  0  0  0  0  0  0
    8.3522   22.3759    1.3695 C   0  0  0  0  0  0  0  0  0  0  0  0
    8.2326   23.8709    1.6431 C   0  0  0  0  0  0  0  0  0  0  0  0
    7.4619   24.1542    2.7400 O   0  0  0  0  0  0  0  0  0  0  0  0
    9.7022   24.2180    1.8492 C   0  0  0  0  0  0  0  0  0  0  0  0
    9.9280   24.1588    3.2346 O   0  0  0  0  0  0  0  0  0  0  0  0
    7.1253   25.0921    2.6599 H   0  0  0  0  0  0  0  0  0  0  0  0
   10.3695   24.9919    3.5534 H   0  0  0  0  0  0  0  0  0  0  0  0
    7.1410   21.7921    0.8173 C   0  0  0  0  0  0  0  0  0  0  0  0
    6.0830   21.7703    1.4837 O   0  0  0  0  0  0  0  0  0  0  0  0
    7.1342   21.2373   -0.4841 N   0  0  0  0  0  0  0  0  0  0  0  0
    8.0016   21.2445   -1.0557 H   0  0  0  0  0  0  0  0  0  0  0  0
    5.9356   20.6470   -1.0605 C   0  0  0  0  0  0  0  0  0  0  0  0
    6.2765   19.9036   -2.3086 C   0  0  0  0  0  0  0  0  0  0  0  0
    7.6028   20.1678   -2.6557 O   0  0  0  0  0  0  0  0  0  0  0  0
    8.0105   19.4050   -3.1647 H   0  0  0  0  0  0  0  0  0  0  0  0
   15.0791   23.6962   -2.5745 N   0  0  0  0  0  0  0  0  0  0  0  0
   16.0894   23.5542   -2.3273 H   0  0  0  0  0  0  0  0  0  0  0  0
   14.7284   24.6675   -3.5629 C   0  0  0  0  0  0  0  0  0  0  0  0
   14.5357   26.4142   -5.7923 C   0  0  0  0  0  0  0  0  0  0  0  0
   15.5128   26.7013   -4.7340 C   0  0  0  0  0  0  0  0  0  0  0  0
   16.3217   27.7920   -4.8332 C   0  0  0  0  0  0  0  0  0  0  0  0
   17.2490   28.0884   -3.8556 C   0  0  0  0  0  0  0  0  0  0  0  0
   17.3759   27.2777   -2.7487 C   0  0  0  0  0  0  0  0  0  0  0  0
   16.5374   26.1753   -2.6785 C   0  0  0  0  0  0  0  0  0  0  0  0
   15.6032   25.8488   -3.6302 C   0  0  0  0  0  0  0  0  0  0  0  0
 30 31  1  0  0  0
 31 32  2  0  0  0
 32 33  1  0  0  0
 33 34  2  0  0  0
 34 35  1  0  0  0
 35 36  2  0  0  0
 36 29  1  0  0  0
 29 27  1  0  0  0
 27  1  1  0  0  0
  1  2  2  0  0  0
  2  3  1  0  0  0
  3  4  2  0  0  0
  4  5  1  0  0  0
  5  6  2  0  0  0
  6  7  1  0  0  0
  7  8  2  0  0  0
  8  9  1  0  0  0
  9 10  1  0  0  0
 10 11  1  0  0  0
 11 12  1  0  0  0
 12 19  1  0  0  0
 19 20  2  0  0  0
 19 21  1  0  0  0
 21 23  1  0  0  0
 23 24  1  0  0  0
 24 25  1  0  0  0
 12 13  1  0  0  0
 13 14  1  0  0  0
 13 15  1  0  0  0
 15 16  1  0  0  0
 36 31  1  0  0  0
  6  1  1  0  0  0
 15 10  1  0  0  0
  9  5  1  0  0  0
 27 28  1  0  0  0
 21 22  1  0  0  0
 25 26  1  0  0  0
 14 17  1  0  0  0
 16 18  1  0  0  0
M  END
> <minimizedAffinity>
-9.92906

> <CNNscore>
0.2417202294

> <CNNaffinity>
6.2444562912

> <CNN_VS>
1.5094114542

> <CNNaffinity_variance>
0.7166730165

$$$$
[H]OC([H])([H])C([H])([H])N([H])C(=O)[C@@]1([H])O[C@@]([H])(n2c([H])nc3c(N([H])C([H])([H])c4c([H])c([H])c([H])c([H])c4C([H])([H])[H])nc([H])nc32)[C@]([H])(O[H])[C@]1([H])O[H]


 36 39  0  0  0  0  0  0  0  0999 V2000
   13.5212   24.4008   -1.2330 C   0  0  0  0  0  0  0  0  0  0  0  0
   12.3865   24.9344   -1.7368 N   0  0  0  0  0  0  0  0  0  0  0  0
   11.1704   24.5403   -1.3347 C   0  0  0  0  0  0  0  0  0  0  0  0
   11.0771   23.5841   -0.4008 N   0  0  0  0  0  0  0  0  0  0  0  0
   12.1609   23.0194    0.1343 C   0  0  0  0  0  0  0  0  0  0  0  0
   13.3989   23.4163   -0.2709 C   0  0  0  0  0  0  0  0  0  0  0  0
   14.3089   22.6998    0.4151 N   0  0  0  0  0  0  0  0  0  0  0  0
   13.6732   21.8571    1.2464 C   0  0  0  0  0  0  0  0  0  0  0  0
   12.3584   22.0574    1.0700 N   0  0  0  0  0  0  0  0  0  0  0  0
   11.3284   21.3582    1.7662 C   0  0  0  0  0  0  0  0  0  0  0  0
   10.4360   22.2019    2.4230 O   0  0  0  0  0  0  0  0  0  0  0  0
    9.7379   21.3154    3.2651 C   0  0  0  0  0  0  0  0  0  0  0  0
   10.9096   20.6316    3.9604 C   0  0  0  0  0  0  0  0  0  0  0  0
   10.5443   19.4932    4.6299 O   0  0  0  0  0  0  0  0  0  0  0  0
   11.7996   20.3478    2.7563 C   0  0  0  0  0  0  0  0  0  0  0  0
   11.5011   19.0367    2.3491 O   0  0  0  0  0  0  0  0  0  0  0  0
   11.2281   19.3037    5.3342 H   0  0  0  0  0  0  0  0  0  0  0  0
   12.3344   18.5000    2.2579 H   0  0  0  0  0  0  0  0  0  0  0  0
    8.8424   21.9999    4.1830 C   0  0  0  0  0  0  0  0  0  0  0  0
    9.1828   23.0762    4.7212 O   0  0  0  0  0  0  0  0  0  0  0  0
    7.5690   21.4633    4.4856 N   0  0  0  0  0  0  0  0  0  0  0  0
    7.2653   20.5704    4.0501 H   0  0  0  0  0  0  0  0  0  0  0  0
    6.6536   22.1284    5.4007 C   0  0  0  0  0  0  0  0  0  0  0  0
    5.3413   21.4184    5.4232 C   0  0  0  0  0  0  0  0  0  0  0  0
    5.5429   20.0664    5.1386 O   0  0  0  0  0  0  0  0  0  0  0  0
    4.8395   19.4905    5.5639 H   0  0  0  0  0  0  0  0  0  0  0  0
   14.7987   24.8218   -1.6875 N   0  0  0  0  0  0  0  0  0  0  0  0
   15.3627   25.4301   -1.0442 H   0  0  0  0  0  0  0  0  0  0  0  0
   15.3372   24.4579   -2.9606 C   0  0  0  0  0  0  0  0  0  0  0  0
   17.1232   26.5800   -2.3563 C   0  0  0  0  0  0  0  0  0  0  0  0
   16.3688   26.6095   -3.6160 C   0  0  0  0  0  0  0  0  0  0  0  0
   16.5230   27.6532   -4.4766 C   0  0  0  0  0  0  0  0  0  0  0  0
   15.8287   27.7094   -5.6676 C   0  0  0  0  0  0  0  0  0  0  0  0
   14.9565   26.7000   -6.0123 C   0  0  0  0  0  0  0  0  0  0  0  0
   14.8225   25.6520   -5.1140 C   0  0  0  0  0  0  0  0  0  0  0  0
   15.4961   25.5612   -3.9211 C   0  0  0  0  0  0  0  0  0  0  0  0
 30 31  1  0  0  0
 31 32  2  0  0  0
 32 33  1  0  0  0
 33 34  2  0  0  0
 34 35  1  0  0  0
 35 36  2  0  0  0
 36 29  1  0  0  0
 29 27  1  0  0  0
 27  1  1  0  0  0
  1  2  2  0  0  0
  2  3  1  0  0  0
  3  4  2  0  0  0
  4  5  1  0  0  0
  5  6  2  0  0  0
  6  7  1  0  0  0
  7  8  2  0  0  0
  8  9  1  0  0  0
  9 10  1  0  0  0
 10 11  1  0  0  0
 11 12  1  0  0  0
 12 19  1  0  0  0
 19 20  2  0  0  0
 19 21  1  0  0  0
 21 23  1  0  0  0
 23 24  1  0  0  0
 24 25  1  0  0  0
 12 13  1  0  0  0
 13 14  1  0  0  0
 13 15  1  0  0  0
 15 16  1  0  0  0
 36 31  1  0  0  0
  6  1  1  0  0  0
 15 10  1  0  0  0
  9  5  1  0  0  0
 27 28  1  0  0  0
 21 22  1  0  0  0
 25 26  1  0  0  0
 14 17  1  0  0  0
 16 18  1  0  0  0
M  END
> <minimizedAffinity>
-7.99979

> <CNNscore>
0.2237854749

> <CNNaffinity>
6.2391519547

> <CNN_VS>
1.3962315321

> <CNNaffinity_variance>
0.4438683391

$$$$
[H]c1c([H])c([H])c(S(=O)(=O)c2c([H])c([H])c3c(c2[H])c2c(n3[H])C([H])([H])C([H])([H])C([H])(N([H])[H])C2([H])[H])c([H])c1[H]


 26 29  0  0  0  0  0  0  0  0999 V2000
   18.4791   23.6667    1.3649 N   0  0  0  0  0  0  0  0  0  0  0  0
   17.2366   23.2276    0.7347 C   0  0  0  0  0  0  0  0  0  0  0  0
   16.6000   22.2086    1.6080 C   0  0  0  0  0  0  0  0  0  0  0  0
   15.1056   22.2236    1.6298 C   0  0  0  0  0  0  0  0  0  0  0  0
   14.4862   22.9435    0.5040 C   0  0  0  0  0  0  0  0  0  0  0  0
   13.3299   22.7488   -0.1302 N   0  0  0  0  0  0  0  0  0  0  0  0
   13.1771   23.6505   -1.0973 C   0  0  0  0  0  0  0  0  0  0  0  0
   12.1687   23.8884   -2.0387 C   0  0  0  0  0  0  0  0  0  0  0  0
   12.3550   24.9400   -2.9082 C   0  0  0  0  0  0  0  0  0  0  0  0
   13.4605   25.7427   -2.8891 C   0  0  0  0  0  0  0  0  0  0  0  0
   14.4499   25.5035   -1.9599 C   0  0  0  0  0  0  0  0  0  0  0  0
   14.2813   24.4582   -1.0837 C   0  0  0  0  0  0  0  0  0  0  0  0
   15.1037   24.0148   -0.0783 C   0  0  0  0  0  0  0  0  0  0  0  0
   16.4193   24.4356    0.4541 C   0  0  0  0  0  0  0  0  0  0  0  0
   18.7147   24.6157    1.0416 H   0  0  0  0  0  0  0  0  0  0  0  0
   19.2284   22.9624    1.2490 H   0  0  0  0  0  0  0  0  0  0  0  0
   12.6099   22.0051    0.0678 H   0  0  0  0  0  0  0  0  0  0  0  0
   13.6427   27.0646   -4.0189 S   0  0  0  0  0  0  0  0  0  0  0  0
   12.8065   28.2070   -3.5515 O   0  0  0  0  0  0  0  0  0  0  0  0
   13.1579   26.6134   -5.3652 O   0  0  0  0  0  0  0  0  0  0  0  0
   15.3415   27.4795   -4.0712 C   0  0  0  0  0  0  0  0  0  0  0  0
   15.8694   28.0305   -5.2124 C   0  0  0  0  0  0  0  0  0  0  0  0
   17.1983   28.3887   -5.3430 C   0  0  0  0  0  0  0  0  0  0  0  0
   18.0163   28.1688   -4.2500 C   0  0  0  0  0  0  0  0  0  0  0  0
   17.5106   27.6138   -3.0845 C   0  0  0  0  0  0  0  0  0  0  0  0
   16.1821   27.2752   -3.0060 C   0  0  0  0  0  0  0  0  0  0  0  0
  1  2  1  0  0  0
  2  3  1  0  0  0
  3  4  1  0  0  0
  4  5  1  0  0  0
  5  6  1  0  0  0
  6  7  1  0  0  0
  7  8  2  0  0  0
  8  9  1  0  0  0
  9 10  2  0  0  0
 10 18  1  0  0  0
 18 19  2  0  0  0
 18 20  2  0  0  0
 18 21  1  0  0  0
 21 22  2  0  0  0
 22 23  1  0  0  0
 23 24  2  0  0  0
 24 25  1  0  0  0
 25 26  2  0  0  0
 10 11  1  0  0  0
 11 12  2  0  0  0
 12 13  1  0  0  0
 13 14  1  0  0  0
 14  2  1  0  0  0
 13  5  2  0  0  0
 12  7  1  0  0  0
 26 21  1  0  0  0
  1 15  1  0  0  0
  1 16  1  0  0  0
  6 17  1  0  0  0
M  END
> <minimizedAffinity>
3.02261

> <CNNscore>
0.5264405012

> <CNNaffinity>
6.8082900047

> <CNN_VS>
3.5841596127

> <CNNaffinity_variance>
0.7913935781

$$$$
[H]c1c([H])c([H])c(S(=O)(=O)c2c([H])c([H])c3c(c2[H])c2c(n3[H])C([H])([H])C([H])([H])C([H])(N([H])[H])C2([H])[H])c([H])c1[H]


 26 29  0  0  0  0  0  0  0  0999 V2000
   15.7329   24.8781    1.7074 N   0  0  0  0  0  0  0  0  0  0  0  0
   15.8031   23.8465    0.6755 C   0  0  0  0  0  0  0  0  0  0  0  0
   15.3743   22.5549    1.2708 C   0  0  0  0  0  0  0  0  0  0  0  0
   14.6273   21.6409    0.3540 C   0  0  0  0  0  0  0  0  0  0  0  0
   14.7783   21.9552   -1.0770 C   0  0  0  0  0  0  0  0  0  0  0  0
   14.7715   21.1672   -2.1523 N   0  0  0  0  0  0  0  0  0  0  0  0
   14.9438   21.8915   -3.2556 C   0  0  0  0  0  0  0  0  0  0  0  0
   15.0140   21.5685   -4.6159 C   0  0  0  0  0  0  0  0  0  0  0  0
   15.2057   22.6067   -5.5002 C   0  0  0  0  0  0  0  0  0  0  0  0
   15.3275   23.9109   -5.1112 C   0  0  0  0  0  0  0  0  0  0  0  0
   15.2576   24.2226   -3.7705 C   0  0  0  0  0  0  0  0  0  0  0  0
   15.0665   23.1993   -2.8732 C   0  0  0  0  0  0  0  0  0  0  0  0
   14.9626   23.2400   -1.5051 C   0  0  0  0  0  0  0  0  0  0  0  0
   15.0073   24.3144   -0.4879 C   0  0  0  0  0  0  0  0  0  0  0  0
   15.6068   25.8004    1.2668 H   0  0  0  0  0  0  0  0  0  0  0  0
   16.5300   24.8079    2.3636 H   0  0  0  0  0  0  0  0  0  0  0  0
   14.6508   20.1205   -2.1766 H   0  0  0  0  0  0  0  0  0  0  0  0
   15.5698   25.1884   -6.2800 S   0  0  0  0  0  0  0  0  0  0  0  0
   14.3749   25.2507   -7.1695 O   0  0  0  0  0  0  0  0  0  0  0  0
   16.7826   24.8619   -7.1009 O   0  0  0  0  0  0  0  0  0  0  0  0
   15.7977   26.6773   -5.3901 C   0  0  0  0  0  0  0  0  0  0  0  0
   17.0662   27.0735   -5.0459 C   0  0  0  0  0  0  0  0  0  0  0  0
   17.3399   28.2328   -4.3444 C   0  0  0  0  0  0  0  0  0  0  0  0
   16.2589   29.0158   -3.9830 C   0  0  0  0  0  0  0  0  0  0  0  0
   14.9667   28.6407   -4.3170 C   0  0  0  0  0  0  0  0  0  0  0  0
   14.7486   27.4785   -5.0153 C   0  0  0  0  0  0  0  0  0  0  0  0
  1  2  1  0  0  0
  2  3  1  0  0  0
  3  4  1  0  0  0
  4  5  1  0  0  0
  5  6  1  0  0  0
  6  7  1  0  0  0
  7  8  2  0  0  0
  8  9  1  0  0  0
  9 10  2  0  0  0
 10 18  1  0  0  0
 18 19  2  0  0  0
 18 20  2  0  0  0
 18 21  1  0  0  0
 21 22  2  0  0  0
 22 23  1  0  0  0
 23 24  2  0  0  0
 24 25  1  0  0  0
 25 26  2  0  0  0
 10 11  1  0  0  0
 11 12  2  0  0  0
 12 13  1  0  0  0
 13 14  1  0  0  0
 14  2  1  0  0  0
 13  5  2  0  0  0
 12  7  1  0  0  0
 26 21  1  0  0  0
  1 15  1  0  0  0
  1 16  1  0  0  0
  6 17  1  0  0  0
M  END
> <minimizedAffinity>
8.74818

> <CNNscore>
0.5202535987

> <CNNaffinity>
6.5427961349

> <CNN_VS>
3.4039132595

> <CNNaffinity_variance>
0.6682451367

$$$$
[H]c1c([H])c([H])c(S(=O)(=O)c2c([H])c([H])c3c(c2[H])c2c(n3[H])C([H])([H])C([H])([H])C([H])(N([H])[H])C2([H])[H])c([H])c1[H]


 26 29  0  0  0  0  0  0  0  0999 V2000
   10.6142   19.9163   -0.7761 N   0  0  0  0  0  0  0  0  0  0  0  0
   11.7119   20.7799   -0.3480 C   0  0  0  0  0  0  0  0  0  0  0  0
   12.6014   20.0007    0.5508 C   0  0  0  0  0  0  0  0  0  0  0  0
   14.0572   20.3249    0.4538 C   0  0  0  0  0  0  0  0  0  0  0  0
   14.3531   21.6153   -0.1918 C   0  0  0  0  0  0  0  0  0  0  0  0
   15.3482   22.4819   -0.0018 N   0  0  0  0  0  0  0  0  0  0  0  0
   15.2131   23.5249   -0.8177 C   0  0  0  0  0  0  0  0  0  0  0  0
   15.9638   24.6888   -1.0216 C   0  0  0  0  0  0  0  0  0  0  0  0
   15.5103   25.5706   -1.9773 C   0  0  0  0  0  0  0  0  0  0  0  0
   14.3816   25.3595   -2.7180 C   0  0  0  0  0  0  0  0  0  0  0  0
   13.6469   24.2117   -2.5126 C   0  0  0  0  0  0  0  0  0  0  0  0
   14.0842   23.3198   -1.5628 C   0  0  0  0  0  0  0  0  0  0  0  0
   13.5437   22.1208   -1.1703 C   0  0  0  0  0  0  0  0  0  0  0  0
   12.3545   21.3338   -1.5672 C   0  0  0  0  0  0  0  0  0  0  0  0
   10.2431   20.2490   -1.6773 H   0  0  0  0  0  0  0  0  0  0  0  0
    9.9116   19.8017   -0.0249 H   0  0  0  0  0  0  0  0  0  0  0  0
   16.1467   22.3982    0.6809 H   0  0  0  0  0  0  0  0  0  0  0  0
   13.8538   26.5156   -3.9187 S   0  0  0  0  0  0  0  0  0  0  0  0
   14.0538   27.8893   -3.3748 O   0  0  0  0  0  0  0  0  0  0  0  0
   12.3937   26.2955   -4.1851 O   0  0  0  0  0  0  0  0  0  0  0  0
   14.8026   26.2422   -5.3628 C   0  0  0  0  0  0  0  0  0  0  0  0
   15.3210   27.3143   -6.0458 C   0  0  0  0  0  0  0  0  0  0  0  0
   16.0810   27.1927   -7.1942 C   0  0  0  0  0  0  0  0  0  0  0  0
   16.3155   25.9109   -7.6569 C   0  0  0  0  0  0  0  0  0  0  0  0
   15.8047   24.8094   -6.9876 C   0  0  0  0  0  0  0  0  0  0  0  0
   15.0551   24.9846   -5.8503 C   0  0  0  0  0  0  0  0  0  0  0  0
  1  2  1  0  0  0
  2  3  1  0  0  0
  3  4  1  0  0  0
  4  5  1  0  0  0
  5  6  1  0  0  0
  6  7  1  0  0  0
  7  8  2  0  0  0
  8  9  1  0  0  0
  9 10  2  0  0  0
 10 18  1  0  0  0
 18 19  2  0  0  0
 18 20  2  0  0  0
 18 21  1  0  0  0
 21 22  2  0  0  0
 22 23  1  0  0  0
 23 24  2  0  0  0
 24 25  1  0  0  0
 25 26  2  0  0  0
 10 11  1  0  0  0
 11 12  2  0  0  0
 12 13  1  0  0  0
 13 14  1  0  0  0
 14  2  1  0  0  0
 13  5  2  0  0  0
 12  7  1  0  0  0
 26 21  1  0  0  0
  1 15  1  0  0  0
  1 16  1  0  0  0
  6 17  1  0  0  0
M  END
> <minimizedAffinity>
-1.85135

> <CNNscore>
0.4770033360

> <CNNaffinity>
6.4930481911

> <CNN_VS>
3.0972056389

> <CNNaffinity_variance>
0.3870273232

$$$$
[H]c1c([H])c([H])c(S(=O)(=O)c2c([H])c([H])c3c(c2[H])c2c(n3[H])C([H])([H])C([H])([H])C([H])(N([H])[H])C2([H])[H])c([H])c1[H]


 26 29  0  0  0  0  0  0  0  0999 V2000
   15.9478   29.5872   -5.0947 N   0  0  0  0  0  0  0  0  0  0  0  0
   15.5497   28.2158   -5.4019 C   0  0  0  0  0  0  0  0  0  0  0  0
   16.0810   27.8602   -6.7426 C   0  0  0  0  0  0  0  0  0  0  0  0
   16.5029   26.4361   -6.9101 C   0  0  0  0  0  0  0  0  0  0  0  0
   15.9644   25.5167   -5.8932 C   0  0  0  0  0  0  0  0  0  0  0  0
   15.6369   24.2264   -5.9646 N   0  0  0  0  0  0  0  0  0  0  0  0
   15.1862   23.7995   -4.7873 C   0  0  0  0  0  0  0  0  0  0  0  0
   14.7214   22.5614   -4.3279 C   0  0  0  0  0  0  0  0  0  0  0  0
   14.3259   22.4871   -3.0108 C   0  0  0  0  0  0  0  0  0  0  0  0
   14.3681   23.5502   -2.1534 C   0  0  0  0  0  0  0  0  0  0  0  0
   14.8266   24.7664   -2.6116 C   0  0  0  0  0  0  0  0  0  0  0  0
   15.2258   24.8596   -3.9235 C   0  0  0  0  0  0  0  0  0  0  0  0
   15.7145   25.9383   -4.6173 C   0  0  0  0  0  0  0  0  0  0  0  0
   16.0001   27.3514   -4.2813 C   0  0  0  0  0  0  0  0  0  0  0  0
   15.9783   29.7184   -4.0737 H   0  0  0  0  0  0  0  0  0  0  0  0
   15.3672   30.2714   -5.6103 H   0  0  0  0  0  0  0  0  0  0  0  0
   15.7065   23.5952   -6.8057 H   0  0  0  0  0  0  0  0  0  0  0  0
   13.8524   23.3964   -0.4899 S   0  0  0  0  0  0  0  0  0  0  0  0
   12.9108   22.2448   -0.3895 O   0  0  0  0  0  0  0  0  0  0  0  0
   13.1400   24.6554   -0.0916 O   0  0  0  0  0  0  0  0  0  0  0  0
   15.2857   23.1527    0.4832 C   0  0  0  0  0  0  0  0  0  0  0  0
   15.5178   21.9248    1.0515 C   0  0  0  0  0  0  0  0  0  0  0  0
   16.6220   21.6423    1.8339 C   0  0  0  0  0  0  0  0  0  0  0  0
   17.5241   22.6702    2.0382 C   0  0  0  0  0  0  0  0  0  0  0  0
   17.3155   23.9205    1.4767 C   0  0  0  0  0  0  0  0  0  0  0  0
   16.2017   24.1496    0.7068 C   0  0  0  0  0  0  0  0  0  0  0  0
  1  2  1  0  0  0
  2  3  1  0  0  0
  3  4  1  0  0  0
  4  5  1  0  0  0
  5  6  1  0  0  0
  6  7  1  0  0  0
  7  8  2  0  0  0
  8  9  1  0  0  0
  9 10  2  0  0  0
 10 18  1  0  0  0
 18 19  2  0  0  0
 18 20  2  0  0  0
 18 21  1  0  0  0
 21 22  2  0  0  0
 22 23  1  0  0  0
 23 24  2  0  0  0
 24 25  1  0  0  0
 25 26  2  0  0  0
 10 11  1  0  0  0
 11 12  2  0  0  0
 12 13  1  0  0  0
 13 14  1  0  0  0
 14  2  1  0  0  0
 13  5  2  0  0  0
 12  7  1  0  0  0
 26 21  1  0  0  0
  1 15  1  0  0  0
  1 16  1  0  0  0
  6 17  1  0  0  0
M  END
> <minimizedAffinity>
3.74784

> <CNNscore>
0.4598973393

> <CNNaffinity>
6.8208732605

> <CNN_VS>
3.1369013786

> <CNNaffinity_variance>
0.5499788523

$$$$
[H]c1c([H])c([H])c(S(=O)(=O)c2c([H])c([H])c3c(c2[H])c2c(n3[H])C([H])([H])C([H])([H])C([H])(N([H])[H])C2([H])[H])c([H])c1[H]


 26 29  0  0  0  0  0  0  0  0999 V2000
   14.8803   20.1177    1.2955 N   0  0  0  0  0  0  0  0  0  0  0  0
   13.9586   20.9306    0.5058 C   0  0  0  0  0  0  0  0  0  0  0  0
   12.5944   20.7823    1.0742 C   0  0  0  0  0  0  0  0  0  0  0  0
   11.7344   22.0031    1.0088 C   0  0  0  0  0  0  0  0  0  0  0  0
   12.1934   23.0220    0.0493 C   0  0  0  0  0  0  0  0  0  0  0  0
   11.5139   23.9060   -0.6815 N   0  0  0  0  0  0  0  0  0  0  0  0
   12.3498   24.6363   -1.4160 C   0  0  0  0  0  0  0  0  0  0  0  0
   12.1641   25.6769   -2.3338 C   0  0  0  0  0  0  0  0  0  0  0  0
   13.2918   26.2094   -2.9180 C   0  0  0  0  0  0  0  0  0  0  0  0
   14.5569   25.7721   -2.6436 C   0  0  0  0  0  0  0  0  0  0  0  0
   14.7332   24.7473   -1.7391 C   0  0  0  0  0  0  0  0  0  0  0  0
   13.6191   24.2034   -1.1459 C   0  0  0  0  0  0  0  0  0  0  0  0
   13.5216   23.1897   -0.2257 C   0  0  0  0  0  0  0  0  0  0  0  0
   14.4934   22.3157    0.4692 C   0  0  0  0  0  0  0  0  0  0  0  0
   15.8328   20.5021    1.2198 H   0  0  0  0  0  0  0  0  0  0  0  0
   14.7899   19.1135    1.0621 H   0  0  0  0  0  0  0  0  0  0  0  0
   10.4695   24.0446   -0.7082 H   0  0  0  0  0  0  0  0  0  0  0  0
   15.9527   26.4869   -3.4167 S   0  0  0  0  0  0  0  0  0  0  0  0
   17.1821   25.8742   -2.8369 O   0  0  0  0  0  0  0  0  0  0  0  0
   15.9530   27.9606   -3.1351 O   0  0  0  0  0  0  0  0  0  0  0  0
   15.8177   26.1768   -5.1332 C   0  0  0  0  0  0  0  0  0  0  0  0
   15.9787   27.2098   -6.0229 C   0  0  0  0  0  0  0  0  0  0  0  0
   15.8892   27.0572   -7.3940 C   0  0  0  0  0  0  0  0  0  0  0  0
   15.6225   25.7853   -7.8663 C   0  0  0  0  0  0  0  0  0  0  0  0
   15.4554   24.7230   -6.9912 C   0  0  0  0  0  0  0  0  0  0  0  0
   15.5541   24.9279   -5.6369 C   0  0  0  0  0  0  0  0  0  0  0  0
  1  2  1  0  0  0
  2  3  1  0  0  0
  3  4  1  0  0  0
  4  5  1  0  0  0
  5  6  1  0  0  0
  6  7  1  0  0  0
  7  8  2  0  0  0
  8  9  1  0  0  0
  9 10  2  0  0  0
 10 18  1  0  0  0
 18 19  2  0  0  0
 18 20  2  0  0  0
 18 21  1  0  0  0
 21 22  2  0  0  0
 22 23  1  0  0  0
 23 24  2  0  0  0
 24 25  1  0  0  0
 25 26  2  0  0  0
 10 11  1  0  0  0
 11 12  2  0  0  0
 12 13  1  0  0  0
 13 14  1  0  0  0
 14  2  1  0  0  0
 13  5  2  0  0  0
 12  7  1  0  0  0
 26 21  1  0  0  0
  1 15  1  0  0  0
  1 16  1  0  0  0
  6 17  1  0  0  0
M  END
> <minimizedAffinity>
-5.89874

> <CNNscore>
0.4147566557

> <CNNaffinity>
6.7350740433

> <CNN_VS>
2.7934167385

> <CNNaffinity_variance>
0.2687203884

$$$$
[H]c1c([H])c([H])c(S(=O)(=O)c2c([H])c([H])c3c(c2[H])c2c(n3[H])C([H])([H])C([H])([H])C([H])(N([H])[H])C2([H])[H])c([H])c1[H]


 26 29  0  0  0  0  0  0  0  0999 V2000
   13.8174   19.8654    0.0897 N   0  0  0  0  0  0  0  0  0  0  0  0
   14.5010   20.8401   -0.7566 C   0  0  0  0  0  0  0  0  0  0  0  0
   15.3444   20.1058   -1.7342 C   0  0  0  0  0  0  0  0  0  0  0  0
   15.4605   20.7359   -3.0845 C   0  0  0  0  0  0  0  0  0  0  0  0
   15.0790   22.1579   -3.1290 C   0  0  0  0  0  0  0  0  0  0  0  0
   15.5190   23.1593   -3.8911 N   0  0  0  0  0  0  0  0  0  0  0  0
   14.8825   24.2869   -3.5829 C   0  0  0  0  0  0  0  0  0  0  0  0
   14.9609   25.5979   -4.0678 C   0  0  0  0  0  0  0  0  0  0  0  0
   14.1259   26.5315   -3.4954 C   0  0  0  0  0  0  0  0  0  0  0  0
   13.2435   26.2358   -2.4949 C   0  0  0  0  0  0  0  0  0  0  0  0
   13.1709   24.9434   -2.0218 C   0  0  0  0  0  0  0  0  0  0  0  0
   13.9967   23.9979   -2.5812 C   0  0  0  0  0  0  0  0  0  0  0  0
   14.1196   22.6610   -2.2956 C   0  0  0  0  0  0  0  0  0  0  0  0
   13.4697   21.7350   -1.3410 C   0  0  0  0  0  0  0  0  0  0  0  0
   12.9513   20.2786    0.4636 H   0  0  0  0  0  0  0  0  0  0  0  0
   14.4585   19.4682    0.7985 H   0  0  0  0  0  0  0  0  0  0  0  0
   16.2592   23.1147   -4.6400 H   0  0  0  0  0  0  0  0  0  0  0  0
   12.2071   27.4637   -1.8057 S   0  0  0  0  0  0  0  0  0  0  0  0
   12.8687   28.0145   -0.5883 O   0  0  0  0  0  0  0  0  0  0  0  0
   10.9048   26.8278   -1.4175 O   0  0  0  0  0  0  0  0  0  0  0  0
   11.9651   28.6922   -3.0276 C   0  0  0  0  0  0  0  0  0  0  0  0
   12.8621   29.7257   -3.1361 C   0  0  0  0  0  0  0  0  0  0  0  0
   12.7501   30.7386   -4.0703 C   0  0  0  0  0  0  0  0  0  0  0  0
   11.6671   30.6822   -4.9282 C   0  0  0  0  0  0  0  0  0  0  0  0
   10.7453   29.6503   -4.8418 C   0  0  0  0  0  0  0  0  0  0  0  0
   10.9022   28.6678   -3.8952 C   0  0  0  0  0  0  0  0  0  0  0  0
  1  2  1  0  0  0
  2  3  1  0  0  0
  3  4  1  0  0  0
  4  5  1  0  0  0
  5  6  1  0  0  0
  6  7  1  0  0  0
  7  8  2  0  0  0
  8  9  1  0  0  0
  9 10  2  0  0  0
 10 18  1  0  0  0
 18 19  2  0  0  0
 18 20  2  0  0  0
 18 21  1  0  0  0
 21 22  2  0  0  0
 22 23  1  0  0  0
 23 24  2  0  0  0
 24 25  1  0  0  0
 25 26  2  0  0  0
 10 11  1  0  0  0
 11 12  2  0  0  0
 12 13  1  0  0  0
 13 14  1  0  0  0
 14  2  1  0  0  0
 13  5  2  0  0  0
 12  7  1  0  0  0
 26 21  1  0  0  0
  1 15  1  0  0  0
  1 16  1  0  0  0
  6 17  1  0  0  0
M  END
> <minimizedAffinity>
50.55967

> <CNNscore>
0.3982327282

> <CNNaffinity>
5.6574239731

> <CNN_VS>
2.2529714108

> <CNNaffinity_variance>
1.0779348612

$$$$
[H]c1c([H])c([H])c(S(=O)(=O)c2c([H])c([H])c3c(c2[H])c2c(n3[H])C([H])([H])C([H])([H])C([H])(N([H])[H])C2([H])[H])c([H])c1[H]


 26 29  0  0  0  0  0  0  0  0999 V2000
   16.4954   23.9737   -3.3158 N   0  0  0  0  0  0  0  0  0  0  0  0
   15.3391   23.2130   -3.7831 C   0  0  0  0  0  0  0  0  0  0  0  0
   15.7582   22.3831   -4.9414 C   0  0  0  0  0  0  0  0  0  0  0  0
   15.0916   21.0499   -5.0519 C   0  0  0  0  0  0  0  0  0  0  0  0
   13.8533   20.9199   -4.2651 C   0  0  0  0  0  0  0  0  0  0  0  0
   12.7480   20.2070   -4.4827 N   0  0  0  0  0  0  0  0  0  0  0  0
   11.8759   20.3957   -3.4951 C   0  0  0  0  0  0  0  0  0  0  0  0
   10.5928   19.8984   -3.2382 C   0  0  0  0  0  0  0  0  0  0  0  0
    9.9721   20.3244   -2.0850 C   0  0  0  0  0  0  0  0  0  0  0  0
   10.5460   21.1941   -1.2011 C   0  0  0  0  0  0  0  0  0  0  0  0
   11.8095   21.6802   -1.4596 C   0  0  0  0  0  0  0  0  0  0  0  0
   12.4446   21.2661   -2.6059 C   0  0  0  0  0  0  0  0  0  0  0  0
   13.6865   21.5956   -3.0888 C   0  0  0  0  0  0  0  0  0  0  0  0
   14.7885   22.4671   -2.6228 C   0  0  0  0  0  0  0  0  0  0  0  0
   16.3750   24.2102   -2.3207 H   0  0  0  0  0  0  0  0  0  0  0  0
   16.6942   24.7757   -3.9389 H   0  0  0  0  0  0  0  0  0  0  0  0
   12.5472   19.5733   -5.3005 H   0  0  0  0  0  0  0  0  0  0  0  0
    9.7093   21.7003    0.2482 S   0  0  0  0  0  0  0  0  0  0  0  0
    8.8137   20.5933    0.6902 O   0  0  0  0  0  0  0  0  0  0  0  0
    8.8813   22.9090   -0.0750 O   0  0  0  0  0  0  0  0  0  0  0  0
   10.9233   22.0755    1.4508 C   0  0  0  0  0  0  0  0  0  0  0  0
   11.3698   23.3670    1.5825 C   0  0  0  0  0  0  0  0  0  0  0  0
   12.3250   23.7541    2.5040 C   0  0  0  0  0  0  0  0  0  0  0  0
   12.8407   22.7669    3.3235 C   0  0  0  0  0  0  0  0  0  0  0  0
   12.4085   21.4542    3.2129 C   0  0  0  0  0  0  0  0  0  0  0  0
   11.4568   21.1215    2.2805 C   0  0  0  0  0  0  0  0  0  0  0  0
  1  2  1  0  0  0
  2  3  1  0  0  0
  3  4  1  0  0  0
  4  5  1  0  0  0
  5  6  1  0  0  0
  6  7  1  0  0  0
  7  8  2  0  0  0
  8  9  1  0  0  0
  9 10  2  0  0  0
 10 18  1  0  0  0
 18 19  2  0  0  0
 18 20  2  0  0  0
 18 21  1  0  0  0
 21 22  2  0  0  0
 22 23  1  0  0  0
 23 24  2  0  0  0
 24 25  1  0  0  0
 25 26  2  0  0  0
 10 11  1  0  0  0
 11 12  2  0  0  0
 12 13  1  0  0  0
 13 14  1  0  0  0
 14  2  1  0  0  0
 13  5  2  0  0  0
 12  7  1  0  0  0
 26 21  1  0  0  0
  1 15  1  0  0  0
  1 16  1  0  0  0
  6 17  1  0  0  0
M  END
> <minimizedAffinity>
31.85092

> <CNNscore>
0.3879491687

> <CNNaffinity>
5.8915138245

> <CNN_VS>
2.2856078148

> <CNNaffinity_variance>
1.0643543005

$$$$
[H]c1c([H])c([H])c(S(=O)(=O)c2c([H])c([H])c3c(c2[H])c2c(n3[H])C([H])([H])C([H])([H])C([H])(N([H])[H])C2([H])[H])c([H])c1[H]


 26 29  0  0  0  0  0  0  0  0999 V2000
   13.6117   28.0028    2.1651 N   0  0  0  0  0  0  0  0  0  0  0  0
   13.5486   26.9344    1.1708 C   0  0  0  0  0  0  0  0  0  0  0  0
   14.9113   26.7239    0.6185 C   0  0  0  0  0  0  0  0  0  0  0  0
   15.2517   25.3116    0.2675 C   0  0  0  0  0  0  0  0  0  0  0  0
   14.0877   24.4195    0.1301 C   0  0  0  0  0  0  0  0  0  0  0  0
   13.8886   23.3522   -0.6435 N   0  0  0  0  0  0  0  0  0  0  0  0
   12.6736   22.8510   -0.4334 C   0  0  0  0  0  0  0  0  0  0  0  0
   11.9774   21.7618   -0.9708 C   0  0  0  0  0  0  0  0  0  0  0  0
   10.7019   21.5373   -0.5026 C   0  0  0  0  0  0  0  0  0  0  0  0
   10.1019   22.3182    0.4446 C   0  0  0  0  0  0  0  0  0  0  0  0
   10.7925   23.3891    0.9699 C   0  0  0  0  0  0  0  0  0  0  0  0
   12.0670   23.6286    0.5147 C   0  0  0  0  0  0  0  0  0  0  0  0
   12.9545   24.6138    0.8691 C   0  0  0  0  0  0  0  0  0  0  0  0
   12.9262   25.7506    1.8166 C   0  0  0  0  0  0  0  0  0  0  0  0
   12.8414   27.8936    2.8399 H   0  0  0  0  0  0  0  0  0  0  0  0
   13.6750   28.9322    1.7143 H   0  0  0  0  0  0  0  0  0  0  0  0
   14.5625   22.9296   -1.3348 H   0  0  0  0  0  0  0  0  0  0  0  0
    8.4784   21.9848    1.0013 S   0  0  0  0  0  0  0  0  0  0  0  0
    8.1663   20.5534    0.7241 O   0  0  0  0  0  0  0  0  0  0  0  0
    7.5234   22.8568    0.2407 O   0  0  0  0  0  0  0  0  0  0  0  0
    8.4269   22.3430    2.7130 C   0  0  0  0  0  0  0  0  0  0  0  0
    7.4688   23.1985    3.1974 C   0  0  0  0  0  0  0  0  0  0  0  0
    7.3534   23.5381    4.5326 C   0  0  0  0  0  0  0  0  0  0  0  0
    8.2651   22.9709    5.4039 C   0  0  0  0  0  0  0  0  0  0  0  0
    9.2435   22.1034    4.9429 C   0  0  0  0  0  0  0  0  0  0  0  0
    9.3152   21.7984    3.6059 C   0  0  0  0  0  0  0  0  0  0  0  0
  1  2  1  0  0  0
  2  3  1  0  0  0
  3  4  1  0  0  0
  4  5  1  0  0  0
  5  6  1  0  0  0
  6  7  1  0  0  0
  7  8  2  0  0  0
  8  9  1  0  0  0
  9 10  2  0  0  0
 10 18  1  0  0  0
 18 19  2  0  0  0
 18 20  2  0  0  0
 18 21  1  0  0  0
 21 22  2  0  0  0
 22 23  1  0  0  0
 23 24  2  0  0  0
 24 25  1  0  0  0
 25 26  2  0  0  0
 10 11  1  0  0  0
 11 12  2  0  0  0
 12 13  1  0  0  0
 13 14  1  0  0  0
 14  2  1  0  0  0
 13  5  2  0  0  0
 12  7  1  0  0  0
 26 21  1  0  0  0
  1 15  1  0  0  0
  1 16  1  0  0  0
  6 17  1  0  0  0
M  END
> <minimizedAffinity>
4.84488

> <CNNscore>
0.3730065525

> <CNNaffinity>
5.9071550369

> <CNN_VS>
2.2034075260

> <CNNaffinity_variance>
1.0704759359

$$$$
[H]c1c([H])c([H])c(S(=O)(=O)c2c([H])c([H])c3c(c2[H])c2c(n3[H])C([H])([H])C([H])([H])C([H])(N([H])[H])C2([H])[H])c([H])c1[H]


 26 29  0  0  0  0  0  0  0  0999 V2000
   14.0611   19.8644   -0.9402 N   0  0  0  0  0  0  0  0  0  0  0  0
   14.0302   21.3002   -0.6728 C   0  0  0  0  0  0  0  0  0  0  0  0
   14.8151   21.9926   -1.7267 C   0  0  0  0  0  0  0  0  0  0  0  0
   14.3015   23.3362   -2.1327 C   0  0  0  0  0  0  0  0  0  0  0  0
   13.3662   23.9473   -1.1729 C   0  0  0  0  0  0  0  0  0  0  0  0
   13.1339   25.2242   -0.8682 N   0  0  0  0  0  0  0  0  0  0  0  0
   12.1910   25.3106    0.0672 C   0  0  0  0  0  0  0  0  0  0  0  0
   11.5874   26.3880    0.7265 C   0  0  0  0  0  0  0  0  0  0  0  0
   10.6212   26.0918    1.6621 C   0  0  0  0  0  0  0  0  0  0  0  0
   10.2367   24.8163    1.9658 C   0  0  0  0  0  0  0  0  0  0  0  0
   10.8346   23.7598    1.3134 C   0  0  0  0  0  0  0  0  0  0  0  0
   11.8012   24.0361    0.3762 C   0  0  0  0  0  0  0  0  0  0  0  0
   12.5388   23.1796   -0.4023 C   0  0  0  0  0  0  0  0  0  0  0  0
   12.6070   21.7090   -0.5573 C   0  0  0  0  0  0  0  0  0  0  0  0
   13.2324   19.4168   -0.5237 H   0  0  0  0  0  0  0  0  0  0  0  0
   14.9698   19.4510   -0.6674 H   0  0  0  0  0  0  0  0  0  0  0  0
   13.6017   26.0745   -1.2793 H   0  0  0  0  0  0  0  0  0  0  0  0
    9.0032   24.5006    3.1640 S   0  0  0  0  0  0  0  0  0  0  0  0
    9.6163   23.7328    4.2854 O   0  0  0  0  0  0  0  0  0  0  0  0
    7.9217   23.6753    2.5311 O   0  0  0  0  0  0  0  0  0  0  0  0
    8.3813   26.0466    3.6966 C   0  0  0  0  0  0  0  0  0  0  0  0
    7.9322   26.9524    2.7679 C   0  0  0  0  0  0  0  0  0  0  0  0
    7.4254   28.1957    3.0974 C   0  0  0  0  0  0  0  0  0  0  0  0
    7.3803   28.5173    4.4415 C   0  0  0  0  0  0  0  0  0  0  0  0
    7.8268   27.6223    5.4015 C   0  0  0  0  0  0  0  0  0  0  0  0
    8.3218   26.3990    5.0215 C   0  0  0  0  0  0  0  0  0  0  0  0
  1  2  1  0  0  0
  2  3  1  0  0  0
  3  4  1  0  0  0
  4  5  1  0  0  0
  5  6  1  0  0  0
  6  7  1  0  0  0
  7  8  2  0  0  0
  8  9  1  0  0  0
  9 10  2  0  0  0
 10 18  1  0  0  0
 18 19  2  0  0  0
 18 20  2  0  0  0
 18 21  1  0  0  0
 21 22  2  0  0  0
 22 23  1  0  0  0
 23 24  2  0  0  0
 24 25  1  0  0  0
 25 26  2  0  0  0
 10 11  1  0  0  0
 11 12  2  0  0  0
 12 13  1  0  0  0
 13 14  1  0  0  0
 14  2  1  0  0  0
 13  5  2  0  0  0
 12  7  1  0  0  0
 26 21  1  0  0  0
  1 15  1  0  0  0
  1 16  1  0  0  0
  6 17  1  0  0  0
M  END
> <minimizedAffinity>
2.16642

> <CNNscore>
0.3592937291

> <CNNaffinity>
5.9026808739

> <CNN_VS>
2.1207962036

> <CNNaffinity_variance>
0.6476472020

$$$$
[H]c1c([H])c(OC([H])([H])[H])c2c(c1[H])[C@]([H])(C([H])([H])N(C([H])([H])[H])C([H])([H])C([H])([H])c1c([H])c([H])c3c(c1[H])C([H])([H])N(S(=O)(=O)C([H])([H])[H])C3([H])[H])C([H])([H])C([H])([H])C2([H])[H]


 30 33  0  0  0  0  0  0  0  0999 V2000
   13.2495   21.4703    0.9426 N   0  0  0  0  0  0  0  0  0  0  0  0
   14.5431   21.0852    0.5852 C   0  0  0  0  0  0  0  0  0  0  0  0
   12.2779   20.5537    1.2994 C   0  0  0  0  0  0  0  0  0  0  0  0
    8.2902   21.9116    3.8120 C   0  0  0  0  0  0  0  0  0  0  0  0
    7.6360   22.1754    2.6156 C   0  0  0  0  0  0  0  0  0  0  0  0
    8.3307   21.9562    1.4240 C   0  0  0  0  0  0  0  0  0  0  0  0
    9.6356   21.4892    1.3961 C   0  0  0  0  0  0  0  0  0  0  0  0
   10.2860   21.2273    2.5893 C   0  0  0  0  0  0  0  0  0  0  0  0
    9.5845   21.4494    3.7443 C   0  0  0  0  0  0  0  0  0  0  0  0
   10.3510   21.1128    5.0017 C   0  0  0  0  0  0  0  0  0  0  0  0
   10.8865   19.7023    4.7947 C   0  0  0  0  0  0  0  0  0  0  0  0
   11.8457   19.6524    3.6281 C   0  0  0  0  0  0  0  0  0  0  0  0
   11.6857   20.7632    2.6609 C   0  0  0  0  0  0  0  0  0  0  0  0
    6.2891   21.9333    5.2507 C   0  0  0  0  0  0  0  0  0  0  0  0
    7.6792   22.0998    5.0622 O   0  0  0  0  0  0  0  0  0  0  0  0
   12.8832   22.8303    0.7984 C   0  0  0  0  0  0  0  0  0  0  0  0
   13.9803   23.8177    0.5797 C   0  0  0  0  0  0  0  0  0  0  0  0
   13.8094   24.5268   -0.7406 C   0  0  0  0  0  0  0  0  0  0  0  0
   12.7022   25.2708   -1.0692 C   0  0  0  0  0  0  0  0  0  0  0  0
   12.5600   25.8957   -2.2846 C   0  0  0  0  0  0  0  0  0  0  0  0
   13.5523   25.8006   -3.2570 C   0  0  0  0  0  0  0  0  0  0  0  0
   14.6542   25.0650   -2.9410 C   0  0  0  0  0  0  0  0  0  0  0  0
   14.7975   24.4287   -1.7000 C   0  0  0  0  0  0  0  0  0  0  0  0
   15.5923   25.0717   -4.0951 C   0  0  0  0  0  0  0  0  0  0  0  0
   15.0248   26.0151   -5.0042 N   0  0  0  0  0  0  0  0  0  0  0  0
   13.6937   26.3429   -4.6192 C   0  0  0  0  0  0  0  0  0  0  0  0
   15.9358   27.4801   -5.0841 S   0  0  0  0  0  0  0  0  0  0  0  0
   17.2172   27.5183   -3.8633 C   0  0  0  0  0  0  0  0  0  0  0  0
   16.5108   27.5740   -6.4682 O   0  0  0  0  0  0  0  0  0  0  0  0
   14.9978   28.6576   -4.9422 O   0  0  0  0  0  0  0  0  0  0  0  0
 14 15  1  0  0  0
 15  4  1  0  0  0
  4  5  2  0  0  0
  5  6  1  0  0  0
  6  7  2  0  0  0
  7  8  1  0  0  0
  8  9  2  0  0  0
  9 10  1  0  0  0
 10 11  1  0  0  0
 11 12  1  0  0  0
 12 13  1  0  0  0
 13  3  1  0  0  0
  3  1  1  0  0  0
  1  2  1  0  0  0
  1 16  1  0  0  0
 16 17  1  0  0  0
 17 18  1  0  0  0
 18 19  2  0  0  0
 19 20  1  0  0  0
 20 21  2  0  0  0
 21 22  1  0  0  0
 22 23  2  0  0  0
 22 24  1  0  0  0
 24 25  1  0  0  0
 25 27  1  0  0  0
 27 28  1  0  0  0
 27 29  2  0  0  0
 27 30  2  0  0  0
 25 26  1  0  0  0
  9  4  1  0  0  0
 23 18  1  0  0  0
 13  8  1  0  0  0
 26 21  1  0  0  0
M  END
> <minimizedAffinity>
-7.87904

> <CNNscore>
0.5818125606

> <CNNaffinity>
6.9778480530

> <CNN_VS>
4.0597996712

> <CNNaffinity_variance>
0.0739777237

$$$$
[H]c1c([H])c(OC([H])([H])[H])c2c(c1[H])[C@]([H])(C([H])([H])N(C([H])([H])[H])C([H])([H])C([H])([H])c1c([H])c([H])c3c(c1[H])C([H])([H])N(S(=O)(=O)C([H])([H])[H])C3([H])[H])C([H])([H])C([H])([H])C2([H])[H]


 30 33  0  0  0  0  0  0  0  0999 V2000
   13.4821   21.5217    1.0872 N   0  0  0  0  0  0  0  0  0  0  0  0
   14.6662   21.0104    0.5524 C   0  0  0  0  0  0  0  0  0  0  0  0
   12.5592   20.7226    1.7361 C   0  0  0  0  0  0  0  0  0  0  0  0
    7.8848   21.2511    0.3471 C   0  0  0  0  0  0  0  0  0  0  0  0
    8.1213   20.4172   -0.7381 C   0  0  0  0  0  0  0  0  0  0  0  0
    9.4059   19.8924   -0.8964 C   0  0  0  0  0  0  0  0  0  0  0  0
   10.4400   20.1724   -0.0169 C   0  0  0  0  0  0  0  0  0  0  0  0
   10.2025   21.0040    1.0637 C   0  0  0  0  0  0  0  0  0  0  0  0
    8.9354   21.5060    1.1983 C   0  0  0  0  0  0  0  0  0  0  0  0
    8.7482   22.3798    2.4162 C   0  0  0  0  0  0  0  0  0  0  0  0
    9.2859   21.5733    3.5906 C   0  0  0  0  0  0  0  0  0  0  0  0
   10.7628   21.2979    3.4284 C   0  0  0  0  0  0  0  0  0  0  0  0
   11.2487   21.3886    2.0318 C   0  0  0  0  0  0  0  0  0  0  0  0
    5.4680   21.4267   -0.1037 C   0  0  0  0  0  0  0  0  0  0  0  0
    6.6289   21.8288    0.5937 O   0  0  0  0  0  0  0  0  0  0  0  0
   13.1523   22.8747    0.8324 C   0  0  0  0  0  0  0  0  0  0  0  0
   14.2739   23.8083    0.5209 C   0  0  0  0  0  0  0  0  0  0  0  0
   14.0338   24.5183   -0.7881 C   0  0  0  0  0  0  0  0  0  0  0  0
   12.9206   25.2798   -1.0499 C   0  0  0  0  0  0  0  0  0  0  0  0
   12.7143   25.9054   -2.2558 C   0  0  0  0  0  0  0  0  0  0  0  0
   13.6435   25.7928   -3.2869 C   0  0  0  0  0  0  0  0  0  0  0  0
   14.7506   25.0399   -3.0374 C   0  0  0  0  0  0  0  0  0  0  0  0
   14.9595   24.4030   -1.8061 C   0  0  0  0  0  0  0  0  0  0  0  0
   15.6163   25.0298   -4.2469 C   0  0  0  0  0  0  0  0  0  0  0  0
   15.0094   25.9811   -5.1216 N   0  0  0  0  0  0  0  0  0  0  0  0
   13.7098   26.3310   -4.6565 C   0  0  0  0  0  0  0  0  0  0  0  0
   15.9373   27.4310   -5.2606 S   0  0  0  0  0  0  0  0  0  0  0  0
   17.2242   27.5001   -4.0469 C   0  0  0  0  0  0  0  0  0  0  0  0
   16.5074   27.4655   -6.6493 O   0  0  0  0  0  0  0  0  0  0  0  0
   15.0139   28.6243   -5.1599 O   0  0  0  0  0  0  0  0  0  0  0  0
 14 15  1  0  0  0
 15  4  1  0  0  0
  4  5  2  0  0  0
  5  6  1  0  0  0
  6  7  2  0  0  0
  7  8  1  0  0  0
  8  9  2  0  0  0
  9 10  1  0  0  0
 10 11  1  0  0  0
 11 12  1  0  0  0
 12 13  1  0  0  0
 13  3  1  0  0  0
  3  1  1  0  0  0
  1  2  1  0  0  0
  1 16  1  0  0  0
 16 17  1  0  0  0
 17 18  1  0  0  0
 18 19  2  0  0  0
 19 20  1  0  0  0
 20 21  2  0  0  0
 21 22  1  0  0  0
 22 23  2  0  0  0
 22 24  1  0  0  0
 24 25  1  0  0  0
 25 27  1  0  0  0
 27 28  1  0  0  0
 27 29  2  0  0  0
 27 30  2  0  0  0
 25 26  1  0  0  0
  9  4  1  0  0  0
 23 18  1  0  0  0
 13  8  1  0  0  0
 26 21  1  0  0  0
M  END
> <minimizedAffinity>
-7.91787

> <CNNscore>
0.5465279818

> <CNNaffinity>
7.3895149231

> <CNN_VS>
4.0385766029

> <CNNaffinity_variance>
0.1229423061

$$$$
[H]c1c([H])c(OC([H])([H])[H])c2c(c1[H])[C@]([H])(C([H])([H])N(C([H])([H])[H])C([H])([H])C([H])([H])c1c([H])c([H])c3c(c1[H])C([H])([H])N(S(=O)(=O)C([H])([H])[H])C3([H])[H])C([H])([H])C([H])([H])C2([H])[H]


 30 33  0  0  0  0  0  0  0  0999 V2000
   12.0432   22.0493    1.2261 N   0  0  0  0  0  0  0  0  0  0  0  0
   12.7084   20.8477    1.4770 C   0  0  0  0  0  0  0  0  0  0  0  0
   10.6645   22.1497    1.2513 C   0  0  0  0  0  0  0  0  0  0  0  0
    6.3575   20.1223    0.0688 C   0  0  0  0  0  0  0  0  0  0  0  0
    5.7668   20.7671    1.1478 C   0  0  0  0  0  0  0  0  0  0  0  0
    6.5718   21.5799    1.9492 C   0  0  0  0  0  0  0  0  0  0  0  0
    7.9242   21.7625    1.7061 C   0  0  0  0  0  0  0  0  0  0  0  0
    8.5111   21.1188    0.6307 C   0  0  0  0  0  0  0  0  0  0  0  0
    7.7019   20.3278   -0.1407 C   0  0  0  0  0  0  0  0  0  0  0  0
    8.4085   19.6839   -1.3103 C   0  0  0  0  0  0  0  0  0  0  0  0
    9.1348   20.8137   -2.0278 C   0  0  0  0  0  0  0  0  0  0  0  0
   10.1777   21.4424   -1.1329 C   0  0  0  0  0  0  0  0  0  0  0  0
    9.9495   21.2228    0.3144 C   0  0  0  0  0  0  0  0  0  0  0  0
    4.6857   18.3532   -0.3185 C   0  0  0  0  0  0  0  0  0  0  0  0
    5.6350   19.2843   -0.7957 O   0  0  0  0  0  0  0  0  0  0  0  0
   12.8000   23.1653    0.7942 C   0  0  0  0  0  0  0  0  0  0  0  0
   14.2580   22.9560    0.5560 C   0  0  0  0  0  0  0  0  0  0  0  0
   14.6183   23.2658   -0.8755 C   0  0  0  0  0  0  0  0  0  0  0  0
   14.4268   22.3904   -1.9170 C   0  0  0  0  0  0  0  0  0  0  0  0
   14.7772   22.6873   -3.2120 C   0  0  0  0  0  0  0  0  0  0  0  0
   15.3538   23.9136   -3.5326 C   0  0  0  0  0  0  0  0  0  0  0  0
   15.5480   24.7886   -2.5071 C   0  0  0  0  0  0  0  0  0  0  0  0
   15.1892   24.4839   -1.1866 C   0  0  0  0  0  0  0  0  0  0  0  0
   16.1751   26.0290   -3.0365 C   0  0  0  0  0  0  0  0  0  0  0  0
   16.1442   25.8613   -4.4541 N   0  0  0  0  0  0  0  0  0  0  0  0
   15.8242   24.5155   -4.7921 C   0  0  0  0  0  0  0  0  0  0  0  0
   14.9864   26.8941   -5.2126 S   0  0  0  0  0  0  0  0  0  0  0  0
   13.3999   26.7758   -4.4361 C   0  0  0  0  0  0  0  0  0  0  0  0
   15.5187   28.2960   -5.1339 O   0  0  0  0  0  0  0  0  0  0  0  0
   14.9106   26.5595   -6.6853 O   0  0  0  0  0  0  0  0  0  0  0  0
 14 15  1  0  0  0
 15  4  1  0  0  0
  4  5  2  0  0  0
  5  6  1  0  0  0
  6  7  2  0  0  0
  7  8  1  0  0  0
  8  9  2  0  0  0
  9 10  1  0  0  0
 10 11  1  0  0  0
 11 12  1  0  0  0
 12 13  1  0  0  0
 13  3  1  0  0  0
  3  1  1  0  0  0
  1  2  1  0  0  0
  1 16  1  0  0  0
 16 17  1  0  0  0
 17 18  1  0  0  0
 18 19  2  0  0  0
 19 20  1  0  0  0
 20 21  2  0  0  0
 21 22  1  0  0  0
 22 23  2  0  0  0
 22 24  1  0  0  0
 24 25  1  0  0  0
 25 27  1  0  0  0
 27 28  1  0  0  0
 27 29  2  0  0  0
 27 30  2  0  0  0
 25 26  1  0  0  0
  9  4  1  0  0  0
 23 18  1  0  0  0
 13  8  1  0  0  0
 26 21  1  0  0  0
M  END
> <minimizedAffinity>
-7.13091

> <CNNscore>
0.4571285546

> <CNNaffinity>
6.9665002823

> <CNN_VS>
3.1845862865

> <CNNaffinity_variance>
0.0384269357

$$$$
[H]c1c([H])c(OC([H])([H])[H])c2c(c1[H])[C@]([H])(C([H])([H])N(C([H])([H])[H])C([H])([H])C([H])([H])c1c([H])c([H])c3c(c1[H])C([H])([H])N(S(=O)(=O)C([H])([H])[H])C3([H])[H])C([H])([H])C([H])([H])C2([H])[H]


 30 33  0  0  0  0  0  0  0  0999 V2000
   11.5700   21.2078   -0.4580 N   0  0  0  0  0  0  0  0  0  0  0  0
   10.4899   21.3820   -1.3254 C   0  0  0  0  0  0  0  0  0  0  0  0
   11.4107   21.1249    0.9128 C   0  0  0  0  0  0  0  0  0  0  0  0
    9.3195   22.8043    5.0196 C   0  0  0  0  0  0  0  0  0  0  0  0
   10.0258   21.8615    5.7553 C   0  0  0  0  0  0  0  0  0  0  0  0
   10.8832   20.9992    5.0684 C   0  0  0  0  0  0  0  0  0  0  0  0
   11.0512   21.0527    3.6935 C   0  0  0  0  0  0  0  0  0  0  0  0
   10.3462   21.9926    2.9620 C   0  0  0  0  0  0  0  0  0  0  0  0
    9.5121   22.8272    3.6573 C   0  0  0  0  0  0  0  0  0  0  0  0
    8.8015   23.8426    2.7938 C   0  0  0  0  0  0  0  0  0  0  0  0
    9.8877   24.5101    1.9610 C   0  0  0  0  0  0  0  0  0  0  0  0
   10.5668   23.5102    1.0540 C   0  0  0  0  0  0  0  0  0  0  0  0
   10.4314   22.1014    1.4921 C   0  0  0  0  0  0  0  0  0  0  0  0
    8.6173   25.1129    5.5216 C   0  0  0  0  0  0  0  0  0  0  0  0
    8.4330   23.7155    5.6159 O   0  0  0  0  0  0  0  0  0  0  0  0
   12.8812   21.2593   -0.9898 C   0  0  0  0  0  0  0  0  0  0  0  0
   13.7688   22.3642   -0.5233 C   0  0  0  0  0  0  0  0  0  0  0  0
   13.6460   23.5683   -1.4235 C   0  0  0  0  0  0  0  0  0  0  0  0
   12.7879   24.6144   -1.1853 C   0  0  0  0  0  0  0  0  0  0  0  0
   12.6805   25.6947   -2.0276 C   0  0  0  0  0  0  0  0  0  0  0  0
   13.4525   25.7786   -3.1835 C   0  0  0  0  0  0  0  0  0  0  0  0
   14.3064   24.7463   -3.4288 C   0  0  0  0  0  0  0  0  0  0  0  0
   14.4149   23.6453   -2.5678 C   0  0  0  0  0  0  0  0  0  0  0  0
   15.0340   25.0067   -4.6996 C   0  0  0  0  0  0  0  0  0  0  0  0
   14.6661   26.3415   -5.0483 N   0  0  0  0  0  0  0  0  0  0  0  0
   13.5665   26.7805   -4.2572 C   0  0  0  0  0  0  0  0  0  0  0  0
   15.9642   27.4591   -4.8288 S   0  0  0  0  0  0  0  0  0  0  0  0
   16.8953   27.0979   -3.3671 C   0  0  0  0  0  0  0  0  0  0  0  0
   16.8331   27.3806   -6.0511 O   0  0  0  0  0  0  0  0  0  0  0  0
   15.4104   28.8659   -4.8014 O   0  0  0  0  0  0  0  0  0  0  0  0
 14 15  1  0  0  0
 15  4  1  0  0  0
  4  5  2  0  0  0
  5  6  1  0  0  0
  6  7  2  0  0  0
  7  8  1  0  0  0
  8  9  2  0  0  0
  9 10  1  0  0  0
 10 11  1  0  0  0
 11 12  1  0  0  0
 12 13  1  0  0  0
 13  3  1  0  0  0
  3  1  1  0  0  0
  1  2  1  0  0  0
  1 16  1  0  0  0
 16 17  1  0  0  0
 17 18  1  0  0  0
 18 19  2  0  0  0
 19 20  1  0  0  0
 20 21  2  0  0  0
 21 22  1  0  0  0
 22 23  2  0  0  0
 22 24  1  0  0  0
 24 25  1  0  0  0
 25 27  1  0  0  0
 27 28  1  0  0  0
 27 29  2  0  0  0
 27 30  2  0  0  0
 25 26  1  0  0  0
  9  4  1  0  0  0
 23 18  1  0  0  0
 13  8  1  0  0  0
 26 21  1  0  0  0
M  END
> <minimizedAffinity>
-8.25923

> <CNNscore>
0.4493527710

> <CNNaffinity>
6.8956437111

> <CNN_VS>
3.0985765457

> <CNNaffinity_variance>
0.1737979949

$$$$
[H]c1c([H])c(OC([H])([H])[H])c2c(c1[H])[C@]([H])(C([H])([H])N(C([H])([H])[H])C([H])([H])C([H])([H])c1c([H])c([H])c3c(c1[H])C([H])([H])N(S(=O)(=O)C([H])([H])[H])C3([H])[H])C([H])([H])C([H])([H])C2([H])[H]


 30 33  0  0  0  0  0  0  0  0999 V2000
   13.7147   21.8082    1.0673 N   0  0  0  0  0  0  0  0  0  0  0  0
   15.0251   21.5605    0.6539 C   0  0  0  0  0  0  0  0  0  0  0  0
   12.8517   20.7926    1.4350 C   0  0  0  0  0  0  0  0  0  0  0  0
    7.9763   21.0531    0.9638 C   0  0  0  0  0  0  0  0  0  0  0  0
    7.8762   21.4373    2.2947 C   0  0  0  0  0  0  0  0  0  0  0  0
    9.0542   21.5535    3.0360 C   0  0  0  0  0  0  0  0  0  0  0  0
   10.3049   21.3017    2.4939 C   0  0  0  0  0  0  0  0  0  0  0  0
   10.4026   20.9185    1.1676 C   0  0  0  0  0  0  0  0  0  0  0  0
    9.2343   20.8118    0.4611 C   0  0  0  0  0  0  0  0  0  0  0  0
    9.4258   20.4184   -0.9847 C   0  0  0  0  0  0  0  0  0  0  0  0
   10.4684   21.3792   -1.5404 C   0  0  0  0  0  0  0  0  0  0  0  0
   11.7904   21.2167   -0.8267 C   0  0  0  0  0  0  0  0  0  0  0  0
   11.6858   20.5939    0.5134 C   0  0  0  0  0  0  0  0  0  0  0  0
    6.0914   22.0158   -0.2992 C   0  0  0  0  0  0  0  0  0  0  0  0
    6.8522   20.9075    0.1350 O   0  0  0  0  0  0  0  0  0  0  0  0
   13.2121   23.1283    0.9714 C   0  0  0  0  0  0  0  0  0  0  0  0
   14.1904   24.2164    0.6791 C   0  0  0  0  0  0  0  0  0  0  0  0
   13.9426   24.8092   -0.6856 C   0  0  0  0  0  0  0  0  0  0  0  0
   12.8398   25.5660   -0.9997 C   0  0  0  0  0  0  0  0  0  0  0  0
   12.6258   26.0833   -2.2545 C   0  0  0  0  0  0  0  0  0  0  0  0
   13.5359   25.8588   -3.2844 C   0  0  0  0  0  0  0  0  0  0  0  0
   14.6326   25.1095   -2.9831 C   0  0  0  0  0  0  0  0  0  0  0  0
   14.8494   24.5831   -1.7020 C   0  0  0  0  0  0  0  0  0  0  0  0
   15.4782   24.9720   -4.1990 C   0  0  0  0  0  0  0  0  0  0  0  0
   14.8752   25.8519   -5.1480 N   0  0  0  0  0  0  0  0  0  0  0  0
   13.5901   26.2688   -4.6981 C   0  0  0  0  0  0  0  0  0  0  0  0
   15.8278   27.2642   -5.4320 S   0  0  0  0  0  0  0  0  0  0  0  0
   16.5057   27.2752   -7.0673 C   0  0  0  0  0  0  0  0  0  0  0  0
   14.9391   28.4545   -5.2119 O   0  0  0  0  0  0  0  0  0  0  0  0
   16.9111   27.3533   -4.3808 O   0  0  0  0  0  0  0  0  0  0  0  0
 14 15  1  0  0  0
 15  4  1  0  0  0
  4  5  2  0  0  0
  5  6  1  0  0  0
  6  7  2  0  0  0
  7  8  1  0  0  0
  8  9  2  0  0  0
  9 10  1  0  0  0
 10 11  1  0  0  0
 11 12  1  0  0  0
 12 13  1  0  0  0
 13  3  1  0  0  0
  3  1  1  0  0  0
  1  2  1  0  0  0
  1 16  1  0  0  0
 16 17  1  0  0  0
 17 18  1  0  0  0
 18 19  2  0  0  0
 19 20  1  0  0  0
 20 21  2  0  0  0
 21 22  1  0  0  0
 22 23  2  0  0  0
 22 24  1  0  0  0
 24 25  1  0  0  0
 25 27  1  0  0  0
 27 28  1  0  0  0
 27 29  2  0  0  0
 27 30  2  0  0  0
 25 26  1  0  0  0
  9  4  1  0  0  0
 23 18  1  0  0  0
 13  8  1  0  0  0
 26 21  1  0  0  0
M  END
> <minimizedAffinity>
-6.27934

> <CNNscore>
0.4130108654

> <CNNaffinity>
7.2565870285

> <CNN_VS>
2.9970493317

> <CNNaffinity_variance>
0.1261071861

$$$$
[H]c1c([H])c(OC([H])([H])[H])c2c(c1[H])[C@]([H])(C([H])([H])N(C([H])([H])[H])C([H])([H])C([H])([H])c1c([H])c([H])c3c(c1[H])C([H])([H])N(S(=O)(=O)C([H])([H])[H])C3([H])[H])C([H])([H])C([H])([H])C2([H])[H]


 30 33  0  0  0  0  0  0  0  0999 V2000
   12.3386   23.6645    0.5241 N   0  0  0  0  0  0  0  0  0  0  0  0
   11.7234   24.8596    0.1467 C   0  0  0  0  0  0  0  0  0  0  0  0
   11.6535   22.4646    0.5742 C   0  0  0  0  0  0  0  0  0  0  0  0
    8.7508   21.0455    4.2646 C   0  0  0  0  0  0  0  0  0  0  0  0
    7.6509   21.5504    3.5831 C   0  0  0  0  0  0  0  0  0  0  0  0
    7.8648   22.1418    2.3360 C   0  0  0  0  0  0  0  0  0  0  0  0
    9.1230   22.2400    1.7626 C   0  0  0  0  0  0  0  0  0  0  0  0
   10.2178   21.7367    2.4434 C   0  0  0  0  0  0  0  0  0  0  0  0
    9.9833   21.1612    3.6638 C   0  0  0  0  0  0  0  0  0  0  0  0
   11.2220   20.6102    4.3301 C   0  0  0  0  0  0  0  0  0  0  0  0
   11.8978   19.7322    3.2855 C   0  0  0  0  0  0  0  0  0  0  0  0
   12.3277   20.5474    2.0880 C   0  0  0  0  0  0  0  0  0  0  0  0
   11.5993   21.8278    1.9306 C   0  0  0  0  0  0  0  0  0  0  0  0
    7.8272   19.2984    5.7375 C   0  0  0  0  0  0  0  0  0  0  0  0
    8.6410   20.4331    5.5234 O   0  0  0  0  0  0  0  0  0  0  0  0
   13.6693   23.7101    1.0057 C   0  0  0  0  0  0  0  0  0  0  0  0
   14.6644   22.8039    0.3615 C   0  0  0  0  0  0  0  0  0  0  0  0
   14.9026   23.2016   -1.0739 C   0  0  0  0  0  0  0  0  0  0  0  0
   14.6365   22.3848   -2.1461 C   0  0  0  0  0  0  0  0  0  0  0  0
   14.8761   22.7614   -3.4455 C   0  0  0  0  0  0  0  0  0  0  0  0
   15.4102   24.0135   -3.7392 C   0  0  0  0  0  0  0  0  0  0  0  0
   15.6777   24.8309   -2.6832 C   0  0  0  0  0  0  0  0  0  0  0  0
   15.4319   24.4448   -1.3581 C   0  0  0  0  0  0  0  0  0  0  0  0
   16.2450   26.1099   -3.1879 C   0  0  0  0  0  0  0  0  0  0  0  0
   16.0999   26.0237   -4.6057 N   0  0  0  0  0  0  0  0  0  0  0  0
   15.7689   24.6946   -4.9951 C   0  0  0  0  0  0  0  0  0  0  0  0
   14.8720   27.0794   -5.2056 S   0  0  0  0  0  0  0  0  0  0  0  0
   13.3836   26.9548   -4.2553 C   0  0  0  0  0  0  0  0  0  0  0  0
   15.4219   28.4761   -5.1601 O   0  0  0  0  0  0  0  0  0  0  0  0
   14.6255   26.7765   -6.6665 O   0  0  0  0  0  0  0  0  0  0  0  0
 14 15  1  0  0  0
 15  4  1  0  0  0
  4  5  2  0  0  0
  5  6  1  0  0  0
  6  7  2  0  0  0
  7  8  1  0  0  0
  8  9  2  0  0  0
  9 10  1  0  0  0
 10 11  1  0  0  0
 11 12  1  0  0  0
 12 13  1  0  0  0
 13  3  1  0  0  0
  3  1  1  0  0  0
  1  2  1  0  0  0
  1 16  1  0  0  0
 16 17  1  0  0  0
 17 18  1  0  0  0
 18 19  2  0  0  0
 19 20  1  0  0  0
 20 21  2  0  0  0
 21 22  1  0  0  0
 22 23  2  0  0  0
 22 24  1  0  0  0
 24 25  1  0  0  0
 25 27  1  0  0  0
 27 28  1  0  0  0
 27 29  2  0  0  0
 27 30  2  0  0  0
 25 26  1  0  0  0
  9  4  1  0  0  0
 23 18  1  0  0  0
 13  8  1  0  0  0
 26 21  1  0  0  0
M  END
> <minimizedAffinity>
-7.51239

> <CNNscore>
0.3994866610

> <CNNaffinity>
6.8506903648

> <CNN_VS>
2.7367594242

> <CNNaffinity_variance>
0.0895329267

$$$$
[H]c1c([H])c(OC([H])([H])[H])c2c(c1[H])[C@]([H])(C([H])([H])N(C([H])([H])[H])C([H])([H])C([H])([H])c1c([H])c([H])c3c(c1[H])C([H])([H])N(S(=O)(=O)C([H])([H])[H])C3([H])[H])C([H])([H])C([H])([H])C2([H])[H]


 30 33  0  0  0  0  0  0  0  0999 V2000
   12.0284   21.4606   -0.2968 N   0  0  0  0  0  0  0  0  0  0  0  0
   12.8319   20.4124   -0.7495 C   0  0  0  0  0  0  0  0  0  0  0  0
   10.7586   21.6862   -0.7949 C   0  0  0  0  0  0  0  0  0  0  0  0
    6.2385   20.5813    0.7568 C   0  0  0  0  0  0  0  0  0  0  0  0
    6.0756   19.7440   -0.3393 C   0  0  0  0  0  0  0  0  0  0  0  0
    7.1354   19.6281   -1.2416 C   0  0  0  0  0  0  0  0  0  0  0  0
    8.3302   20.3122   -1.0811 C   0  0  0  0  0  0  0  0  0  0  0  0
    8.4906   21.1464    0.0115 C   0  0  0  0  0  0  0  0  0  0  0  0
    7.4381   21.2436    0.8824 C   0  0  0  0  0  0  0  0  0  0  0  0
    7.7005   22.1489    2.0629 C   0  0  0  0  0  0  0  0  0  0  0  0
    9.0268   21.6870    2.6517 C   0  0  0  0  0  0  0  0  0  0  0  0
   10.1522   21.8656    1.6591 C   0  0  0  0  0  0  0  0  0  0  0  0
    9.7112   21.9431    0.2469 C   0  0  0  0  0  0  0  0  0  0  0  0
    5.1204   19.9339    2.8557 C   0  0  0  0  0  0  0  0  0  0  0  0
    5.2334   20.7661    1.7197 O   0  0  0  0  0  0  0  0  0  0  0  0
   12.5870   22.4047    0.5983 C   0  0  0  0  0  0  0  0  0  0  0  0
   13.8869   23.0291    0.2151 C   0  0  0  0  0  0  0  0  0  0  0  0
   13.6990   24.0095   -0.9157 C   0  0  0  0  0  0  0  0  0  0  0  0
   12.7413   24.9945   -0.9202 C   0  0  0  0  0  0  0  0  0  0  0  0
   12.5771   25.8674   -1.9685 C   0  0  0  0  0  0  0  0  0  0  0  0
   13.3910   25.7907   -3.0959 C   0  0  0  0  0  0  0  0  0  0  0  0
   14.3437   24.8174   -3.1013 C   0  0  0  0  0  0  0  0  0  0  0  0
   14.5099   23.9282   -2.0303 C   0  0  0  0  0  0  0  0  0  0  0  0
   15.1030   24.8853   -4.3784 C   0  0  0  0  0  0  0  0  0  0  0  0
   14.6343   26.0807   -5.0030 N   0  0  0  0  0  0  0  0  0  0  0  0
   13.4648   26.5620   -4.3486 C   0  0  0  0  0  0  0  0  0  0  0  0
   15.8165   27.3394   -4.9823 S   0  0  0  0  0  0  0  0  0  0  0  0
   16.9289   27.1666   -3.6161 C   0  0  0  0  0  0  0  0  0  0  0  0
   16.5567   27.2790   -6.2875 O   0  0  0  0  0  0  0  0  0  0  0  0
   15.1161   28.6795   -4.9625 O   0  0  0  0  0  0  0  0  0  0  0  0
 14 15  1  0  0  0
 15  4  1  0  0  0
  4  5  2  0  0  0
  5  6  1  0  0  0
  6  7  2  0  0  0
  7  8  1  0  0  0
  8  9  2  0  0  0
  9 10  1  0  0  0
 10 11  1  0  0  0
 11 12  1  0  0  0
 12 13  1  0  0  0
 13  3  1  0  0  0
  3  1  1  0  0  0
  1  2  1  0  0  0
  1 16  1  0  0  0
 16 17  1  0  0  0
 17 18  1  0  0  0
 18 19  2  0  0  0
 19 20  1  0  0  0
 20 21  2  0  0  0
 21 22  1  0  0  0
 22 23  2  0  0  0
 22 24  1  0  0  0
 24 25  1  0  0  0
 25 27  1  0  0  0
 27 28  1  0  0  0
 27 29  2  0  0  0
 27 30  2  0  0  0
 25 26  1  0  0  0
  9  4  1  0  0  0
 23 18  1  0  0  0
 13  8  1  0  0  0
 26 21  1  0  0  0
M  END
> <minimizedAffinity>
-7.80157

> <CNNscore>
0.3980189860

> <CNNaffinity>
6.8899450302

> <CNN_VS>
2.7423288822

> <CNNaffinity_variance>
0.0310284290

$$$$
[H]c1c([H])c(OC([H])([H])[H])c2c(c1[H])[C@]([H])(C([H])([H])N(C([H])([H])[H])C([H])([H])C([H])([H])c1c([H])c([H])c3c(c1[H])C([H])([H])N(S(=O)(=O)C([H])([H])[H])C3([H])[H])C([H])([H])C([H])([H])C2([H])[H]


 30 33  0  0  0  0  0  0  0  0999 V2000
   12.5755   21.0501    0.1786 N   0  0  0  0  0  0  0  0  0  0  0  0
   12.9967   20.4933   -1.0304 C   0  0  0  0  0  0  0  0  0  0  0  0
   11.4796   20.5697    0.8712 C   0  0  0  0  0  0  0  0  0  0  0  0
    8.1842   23.1854    3.3926 C   0  0  0  0  0  0  0  0  0  0  0  0
    8.8058   22.8118    4.5771 C   0  0  0  0  0  0  0  0  0  0  0  0
    9.9258   21.9811    4.4984 C   0  0  0  0  0  0  0  0  0  0  0  0
   10.4319   21.5231    3.2919 C   0  0  0  0  0  0  0  0  0  0  0  0
    9.8109   21.8961    2.1126 C   0  0  0  0  0  0  0  0  0  0  0  0
    8.7151   22.7112    2.2150 C   0  0  0  0  0  0  0  0  0  0  0  0
    8.1117   23.0974    0.8850 C   0  0  0  0  0  0  0  0  0  0  0  0
    9.2678   23.6189    0.0421 C   0  0  0  0  0  0  0  0  0  0  0  0
   10.2937   22.5361   -0.2003 C   0  0  0  0  0  0  0  0  0  0  0  0
   10.2544   21.4295    0.7839 C   0  0  0  0  0  0  0  0  0  0  0  0
    7.0654   25.3197    3.9101 C   0  0  0  0  0  0  0  0  0  0  0  0
    7.0527   24.0164    3.3650 O   0  0  0  0  0  0  0  0  0  0  0  0
   13.2062   22.2322    0.6363 C   0  0  0  0  0  0  0  0  0  0  0  0
   14.4451   22.6682   -0.0719 C   0  0  0  0  0  0  0  0  0  0  0  0
   14.1321   23.7276   -1.0989 C   0  0  0  0  0  0  0  0  0  0  0  0
   13.1588   24.6836   -0.9365 C   0  0  0  0  0  0  0  0  0  0  0  0
   12.8793   25.6302   -1.8924 C   0  0  0  0  0  0  0  0  0  0  0  0
   13.5846   25.6630   -3.0927 C   0  0  0  0  0  0  0  0  0  0  0  0
   14.5516   24.7193   -3.2635 C   0  0  0  0  0  0  0  0  0  0  0  0
   14.8357   23.7547   -2.2867 C   0  0  0  0  0  0  0  0  0  0  0  0
   15.1856   24.9064   -4.5960 C   0  0  0  0  0  0  0  0  0  0  0  0
   14.6366   26.1333   -5.0775 N   0  0  0  0  0  0  0  0  0  0  0  0
   13.5246   26.5306   -4.2816 C   0  0  0  0  0  0  0  0  0  0  0  0
   15.7902   27.4183   -5.0662 S   0  0  0  0  0  0  0  0  0  0  0  0
   16.8936   27.2916   -3.6876 C   0  0  0  0  0  0  0  0  0  0  0  0
   16.5435   27.3542   -6.3636 O   0  0  0  0  0  0  0  0  0  0  0  0
   15.0601   28.7425   -5.0736 O   0  0  0  0  0  0  0  0  0  0  0  0
 14 15  1  0  0  0
 15  4  1  0  0  0
  4  5  2  0  0  0
  5  6  1  0  0  0
  6  7  2  0  0  0
  7  8  1  0  0  0
  8  9  2  0  0  0
  9 10  1  0  0  0
 10 11  1  0  0  0
 11 12  1  0  0  0
 12 13  1  0  0  0
 13  3  1  0  0  0
  3  1  1  0  0  0
  1  2  1  0  0  0
  1 16  1  0  0  0
 16 17  1  0  0  0
 17 18  1  0  0  0
 18 19  2  0  0  0
 19 20  1  0  0  0
 20 21  2  0  0  0
 21 22  1  0  0  0
 22 23  2  0  0  0
 22 24  1  0  0  0
 24 25  1  0  0  0
 25 27  1  0  0  0
 27 28  1  0  0  0
 27 29  2  0  0  0
 27 30  2  0  0  0
 25 26  1  0  0  0
  9  4  1  0  0  0
 23 18  1  0  0  0
 13  8  1  0  0  0
 26 21  1  0  0  0
M  END
> <minimizedAffinity>
-8.20941

> <CNNscore>
0.3867914379

> <CNNaffinity>
7.0987749100

> <CNN_VS>
2.7457454205

> <CNNaffinity_variance>
0.0171857737

$$$$
[H]c1c([H])c(OC([H])([H])[H])c2c(c1[H])[C@]([H])(C([H])([H])N(C([H])([H])[H])C([H])([H])C([H])([H])c1c([H])c([H])c3c(c1[H])C([H])([H])N(S(=O)(=O)C([H])([H])[H])C3([H])[H])C([H])([H])C([H])([H])C2([H])[H]


 30 33  0  0  0  0  0  0  0  0999 V2000
   11.5245   23.1407    0.2014 N   0  0  0  0  0  0  0  0  0  0  0  0
   10.8848   23.9777   -0.7149 C   0  0  0  0  0  0  0  0  0  0  0  0
   10.9689   21.9478    0.6253 C   0  0  0  0  0  0  0  0  0  0  0  0
    6.2027   20.8495    0.9939 C   0  0  0  0  0  0  0  0  0  0  0  0
    6.2644   20.2048   -0.2347 C   0  0  0  0  0  0  0  0  0  0  0  0
    7.4911   20.1772   -0.9020 C   0  0  0  0  0  0  0  0  0  0  0  0
    8.6352   20.7644   -0.3847 C   0  0  0  0  0  0  0  0  0  0  0  0
    8.5717   21.4068    0.8395 C   0  0  0  0  0  0  0  0  0  0  0  0
    7.3586   21.4204    1.4749 C   0  0  0  0  0  0  0  0  0  0  0  0
    7.3771   22.1137    2.8169 C   0  0  0  0  0  0  0  0  0  0  0  0
    8.5377   21.4964    3.5855 C   0  0  0  0  0  0  0  0  0  0  0  0
    9.8529   21.7701    2.8935 C   0  0  0  0  0  0  0  0  0  0  0  0
    9.7269   22.0918    1.4528 C   0  0  0  0  0  0  0  0  0  0  0  0
    4.6861   19.9794    2.7310 C   0  0  0  0  0  0  0  0  0  0  0  0
    5.0176   20.9326    1.7424 O   0  0  0  0  0  0  0  0  0  0  0  0
   12.7129   23.5973    0.8211 C   0  0  0  0  0  0  0  0  0  0  0  0
   13.9778   22.8751    0.4971 C   0  0  0  0  0  0  0  0  0  0  0  0
   14.4410   23.2038   -0.9003 C   0  0  0  0  0  0  0  0  0  0  0  0
   14.3643   22.3272   -1.9554 C   0  0  0  0  0  0  0  0  0  0  0  0
   14.8072   22.6419   -3.2174 C   0  0  0  0  0  0  0  0  0  0  0  0
   15.3648   23.8888   -3.4883 C   0  0  0  0  0  0  0  0  0  0  0  0
   15.4455   24.7652   -2.4489 C   0  0  0  0  0  0  0  0  0  0  0  0
   14.9924   24.4423   -1.1621 C   0  0  0  0  0  0  0  0  0  0  0  0
   16.0697   26.0289   -2.9238 C   0  0  0  0  0  0  0  0  0  0  0  0
   16.1587   25.8668   -4.3396 N   0  0  0  0  0  0  0  0  0  0  0  0
   15.9138   24.5124   -4.7047 C   0  0  0  0  0  0  0  0  0  0  0  0
   15.0305   26.8626   -5.1869 S   0  0  0  0  0  0  0  0  0  0  0  0
   13.4322   26.8294   -4.4264 C   0  0  0  0  0  0  0  0  0  0  0  0
   15.5883   28.2568   -5.2021 O   0  0  0  0  0  0  0  0  0  0  0  0
   14.9672   26.4237   -6.6326 O   0  0  0  0  0  0  0  0  0  0  0  0
 14 15  1  0  0  0
 15  4  1  0  0  0
  4  5  2  0  0  0
  5  6  1  0  0  0
  6  7  2  0  0  0
  7  8  1  0  0  0
  8  9  2  0  0  0
  9 10  1  0  0  0
 10 11  1  0  0  0
 11 12  1  0  0  0
 12 13  1  0  0  0
 13  3  1  0  0  0
  3  1  1  0  0  0
  1  2  1  0  0  0
  1 16  1  0  0  0
 16 17  1  0  0  0
 17 18  1  0  0  0
 18 19  2  0  0  0
 19 20  1  0  0  0
 20 21  2  0  0  0
 21 22  1  0  0  0
 22 23  2  0  0  0
 22 24  1  0  0  0
 24 25  1  0  0  0
 25 27  1  0  0  0
 27 28  1  0  0  0
 27 29  2  0  0  0
 27 30  2  0  0  0
 25 26  1  0  0  0
  9  4  1  0  0  0
 23 18  1  0  0  0
 13  8  1  0  0  0
 26 21  1  0  0  0
M  END
> <minimizedAffinity>
-7.54396

> <CNNscore>
0.3675526977

> <CNNaffinity>
6.8077025414

> <CNN_VS>
2.5021893978

> <CNNaffinity_variance>
0.0543351173

$$$$
[H]N=C(c1c([H])c([H])c(C([H])([H])N([H])C(=O)C2([H])N3C(=O)[C@](O[H])(C([H])([H])c4c([H])c([H])c([H])c([H])c4[H])C([H])([H])C([H])([H])[C@]3([H])C([H])([H])C2([H])[H])c([H])c1[H])N([H])[H]


 36 39  0  0  0  0  0  0  0  0999 V2000
   11.2280   23.6320    1.6276 C   0  0  0  0  0  0  0  0  0  0  0  0
    9.9096   22.9610    1.9498 C   0  0  0  0  0  0  0  0  0  0  0  0
    9.8624   21.8863    0.8744 C   0  0  0  0  0  0  0  0  0  0  0  0
   11.2716   21.3435    0.9424 C   0  0  0  0  0  0  0  0  0  0  0  0
   11.7047   20.7263   -0.3608 C   0  0  0  0  0  0  0  0  0  0  0  0
   13.1588   20.3870   -0.3603 C   0  0  0  0  0  0  0  0  0  0  0  0
   13.9324   20.9642    0.7919 C   0  0  0  0  0  0  0  0  0  0  0  0
   13.7469   20.2041    1.9590 O   0  0  0  0  0  0  0  0  0  0  0  0
   13.4872   22.3677    0.9967 C   0  0  0  0  0  0  0  0  0  0  0  0
   14.2352   23.3628    0.9959 O   0  0  0  0  0  0  0  0  0  0  0  0
   12.0789   22.5443    1.2084 N   0  0  0  0  0  0  0  0  0  0  0  0
   13.6658   19.2573    1.6372 H   0  0  0  0  0  0  0  0  0  0  0  0
   11.0405   24.0357   -0.8226 N   0  0  0  0  0  0  0  0  0  0  0  0
   10.9450   24.5741    0.4863 C   0  0  0  0  0  0  0  0  0  0  0  0
   10.6433   25.7611    0.6672 O   0  0  0  0  0  0  0  0  0  0  0  0
   11.2991   23.0218   -0.9931 H   0  0  0  0  0  0  0  0  0  0  0  0
   10.7964   24.8126   -2.0255 C   0  0  0  0  0  0  0  0  0  0  0  0
   14.5395   26.2902   -3.4487 C   0  0  0  0  0  0  0  0  0  0  0  0
   13.3700   26.9579   -3.6829 C   0  0  0  0  0  0  0  0  0  0  0  0
   12.1305   26.5133   -3.2360 C   0  0  0  0  0  0  0  0  0  0  0  0
   12.0791   25.3474   -2.5256 C   0  0  0  0  0  0  0  0  0  0  0  0
   13.2369   24.6559   -2.2752 C   0  0  0  0  0  0  0  0  0  0  0  0
   14.4736   25.1010   -2.7219 C   0  0  0  0  0  0  0  0  0  0  0  0
   16.8499   27.0057   -3.1926 N   0  0  0  0  0  0  0  0  0  0  0  0
   15.8275   26.7721   -3.9256 C   0  0  0  0  0  0  0  0  0  0  0  0
   16.0114   27.0192   -5.3310 N   0  0  0  0  0  0  0  0  0  0  0  0
   16.7947   26.8520   -2.1745 H   0  0  0  0  0  0  0  0  0  0  0  0
   15.9538   26.2402   -6.0203 H   0  0  0  0  0  0  0  0  0  0  0  0
   16.2036   27.9947   -5.6451 H   0  0  0  0  0  0  0  0  0  0  0  0
   15.4089   20.9006    0.4794 C   0  0  0  0  0  0  0  0  0  0  0  0
   16.0549   22.2109    0.4532 C   0  0  0  0  0  0  0  0  0  0  0  0
   17.0199   22.6016    1.3606 C   0  0  0  0  0  0  0  0  0  0  0  0
   17.6081   23.8552    1.3050 C   0  0  0  0  0  0  0  0  0  0  0  0
   17.2372   24.7531    0.3284 C   0  0  0  0  0  0  0  0  0  0  0  0
   16.2858   24.3867   -0.5774 C   0  0  0  0  0  0  0  0  0  0  0  0
   15.6991   23.1251   -0.5154 C   0  0  0  0  0  0  0  0  0  0  0  0
 24 25  2  0  0  0
 25 26  1  0  0  0
 25 18  1  0  0  0
 18 19  2  0  0  0
 19 20  1  0  0  0
 20 21  2  0  0  0
 21 17  1  0  0  0
 17 13  1  0  0  0
 13 14  1  0  0  0
 14 15  2  0  0  0
 14  1  1  0  0  0
  1  2  1  0  0  0
  2  3  1  0  0  0
  3  4  1  0  0  0
  4  5  1  0  0  0
  5  6  1  0  0  0
  6  7  1  0  0  0
  7  8  1  0  0  0
  7 30  1  0  0  0
 30 31  1  0  0  0
 31 32  2  0  0  0
 32 33  1  0  0  0
 33 34  2  0  0  0
 34 35  1  0  0  0
 35 36  2  0  0  0
  7  9  1  0  0  0
  9 10  2  0  0  0
  9 11  1  0  0  0
 21 22  1  0  0  0
 22 23  2  0  0  0
 23 18  1  0  0  0
 11  1  1  0  0  0
 11  4  1  0  0  0
 36 31  1  0  0  0
 24 27  1  0  0  0
 26 28  1  0  0  0
 26 29  1  0  0  0
 13 16  1  0  0  0
  8 12  1  0  0  0
M  END
> <minimizedAffinity>
-1.18989

> <CNNscore>
0.6396573782

> <CNNaffinity>
7.3783898354

> <CNN_VS>
4.7196416855

> <CNNaffinity_variance>
0.6035963893

$$$$
[H]N=C(c1c([H])c([H])c(C([H])([H])N([H])C(=O)C2([H])N3C(=O)[C@](O[H])(C([H])([H])c4c([H])c([H])c([H])c([H])c4[H])C([H])([H])C([H])([H])[C@]3([H])C([H])([H])C2([H])[H])c([H])c1[H])N([H])[H]


 36 39  0  0  0  0  0  0  0  0999 V2000
   12.5224   25.5055   -0.5798 C   0  0  0  0  0  0  0  0  0  0  0  0
   11.1583   25.2524    0.0262 C   0  0  0  0  0  0  0  0  0  0  0  0
   10.9303   23.8022   -0.3720 C   0  0  0  0  0  0  0  0  0  0  0  0
   12.2719   23.1927   -0.0350 C   0  0  0  0  0  0  0  0  0  0  0  0
   12.5582   21.9634   -0.8558 C   0  0  0  0  0  0  0  0  0  0  0  0
   13.9632   21.4900   -0.6783 C   0  0  0  0  0  0  0  0  0  0  0  0
   14.8610   22.4595    0.0383 C   0  0  0  0  0  0  0  0  0  0  0  0
   14.6593   22.4057    1.4278 O   0  0  0  0  0  0  0  0  0  0  0  0
   14.5871   23.8237   -0.4850 C   0  0  0  0  0  0  0  0  0  0  0  0
   15.4399   24.5858   -0.9768 O   0  0  0  0  0  0  0  0  0  0  0  0
   13.2217   24.2562   -0.3972 N   0  0  0  0  0  0  0  0  0  0  0  0
   14.4551   21.4423    1.6194 H   0  0  0  0  0  0  0  0  0  0  0  0
   13.3056   26.4819   -2.7326 N   0  0  0  0  0  0  0  0  0  0  0  0
   12.2810   25.7871   -2.0401 C   0  0  0  0  0  0  0  0  0  0  0  0
   11.2448   25.4358   -2.6194 O   0  0  0  0  0  0  0  0  0  0  0  0
   14.1976   26.7902   -2.2497 H   0  0  0  0  0  0  0  0  0  0  0  0
   13.2253   26.8266   -4.1414 C   0  0  0  0  0  0  0  0  0  0  0  0
   10.0195   29.5909   -4.6904 C   0  0  0  0  0  0  0  0  0  0  0  0
   10.0939   28.4289   -5.4063 C   0  0  0  0  0  0  0  0  0  0  0  0
   11.1187   27.5008   -5.2574 C   0  0  0  0  0  0  0  0  0  0  0  0
   12.1032   27.7647   -4.3476 C   0  0  0  0  0  0  0  0  0  0  0  0
   12.0546   28.9230   -3.6147 C   0  0  0  0  0  0  0  0  0  0  0  0
   11.0308   29.8486   -3.7644 C   0  0  0  0  0  0  0  0  0  0  0  0
    7.8182   30.5235   -4.2437 N   0  0  0  0  0  0  0  0  0  0  0  0
    8.9384   30.5503   -4.8614 C   0  0  0  0  0  0  0  0  0  0  0  0
    9.0997   31.6360   -5.7916 N   0  0  0  0  0  0  0  0  0  0  0  0
    7.6289   29.7747   -3.5606 H   0  0  0  0  0  0  0  0  0  0  0  0
    9.8316   32.3618   -5.6406 H   0  0  0  0  0  0  0  0  0  0  0  0
    8.4684   31.6809   -6.6203 H   0  0  0  0  0  0  0  0  0  0  0  0
   16.3008   22.0657   -0.1928 C   0  0  0  0  0  0  0  0  0  0  0  0
   17.2602   22.9868    0.4124 C   0  0  0  0  0  0  0  0  0  0  0  0
   16.9376   23.8579    1.4344 C   0  0  0  0  0  0  0  0  0  0  0  0
   17.8754   24.7194    1.9812 C   0  0  0  0  0  0  0  0  0  0  0  0
   19.1698   24.7259    1.5099 C   0  0  0  0  0  0  0  0  0  0  0  0
   19.5086   23.8732    0.5010 C   0  0  0  0  0  0  0  0  0  0  0  0
   18.5608   23.0102   -0.0436 C   0  0  0  0  0  0  0  0  0  0  0  0
 24 25  2  0  0  0
 25 26  1  0  0  0
 25 18  1  0  0  0
 18 19  2  0  0  0
 19 20  1  0  0  0
 20 21  2  0  0  0
 21 17  1  0  0  0
 17 13  1  0  0  0
 13 14  1  0  0  0
 14 15  2  0  0  0
 14  1  1  0  0  0
  1  2  1  0  0  0
  2  3  1  0  0  0
  3  4  1  0  0  0
  4  5  1  0  0  0
  5  6  1  0  0  0
  6  7  1  0  0  0
  7  8  1  0  0  0
  7 30  1  0  0  0
 30 31  1  0  0  0
 31 32  2  0  0  0
 32 33  1  0  0  0
 33 34  2  0  0  0
 34 35  1  0  0  0
 35 36  2  0  0  0
  7  9  1  0  0  0
  9 10  2  0  0  0
  9 11  1  0  0  0
 21 22  1  0  0  0
 22 23  2  0  0  0
 23 18  1  0  0  0
 11  1  1  0  0  0
 11  4  1  0  0  0
 36 31  1  0  0  0
 24 27  1  0  0  0
 26 28  1  0  0  0
 26 29  1  0  0  0
 13 16  1  0  0  0
  8 12  1  0  0  0
M  END
> <minimizedAffinity>
24.11798

> <CNNscore>
0.5839572549

> <CNNaffinity>
6.6157341003

> <CNN_VS>
3.8633058071

> <CNNaffinity_variance>
1.1653087139

$$$$
[H]N=C(c1c([H])c([H])c(C([H])([H])N([H])C(=O)C2([H])N3C(=O)[C@](O[H])(C([H])([H])c4c([H])c([H])c([H])c([H])c4[H])C([H])([H])C([H])([H])[C@]3([H])C([H])([H])C2([H])[H])c([H])c1[H])N([H])[H]


 36 39  0  0  0  0  0  0  0  0999 V2000
   10.8813   21.9598    0.8741 C   0  0  0  0  0  0  0  0  0  0  0  0
   10.1524   20.7166    0.4101 C   0  0  0  0  0  0  0  0  0  0  0  0
   10.9696   20.3444   -0.8177 C   0  0  0  0  0  0  0  0  0  0  0  0
   12.3773   20.5064   -0.2912 C   0  0  0  0  0  0  0  0  0  0  0  0
   13.3628   20.8027   -1.3902 C   0  0  0  0  0  0  0  0  0  0  0  0
   14.7047   21.1732   -0.8500 C   0  0  0  0  0  0  0  0  0  0  0  0
   14.7283   21.4405    0.6288 C   0  0  0  0  0  0  0  0  0  0  0  0
   14.7563   20.2414    1.3608 O   0  0  0  0  0  0  0  0  0  0  0  0
   13.5285   22.2464    0.9768 C   0  0  0  0  0  0  0  0  0  0  0  0
   13.5501   23.3480    1.5563 O   0  0  0  0  0  0  0  0  0  0  0  0
   12.2686   21.6735    0.5977 N   0  0  0  0  0  0  0  0  0  0  0  0
   15.3055   19.6141    0.8028 H   0  0  0  0  0  0  0  0  0  0  0  0
   11.3516   23.8684   -0.6548 N   0  0  0  0  0  0  0  0  0  0  0  0
   10.3736   23.0844    0.0094 C   0  0  0  0  0  0  0  0  0  0  0  0
    9.1663   23.3238   -0.1237 O   0  0  0  0  0  0  0  0  0  0  0  0
   12.3888   23.6762   -0.5495 H   0  0  0  0  0  0  0  0  0  0  0  0
   11.0242   24.9852   -1.5241 C   0  0  0  0  0  0  0  0  0  0  0  0
   14.3637   25.9479   -4.0021 C   0  0  0  0  0  0  0  0  0  0  0  0
   14.3055   24.7752   -3.3021 C   0  0  0  0  0  0  0  0  0  0  0  0
   13.2366   24.4217   -2.4859 C   0  0  0  0  0  0  0  0  0  0  0  0
   12.1896   25.2927   -2.3778 C   0  0  0  0  0  0  0  0  0  0  0  0
   12.2204   26.4771   -3.0688 C   0  0  0  0  0  0  0  0  0  0  0  0
   13.2882   26.8287   -3.8834 C   0  0  0  0  0  0  0  0  0  0  0  0
   16.4264   27.1178   -4.5421 N   0  0  0  0  0  0  0  0  0  0  0  0
   15.4923   26.3000   -4.8512 C   0  0  0  0  0  0  0  0  0  0  0  0
   15.6074   25.7020   -6.1547 N   0  0  0  0  0  0  0  0  0  0  0  0
   16.4124   27.5864   -3.6237 H   0  0  0  0  0  0  0  0  0  0  0  0
   15.7428   24.6744   -6.2587 H   0  0  0  0  0  0  0  0  0  0  0  0
   15.5524   26.3193   -6.9934 H   0  0  0  0  0  0  0  0  0  0  0  0
   15.9999   22.1765    0.9795 C   0  0  0  0  0  0  0  0  0  0  0  0
   16.1108   23.4846    0.3379 C   0  0  0  0  0  0  0  0  0  0  0  0
   15.3936   24.5934    0.7422 C   0  0  0  0  0  0  0  0  0  0  0  0
   15.5238   25.8177    0.1060 C   0  0  0  0  0  0  0  0  0  0  0  0
   16.3848   25.9576   -0.9601 C   0  0  0  0  0  0  0  0  0  0  0  0
   17.1024   24.8745   -1.3750 C   0  0  0  0  0  0  0  0  0  0  0  0
   16.9662   23.6473   -0.7307 C   0  0  0  0  0  0  0  0  0  0  0  0
 24 25  2  0  0  0
 25 26  1  0  0  0
 25 18  1  0  0  0
 18 19  2  0  0  0
 19 20  1  0  0  0
 20 21  2  0  0  0
 21 17  1  0  0  0
 17 13  1  0  0  0
 13 14  1  0  0  0
 14 15  2  0  0  0
 14  1  1  0  0  0
  1  2  1  0  0  0
  2  3  1  0  0  0
  3  4  1  0  0  0
  4  5  1  0  0  0
  5  6  1  0  0  0
  6  7  1  0  0  0
  7  8  1  0  0  0
  7 30  1  0  0  0
 30 31  1  0  0  0
 31 32  2  0  0  0
 32 33  1  0  0  0
 33 34  2  0  0  0
 34 35  1  0  0  0
 35 36  2  0  0  0
  7  9  1  0  0  0
  9 10  2  0  0  0
  9 11  1  0  0  0
 21 22  1  0  0  0
 22 23  2  0  0  0
 23 18  1  0  0  0
 11  1  1  0  0  0
 11  4  1  0  0  0
 36 31  1  0  0  0
 24 27  1  0  0  0
 26 28  1  0  0  0
 26 29  1  0  0  0
 13 16  1  0  0  0
  8 12  1  0  0  0
M  END
> <minimizedAffinity>
-3.17824

> <CNNscore>
0.5650126934

> <CNNaffinity>
7.4289345741

> <CNN_VS>
4.1974425316

> <CNNaffinity_variance>
0.3078838885

$$$$
[H]N=C(c1c([H])c([H])c(C([H])([H])N([H])C(=O)C2([H])N3C(=O)[C@](O[H])(C([H])([H])c4c([H])c([H])c([H])c([H])c4[H])C([H])([H])C([H])([H])[C@]3([H])C([H])([H])C2([H])[H])c([H])c1[H])N([H])[H]


 36 39  0  0  0  0  0  0  0  0999 V2000
   14.3270   25.2917   -4.4568 C   0  0  0  0  0  0  0  0  0  0  0  0
   15.7170   25.1193   -5.0316 C   0  0  0  0  0  0  0  0  0  0  0  0
   16.5731   25.5529   -3.8514 C   0  0  0  0  0  0  0  0  0  0  0  0
   15.8939   24.8237   -2.7148 C   0  0  0  0  0  0  0  0  0  0  0  0
   16.1110   25.5087   -1.3918 C   0  0  0  0  0  0  0  0  0  0  0  0
   15.2685   24.9140   -0.3118 C   0  0  0  0  0  0  0  0  0  0  0  0
   14.2045   23.9715   -0.8001 C   0  0  0  0  0  0  0  0  0  0  0  0
   14.7416   22.7055   -1.0886 O   0  0  0  0  0  0  0  0  0  0  0  0
   13.5716   24.5664   -2.0065 C   0  0  0  0  0  0  0  0  0  0  0  0
   12.3538   24.7881   -2.1399 O   0  0  0  0  0  0  0  0  0  0  0  0
   14.4696   24.8957   -3.0763 N   0  0  0  0  0  0  0  0  0  0  0  0
   15.4664   22.5741   -0.4074 H   0  0  0  0  0  0  0  0  0  0  0  0
   13.1028   27.2931   -3.6217 N   0  0  0  0  0  0  0  0  0  0  0  0
   14.0101   26.7602   -4.5730 C   0  0  0  0  0  0  0  0  0  0  0  0
   14.5090   27.4775   -5.4500 O   0  0  0  0  0  0  0  0  0  0  0  0
   12.6667   26.6910   -2.8660 H   0  0  0  0  0  0  0  0  0  0  0  0
   12.6978   28.6880   -3.5986 C   0  0  0  0  0  0  0  0  0  0  0  0
    8.8120   28.9681   -5.3427 C   0  0  0  0  0  0  0  0  0  0  0  0
    9.4337   30.0576   -4.7997 C   0  0  0  0  0  0  0  0  0  0  0  0
   10.6987   30.0108   -4.2239 C   0  0  0  0  0  0  0  0  0  0  0  0
   11.3544   28.8125   -4.1997 C   0  0  0  0  0  0  0  0  0  0  0  0
   10.7551   27.7020   -4.7373 C   0  0  0  0  0  0  0  0  0  0  0  0
    9.4922   27.7503   -5.3118 C   0  0  0  0  0  0  0  0  0  0  0  0
    6.4636   28.3724   -5.5558 N   0  0  0  0  0  0  0  0  0  0  0  0
    7.4867   29.0375   -5.9405 C   0  0  0  0  0  0  0  0  0  0  0  0
    7.2629   29.9144   -7.0590 N   0  0  0  0  0  0  0  0  0  0  0  0
    6.5462   27.7227   -4.7595 H   0  0  0  0  0  0  0  0  0  0  0  0
    7.3607   30.9462   -6.9541 H   0  0  0  0  0  0  0  0  0  0  0  0
    7.0005   29.4951   -7.9769 H   0  0  0  0  0  0  0  0  0  0  0  0
   13.1899   23.7570    0.2982 C   0  0  0  0  0  0  0  0  0  0  0  0
   12.2491   22.6747    0.0179 C   0  0  0  0  0  0  0  0  0  0  0  0
   11.1474   22.8179   -0.8024 C   0  0  0  0  0  0  0  0  0  0  0  0
   10.2754   21.7677   -1.0420 C   0  0  0  0  0  0  0  0  0  0  0  0
   10.4917   20.5391   -0.4578 C   0  0  0  0  0  0  0  0  0  0  0  0
   11.5742   20.3770    0.3557 C   0  0  0  0  0  0  0  0  0  0  0  0
   12.4462   21.4369    0.5918 C   0  0  0  0  0  0  0  0  0  0  0  0
 24 25  2  0  0  0
 25 26  1  0  0  0
 25 18  1  0  0  0
 18 19  2  0  0  0
 19 20  1  0  0  0
 20 21  2  0  0  0
 21 17  1  0  0  0
 17 13  1  0  0  0
 13 14  1  0  0  0
 14 15  2  0  0  0
 14  1  1  0  0  0
  1  2  1  0  0  0
  2  3  1  0  0  0
  3  4  1  0  0  0
  4  5  1  0  0  0
  5  6  1  0  0  0
  6  7  1  0  0  0
  7  8  1  0  0  0
  7 30  1  0  0  0
 30 31  1  0  0  0
 31 32  2  0  0  0
 32 33  1  0  0  0
 33 34  2  0  0  0
 34 35  1  0  0  0
 35 36  2  0  0  0
  7  9  1  0  0  0
  9 10  2  0  0  0
  9 11  1  0  0  0
 21 22  1  0  0  0
 22 23  2  0  0  0
 23 18  1  0  0  0
 11  1  1  0  0  0
 11  4  1  0  0  0
 36 31  1  0  0  0
 24 27  1  0  0  0
 26 28  1  0  0  0
 26 29  1  0  0  0
 13 16  1  0  0  0
  8 12  1  0  0  0
M  END
> <minimizedAffinity>
11.96425

> <CNNscore>
0.5535761714

> <CNNaffinity>
6.7510933876

> <CNN_VS>
3.7372443676

> <CNNaffinity_variance>
0.4840109944

$$$$
[H]N=C(c1c([H])c([H])c(C([H])([H])N([H])C(=O)C2([H])N3C(=O)[C@](O[H])(C([H])([H])c4c([H])c([H])c([H])c([H])c4[H])C([H])([H])C([H])([H])[C@]3([H])C([H])([H])C2([H])[H])c([H])c1[H])N([H])[H]


 36 39  0  0  0  0  0  0  0  0999 V2000
   12.7776   26.3519   -0.2767 C   0  0  0  0  0  0  0  0  0  0  0  0
   12.9471   26.7675    1.1693 C   0  0  0  0  0  0  0  0  0  0  0  0
   14.0459   25.8153    1.6161 C   0  0  0  0  0  0  0  0  0  0  0  0
   15.0096   25.9170    0.4561 C   0  0  0  0  0  0  0  0  0  0  0  0
   15.8569   24.6807    0.3131 C   0  0  0  0  0  0  0  0  0  0  0  0
   16.6506   24.6926   -0.9516 C   0  0  0  0  0  0  0  0  0  0  0  0
   16.2493   25.7622   -1.9283 C   0  0  0  0  0  0  0  0  0  0  0  0
   16.7911   27.0076   -1.5678 O   0  0  0  0  0  0  0  0  0  0  0  0
   14.7646   25.8221   -1.9712 C   0  0  0  0  0  0  0  0  0  0  0  0
   14.0732   25.7010   -2.9993 O   0  0  0  0  0  0  0  0  0  0  0  0
   14.1185   26.0379   -0.7082 N   0  0  0  0  0  0  0  0  0  0  0  0
   17.6859   26.7913   -1.1689 H   0  0  0  0  0  0  0  0  0  0  0  0
   11.7018   24.5104    1.0090 N   0  0  0  0  0  0  0  0  0  0  0  0
   11.9093   25.1208   -0.2546 C   0  0  0  0  0  0  0  0  0  0  0  0
   11.3964   24.6540   -1.2801 O   0  0  0  0  0  0  0  0  0  0  0  0
   12.1355   24.8977    1.8955 H   0  0  0  0  0  0  0  0  0  0  0  0
   10.8902   23.3205    1.1975 C   0  0  0  0  0  0  0  0  0  0  0  0
   12.2449   20.2493   -1.4392 C   0  0  0  0  0  0  0  0  0  0  0  0
   12.9966   20.6631   -0.3752 C   0  0  0  0  0  0  0  0  0  0  0  0
   12.5925   21.6577    0.5086 C   0  0  0  0  0  0  0  0  0  0  0  0
   11.3801   22.2529    0.3022 C   0  0  0  0  0  0  0  0  0  0  0  0
   10.6040   21.8580   -0.7575 C   0  0  0  0  0  0  0  0  0  0  0  0
   11.0087   20.8648   -1.6390 C   0  0  0  0  0  0  0  0  0  0  0  0
   12.9195   17.9897   -2.0342 N   0  0  0  0  0  0  0  0  0  0  0  0
   12.6860   19.2064   -2.3537 C   0  0  0  0  0  0  0  0  0  0  0  0
   12.8886   19.5254   -3.7419 N   0  0  0  0  0  0  0  0  0  0  0  0
   12.7964   17.6852   -1.0567 H   0  0  0  0  0  0  0  0  0  0  0  0
   12.0913   19.8285   -4.3401 H   0  0  0  0  0  0  0  0  0  0  0  0
   13.8505   19.4467   -4.1367 H   0  0  0  0  0  0  0  0  0  0  0  0
   16.8212   25.4329   -3.2871 C   0  0  0  0  0  0  0  0  0  0  0  0
   16.3295   26.3043   -4.3520 C   0  0  0  0  0  0  0  0  0  0  0  0
   16.5373   27.6694   -4.3746 C   0  0  0  0  0  0  0  0  0  0  0  0
   16.0522   28.4637   -5.4014 C   0  0  0  0  0  0  0  0  0  0  0  0
   15.3411   27.9003   -6.4380 C   0  0  0  0  0  0  0  0  0  0  0  0
   15.1249   26.5537   -6.4343 C   0  0  0  0  0  0  0  0  0  0  0  0
   15.6155   25.7618   -5.3990 C   0  0  0  0  0  0  0  0  0  0  0  0
 24 25  2  0  0  0
 25 26  1  0  0  0
 25 18  1  0  0  0
 18 19  2  0  0  0
 19 20  1  0  0  0
 20 21  2  0  0  0
 21 17  1  0  0  0
 17 13  1  0  0  0
 13 14  1  0  0  0
 14 15  2  0  0  0
 14  1  1  0  0  0
  1  2  1  0  0  0
  2  3  1  0  0  0
  3  4  1  0  0  0
  4  5  1  0  0  0
  5  6  1  0  0  0
  6  7  1  0  0  0
  7  8  1  0  0  0
  7 30  1  0  0  0
 30 31  1  0  0  0
 31 32  2  0  0  0
 32 33  1  0  0  0
 33 34  2  0  0  0
 34 35  1  0  0  0
 35 36  2  0  0  0
  7  9  1  0  0  0
  9 10  2  0  0  0
  9 11  1  0  0  0
 21 22  1  0  0  0
 22 23  2  0  0  0
 23 18  1  0  0  0
 11  1  1  0  0  0
 11  4  1  0  0  0
 36 31  1  0  0  0
 24 27  1  0  0  0
 26 28  1  0  0  0
 26 29  1  0  0  0
 13 16  1  0  0  0
  8 12  1  0  0  0
M  END
> <minimizedAffinity>
11.37886

> <CNNscore>
0.4855912030

> <CNNaffinity>
7.0702424049

> <CNN_VS>
3.4332475662

> <CNNaffinity_variance>
1.0970729589

$$$$
[H]N=C(c1c([H])c([H])c(C([H])([H])N([H])C(=O)C2([H])N3C(=O)[C@](O[H])(C([H])([H])c4c([H])c([H])c([H])c([H])c4[H])C([H])([H])C([H])([H])[C@]3([H])C([H])([H])C2([H])[H])c([H])c1[H])N([H])[H]


 36 39  0  0  0  0  0  0  0  0999 V2000
   14.3420   23.7771   -3.7510 C   0  0  0  0  0  0  0  0  0  0  0  0
   14.7375   22.8391   -4.8716 C   0  0  0  0  0  0  0  0  0  0  0  0
   15.5201   21.7853   -4.1031 C   0  0  0  0  0  0  0  0  0  0  0  0
   14.6117   21.5543   -2.9173 C   0  0  0  0  0  0  0  0  0  0  0  0
   15.3657   21.0510   -1.7152 C   0  0  0  0  0  0  0  0  0  0  0  0
   14.5112   21.0288   -0.4909 C   0  0  0  0  0  0  0  0  0  0  0  0
   13.2005   21.7506   -0.6333 C   0  0  0  0  0  0  0  0  0  0  0  0
   12.2582   20.9616   -1.3145 O   0  0  0  0  0  0  0  0  0  0  0  0
   13.4461   23.0261   -1.3564 C   0  0  0  0  0  0  0  0  0  0  0  0
   13.1444   24.1575   -0.9339 O   0  0  0  0  0  0  0  0  0  0  0  0
   14.0819   22.8977   -2.6365 N   0  0  0  0  0  0  0  0  0  0  0  0
   12.4567   20.0211   -1.0270 H   0  0  0  0  0  0  0  0  0  0  0  0
   16.0342   24.6758   -2.1603 N   0  0  0  0  0  0  0  0  0  0  0  0
   15.5468   24.6441   -3.4921 C   0  0  0  0  0  0  0  0  0  0  0  0
   16.0938   25.3014   -4.3872 O   0  0  0  0  0  0  0  0  0  0  0  0
   15.5755   24.1195   -1.3831 H   0  0  0  0  0  0  0  0  0  0  0  0
   17.1860   25.4600   -1.7499 C   0  0  0  0  0  0  0  0  0  0  0  0
   18.5925   24.1350    2.0560 C   0  0  0  0  0  0  0  0  0  0  0  0
   17.3473   23.8060    1.5983 C   0  0  0  0  0  0  0  0  0  0  0  0
   16.8510   24.2143    0.3651 C   0  0  0  0  0  0  0  0  0  0  0  0
   17.6504   24.9854   -0.4307 C   0  0  0  0  0  0  0  0  0  0  0  0
   18.9050   25.3312    0.0026 C   0  0  0  0  0  0  0  0  0  0  0  0
   19.3991   24.9227    1.2340 C   0  0  0  0  0  0  0  0  0  0  0  0
   18.4236   23.0455    4.2239 N   0  0  0  0  0  0  0  0  0  0  0  0
   19.0937   23.6979    3.3508 C   0  0  0  0  0  0  0  0  0  0  0  0
   20.4502   24.0026    3.7212 N   0  0  0  0  0  0  0  0  0  0  0  0
   17.4435   22.7903    4.0300 H   0  0  0  0  0  0  0  0  0  0  0  0
   21.2502   23.6062    3.1844 H   0  0  0  0  0  0  0  0  0  0  0  0
   20.6155   24.6287    4.5384 H   0  0  0  0  0  0  0  0  0  0  0  0
   12.6225   22.0044    0.7389 C   0  0  0  0  0  0  0  0  0  0  0  0
   11.2024   22.3480    0.7176 C   0  0  0  0  0  0  0  0  0  0  0  0
   10.1918   21.4071    0.7372 C   0  0  0  0  0  0  0  0  0  0  0  0
    8.8551   21.7722    0.7129 C   0  0  0  0  0  0  0  0  0  0  0  0
    8.4998   23.1023    0.6678 C   0  0  0  0  0  0  0  0  0  0  0  0
    9.4830   24.0473    0.6477 C   0  0  0  0  0  0  0  0  0  0  0  0
   10.8242   23.6728    0.6724 C   0  0  0  0  0  0  0  0  0  0  0  0
 24 25  2  0  0  0
 25 26  1  0  0  0
 25 18  1  0  0  0
 18 19  2  0  0  0
 19 20  1  0  0  0
 20 21  2  0  0  0
 21 17  1  0  0  0
 17 13  1  0  0  0
 13 14  1  0  0  0
 14 15  2  0  0  0
 14  1  1  0  0  0
  1  2  1  0  0  0
  2  3  1  0  0  0
  3  4  1  0  0  0
  4  5  1  0  0  0
  5  6  1  0  0  0
  6  7  1  0  0  0
  7  8  1  0  0  0
  7 30  1  0  0  0
 30 31  1  0  0  0
 31 32  2  0  0  0
 32 33  1  0  0  0
 33 34  2  0  0  0
 34 35  1  0  0  0
 35 36  2  0  0  0
  7  9  1  0  0  0
  9 10  2  0  0  0
  9 11  1  0  0  0
 21 22  1  0  0  0
 22 23  2  0  0  0
 23 18  1  0  0  0
 11  1  1  0  0  0
 11  4  1  0  0  0
 36 31  1  0  0  0
 24 27  1  0  0  0
 26 28  1  0  0  0
 26 29  1  0  0  0
 13 16  1  0  0  0
  8 12  1  0  0  0
M  END
> <minimizedAffinity>
26.75708

> <CNNscore>
0.4653621018

> <CNNaffinity>
6.9208235741

> <CNN_VS>
3.2206890583

> <CNNaffinity_variance>
0.6132918596

$$$$
[H]N=C(c1c([H])c([H])c(C([H])([H])N([H])C(=O)C2([H])N3C(=O)[C@](O[H])(C([H])([H])c4c([H])c([H])c([H])c([H])c4[H])C([H])([H])C([H])([H])[C@]3([H])C([H])([H])C2([H])[H])c([H])c1[H])N([H])[H]


 36 39  0  0  0  0  0  0  0  0999 V2000
   13.9708   24.6344    0.2702 C   0  0  0  0  0  0  0  0  0  0  0  0
   15.2165   24.7440    1.1236 C   0  0  0  0  0  0  0  0  0  0  0  0
   16.2764   24.2479    0.1521 C   0  0  0  0  0  0  0  0  0  0  0  0
   15.8911   24.9928   -1.1055 C   0  0  0  0  0  0  0  0  0  0  0  0
   16.3437   24.2762   -2.3499 C   0  0  0  0  0  0  0  0  0  0  0  0
   15.7798   24.8961   -3.5858 C   0  0  0  0  0  0  0  0  0  0  0  0
   14.6894   25.9001   -3.3368 C   0  0  0  0  0  0  0  0  0  0  0  0
   15.2214   27.1412   -2.9481 O   0  0  0  0  0  0  0  0  0  0  0  0
   13.7864   25.3581   -2.2877 C   0  0  0  0  0  0  0  0  0  0  0  0
   12.5576   25.2019   -2.4124 O   0  0  0  0  0  0  0  0  0  0  0  0
   14.4209   25.0002   -1.0514 N   0  0  0  0  0  0  0  0  0  0  0  0
   16.0790   27.2240   -3.4622 H   0  0  0  0  0  0  0  0  0  0  0  0
   13.5945   22.4675   -0.8980 N   0  0  0  0  0  0  0  0  0  0  0  0
   13.5579   23.1863    0.3243 C   0  0  0  0  0  0  0  0  0  0  0  0
   13.2020   22.6385    1.3759 O   0  0  0  0  0  0  0  0  0  0  0  0
   13.8957   22.9234   -1.8065 H   0  0  0  0  0  0  0  0  0  0  0  0
   13.2290   21.0662   -1.0116 C   0  0  0  0  0  0  0  0  0  0  0  0
    9.0202   20.6905   -0.4083 C   0  0  0  0  0  0  0  0  0  0  0  0
    9.9199   20.0781    0.4187 C   0  0  0  0  0  0  0  0  0  0  0  0
   11.2979   20.1760    0.2594 C   0  0  0  0  0  0  0  0  0  0  0  0
   11.7775   20.9236   -0.7787 C   0  0  0  0  0  0  0  0  0  0  0  0
   10.8982   21.5497   -1.6249 C   0  0  0  0  0  0  0  0  0  0  0  0
    9.5227   21.4511   -1.4646 C   0  0  0  0  0  0  0  0  0  0  0  0
    6.9318   19.4777   -0.1199 N   0  0  0  0  0  0  0  0  0  0  0  0
    7.5808   20.5754   -0.2251 C   0  0  0  0  0  0  0  0  0  0  0  0
    6.7819   21.7696   -0.1498 N   0  0  0  0  0  0  0  0  0  0  0  0
    7.4362   18.5795   -0.1644 H   0  0  0  0  0  0  0  0  0  0  0  0
    6.9109   22.4478    0.6303 H   0  0  0  0  0  0  0  0  0  0  0  0
    6.0709   21.9418   -0.8929 H   0  0  0  0  0  0  0  0  0  0  0  0
   13.9409   26.1490   -4.6251 C   0  0  0  0  0  0  0  0  0  0  0  0
   14.8137   26.2754   -5.7900 C   0  0  0  0  0  0  0  0  0  0  0  0
   14.8975   25.3212   -6.7849 C   0  0  0  0  0  0  0  0  0  0  0  0
   15.7403   25.4756   -7.8741 C   0  0  0  0  0  0  0  0  0  0  0  0
   16.5253   26.6016   -7.9900 C   0  0  0  0  0  0  0  0  0  0  0  0
   16.4574   27.5559   -7.0180 C   0  0  0  0  0  0  0  0  0  0  0  0
   15.6080   27.3938   -5.9262 C   0  0  0  0  0  0  0  0  0  0  0  0
 24 25  2  0  0  0
 25 26  1  0  0  0
 25 18  1  0  0  0
 18 19  2  0  0  0
 19 20  1  0  0  0
 20 21  2  0  0  0
 21 17  1  0  0  0
 17 13  1  0  0  0
 13 14  1  0  0  0
 14 15  2  0  0  0
 14  1  1  0  0  0
  1  2  1  0  0  0
  2  3  1  0  0  0
  3  4  1  0  0  0
  4  5  1  0  0  0
  5  6  1  0  0  0
  6  7  1  0  0  0
  7  8  1  0  0  0
  7 30  1  0  0  0
 30 31  1  0  0  0
 31 32  2  0  0  0
 32 33  1  0  0  0
 33 34  2  0  0  0
 34 35  1  0  0  0
 35 36  2  0  0  0
  7  9  1  0  0  0
  9 10  2  0  0  0
  9 11  1  0  0  0
 21 22  1  0  0  0
 22 23  2  0  0  0
 23 18  1  0  0  0
 11  1  1  0  0  0
 11  4  1  0  0  0
 36 31  1  0  0  0
 24 27  1  0  0  0
 26 28  1  0  0  0
 26 29  1  0  0  0
 13 16  1  0  0  0
  8 12  1  0  0  0
M  END
> <minimizedAffinity>
-5.44778

> <CNNscore>
0.4069164991

> <CNNaffinity>
7.0525870323

> <CNN_VS>
2.8698139191

> <CNNaffinity_variance>
0.2083123922

$$$$
[H]N=C(c1c([H])c([H])c(C([H])([H])N([H])C(=O)C2([H])N3C(=O)[C@](O[H])(C([H])([H])c4c([H])c([H])c([H])c([H])c4[H])C([H])([H])C([H])([H])[C@]3([H])C([H])([H])C2([H])[H])c([H])c1[H])N([H])[H]


 36 39  0  0  0  0  0  0  0  0999 V2000
   13.2539   22.1309   -2.3286 C   0  0  0  0  0  0  0  0  0  0  0  0
   13.8175   20.8451   -2.8956 C   0  0  0  0  0  0  0  0  0  0  0  0
   14.3633   20.1894   -1.6364 C   0  0  0  0  0  0  0  0  0  0  0  0
   13.2184   20.4078   -0.6740 C   0  0  0  0  0  0  0  0  0  0  0  0
   13.6784   20.4259    0.7595 C   0  0  0  0  0  0  0  0  0  0  0  0
   12.5902   20.8532    1.6884 C   0  0  0  0  0  0  0  0  0  0  0  0
   11.3805   21.4290    1.0071 C   0  0  0  0  0  0  0  0  0  0  0  0
   10.5551   20.4137    0.4950 O   0  0  0  0  0  0  0  0  0  0  0  0
   11.8424   22.3345   -0.0777 C   0  0  0  0  0  0  0  0  0  0  0  0
   11.5254   23.5328   -0.1928 O   0  0  0  0  0  0  0  0  0  0  0  0
   12.7198   21.7410   -1.0458 N   0  0  0  0  0  0  0  0  0  0  0  0
   10.6360   19.6617    1.1543 H   0  0  0  0  0  0  0  0  0  0  0  0
   14.1353   24.3917   -1.7687 N   0  0  0  0  0  0  0  0  0  0  0  0
   14.4271   23.0630   -2.1706 C   0  0  0  0  0  0  0  0  0  0  0  0
   15.5927   22.7009   -2.3781 O   0  0  0  0  0  0  0  0  0  0  0  0
   13.1423   24.7165   -1.5887 H   0  0  0  0  0  0  0  0  0  0  0  0
   15.1540   25.4082   -1.5710 C   0  0  0  0  0  0  0  0  0  0  0  0
   15.6778   27.5059   -5.2513 C   0  0  0  0  0  0  0  0  0  0  0  0
   16.6427   27.5060   -4.2831 C   0  0  0  0  0  0  0  0  0  0  0  0
   16.5137   26.8349   -3.0720 C   0  0  0  0  0  0  0  0  0  0  0  0
   15.3616   26.1390   -2.8376 C   0  0  0  0  0  0  0  0  0  0  0  0
   14.3759   26.1210   -3.7912 C   0  0  0  0  0  0  0  0  0  0  0  0
   14.5060   26.7914   -4.9998 C   0  0  0  0  0  0  0  0  0  0  0  0
   15.7525   29.4834   -6.6652 N   0  0  0  0  0  0  0  0  0  0  0  0
   15.8316   28.2155   -6.5128 C   0  0  0  0  0  0  0  0  0  0  0  0
   16.0963   27.4689   -7.7139 N   0  0  0  0  0  0  0  0  0  0  0  0
   15.5649   30.0856   -5.8495 H   0  0  0  0  0  0  0  0  0  0  0  0
   16.9774   26.9230   -7.8178 H   0  0  0  0  0  0  0  0  0  0  0  0
   15.3873   27.4860   -8.4783 H   0  0  0  0  0  0  0  0  0  0  0  0
   10.5477   22.1753    2.0225 C   0  0  0  0  0  0  0  0  0  0  0  0
    9.1210   21.8700    1.9422 C   0  0  0  0  0  0  0  0  0  0  0  0
    8.2875   22.3810    0.9669 C   0  0  0  0  0  0  0  0  0  0  0  0
    6.9376   22.0703    0.9254 C   0  0  0  0  0  0  0  0  0  0  0  0
    6.3891   21.2320    1.8709 C   0  0  0  0  0  0  0  0  0  0  0  0
    7.1953   20.7168    2.8427 C   0  0  0  0  0  0  0  0  0  0  0  0
    8.5511   21.0335    2.8780 C   0  0  0  0  0  0  0  0  0  0  0  0
 24 25  2  0  0  0
 25 26  1  0  0  0
 25 18  1  0  0  0
 18 19  2  0  0  0
 19 20  1  0  0  0
 20 21  2  0  0  0
 21 17  1  0  0  0
 17 13  1  0  0  0
 13 14  1  0  0  0
 14 15  2  0  0  0
 14  1  1  0  0  0
  1  2  1  0  0  0
  2  3  1  0  0  0
  3  4  1  0  0  0
  4  5  1  0  0  0
  5  6  1  0  0  0
  6  7  1  0  0  0
  7  8  1  0  0  0
  7 30  1  0  0  0
 30 31  1  0  0  0
 31 32  2  0  0  0
 32 33  1  0  0  0
 33 34  2  0  0  0
 34 35  1  0  0  0
 35 36  2  0  0  0
  7  9  1  0  0  0
  9 10  2  0  0  0
  9 11  1  0  0  0
 21 22  1  0  0  0
 22 23  2  0  0  0
 23 18  1  0  0  0
 11  1  1  0  0  0
 11  4  1  0  0  0
 36 31  1  0  0  0
 24 27  1  0  0  0
 26 28  1  0  0  0
 26 29  1  0  0  0
 13 16  1  0  0  0
  8 12  1  0  0  0
M  END
> <minimizedAffinity>
-0.88457

> <CNNscore>
0.3983380198

> <CNNaffinity>
6.6494092941

> <CNN_VS>
2.6487126350

> <CNNaffinity_variance>
0.6793606877

$$$$
[H]N=C(c1c([H])c([H])c(C([H])([H])N([H])C(=O)C2([H])N3C(=O)[C@](O[H])(C([H])([H])c4c([H])c([H])c([H])c([H])c4[H])C([H])([H])C([H])([H])[C@]3([H])C([H])([H])C2([H])[H])c([H])c1[H])N([H])[H]


 36 39  0  0  0  0  0  0  0  0999 V2000
   12.7337   25.5304   -0.8603 C   0  0  0  0  0  0  0  0  0  0  0  0
   12.6766   25.4099    0.6478 C   0  0  0  0  0  0  0  0  0  0  0  0
   13.8879   24.5289    0.9129 C   0  0  0  0  0  0  0  0  0  0  0  0
   14.9242   25.1839    0.0286 C   0  0  0  0  0  0  0  0  0  0  0  0
   16.0027   24.2204   -0.3900 C   0  0  0  0  0  0  0  0  0  0  0  0
   16.9005   24.8064   -1.4293 C   0  0  0  0  0  0  0  0  0  0  0  0
   16.4002   26.0889   -2.0327 C   0  0  0  0  0  0  0  0  0  0  0  0
   16.6547   27.1812   -1.1861 O   0  0  0  0  0  0  0  0  0  0  0  0
   14.9431   25.9463   -2.2907 C   0  0  0  0  0  0  0  0  0  0  0  0
   14.3929   26.1102   -3.3953 O   0  0  0  0  0  0  0  0  0  0  0  0
   14.1460   25.5915   -1.1515 N   0  0  0  0  0  0  0  0  0  0  0  0
   17.5305   26.9653   -0.7467 H   0  0  0  0  0  0  0  0  0  0  0  0
   12.7884   23.0517   -1.0944 N   0  0  0  0  0  0  0  0  0  0  0  0
   12.1198   24.2648   -1.4003 C   0  0  0  0  0  0  0  0  0  0  0  0
   11.0842   24.2686   -2.0786 O   0  0  0  0  0  0  0  0  0  0  0  0
   13.6766   23.0328   -0.5159 H   0  0  0  0  0  0  0  0  0  0  0  0
   12.3231   21.7494   -1.5388 C   0  0  0  0  0  0  0  0  0  0  0  0
    8.7347   20.8225    0.5787 C   0  0  0  0  0  0  0  0  0  0  0  0
    8.9211   20.4353   -0.7188 C   0  0  0  0  0  0  0  0  0  0  0  0
   10.0743   20.7143   -1.4442 C   0  0  0  0  0  0  0  0  0  0  0  0
   11.0735   21.4125   -0.8271 C   0  0  0  0  0  0  0  0  0  0  0  0
   10.9144   21.8140    0.4747 C   0  0  0  0  0  0  0  0  0  0  0  0
    9.7626   21.5347    1.1976 C   0  0  0  0  0  0  0  0  0  0  0  0
    7.3636   20.6721    2.5819 N   0  0  0  0  0  0  0  0  0  0  0  0
    7.5195   20.5210    1.3210 C   0  0  0  0  0  0  0  0  0  0  0  0
    6.3730   20.0089    0.6186 N   0  0  0  0  0  0  0  0  0  0  0  0
    8.1415   21.0349    3.1533 H   0  0  0  0  0  0  0  0  0  0  0  0
    5.8893   20.5852   -0.1020 H   0  0  0  0  0  0  0  0  0  0  0  0
    6.0365   19.0485    0.8461 H   0  0  0  0  0  0  0  0  0  0  0  0
   17.1561   26.3635   -3.3113 C   0  0  0  0  0  0  0  0  0  0  0  0
   16.3169   26.3093   -4.5063 C   0  0  0  0  0  0  0  0  0  0  0  0
   15.8599   25.1306   -5.0621 C   0  0  0  0  0  0  0  0  0  0  0  0
   15.0676   25.1197   -6.1990 C   0  0  0  0  0  0  0  0  0  0  0  0
   14.7131   26.3028   -6.8092 C   0  0  0  0  0  0  0  0  0  0  0  0
   15.1542   27.4779   -6.2759 C   0  0  0  0  0  0  0  0  0  0  0  0
   15.9502   27.4811   -5.1331 C   0  0  0  0  0  0  0  0  0  0  0  0
 24 25  2  0  0  0
 25 26  1  0  0  0
 25 18  1  0  0  0
 18 19  2  0  0  0
 19 20  1  0  0  0
 20 21  2  0  0  0
 21 17  1  0  0  0
 17 13  1  0  0  0
 13 14  1  0  0  0
 14 15  2  0  0  0
 14  1  1  0  0  0
  1  2  1  0  0  0
  2  3  1  0  0  0
  3  4  1  0  0  0
  4  5  1  0  0  0
  5  6  1  0  0  0
  6  7  1  0  0  0
  7  8  1  0  0  0
  7 30  1  0  0  0
 30 31  1  0  0  0
 31 32  2  0  0  0
 32 33  1  0  0  0
 33 34  2  0  0  0
 34 35  1  0  0  0
 35 36  2  0  0  0
  7  9  1  0  0  0
  9 10  2  0  0  0
  9 11  1  0  0  0
 21 22  1  0  0  0
 22 23  2  0  0  0
 23 18  1  0  0  0
 11  1  1  0  0  0
 11  4  1  0  0  0
 36 31  1  0  0  0
 24 27  1  0  0  0
 26 28  1  0  0  0
 26 29  1  0  0  0
 13 16  1  0  0  0
  8 12  1  0  0  0
M  END
> <minimizedAffinity>
-2.13357

> <CNNscore>
0.3706928194

> <CNNaffinity>
6.7384414673

> <CNN_VS>
2.4978919029

> <CNNaffinity_variance>
0.4756324291

$$$$
[H]c1c(OC([H])([H])[H])c(C([H])([H])N(C([H])([H])[H])C([H])([H])[H])c([H])c(OC([H])([H])[H])c1-c1c([H])n(C([H])([H])[H])c(=O)c2c([H])c([H])c([H])c([H])c12


 26 28  0  0  0  0  0  0  0  0999 V2000
   13.0428   24.0562   -1.1477 C   0  0  0  0  0  0  0  0  0  0  0  0
   13.6957   24.9551   -2.0260 C   0  0  0  0  0  0  0  0  0  0  0  0
   14.6755   24.4972   -3.0251 C   0  0  0  0  0  0  0  0  0  0  0  0
   14.9521   23.2167   -3.0722 C   0  0  0  0  0  0  0  0  0  0  0  0
   14.3725   22.2813   -2.1772 C   0  0  0  0  0  0  0  0  0  0  0  0
   13.5004   22.7238   -1.3129 C   0  0  0  0  0  0  0  0  0  0  0  0
   14.8738   25.5488   -4.0245 C   0  0  0  0  0  0  0  0  0  0  0  0
   14.4478   25.2900   -5.3843 C   0  0  0  0  0  0  0  0  0  0  0  0
   15.0186   25.9331   -6.4614 N   0  0  0  0  0  0  0  0  0  0  0  0
   14.7105   25.7066   -7.8135 C   0  0  0  0  0  0  0  0  0  0  0  0
   15.9390   26.7475   -6.0292 C   0  0  0  0  0  0  0  0  0  0  0  0
   16.4773   27.3716   -7.1953 O   0  0  0  0  0  0  0  0  0  0  0  0
   16.5122   27.1643   -4.9955 C   0  0  0  0  0  0  0  0  0  0  0  0
   17.5521   28.1077   -4.8825 C   0  0  0  0  0  0  0  0  0  0  0  0
   17.8609   28.2718   -3.4167 C   0  0  0  0  0  0  0  0  0  0  0  0
   17.3591   27.7311   -2.5137 C   0  0  0  0  0  0  0  0  0  0  0  0
   16.2976   26.7496   -2.5837 C   0  0  0  0  0  0  0  0  0  0  0  0
   15.9089   26.4936   -3.8078 C   0  0  0  0  0  0  0  0  0  0  0  0
   11.2361   24.5251    0.6012 C   0  0  0  0  0  0  0  0  0  0  0  0
   12.1069   24.2499   -0.2795 O   0  0  0  0  0  0  0  0  0  0  0  0
   15.8289   22.6611   -4.0420 O   0  0  0  0  0  0  0  0  0  0  0  0
   15.1306   21.6546   -4.7816 C   0  0  0  0  0  0  0  0  0  0  0  0
   12.7481   21.7996   -0.4064 C   0  0  0  0  0  0  0  0  0  0  0  0
   13.2852   21.1031    0.6353 N   0  0  0  0  0  0  0  0  0  0  0  0
   12.3531   21.0542    1.7416 C   0  0  0  0  0  0  0  0  0  0  0  0
   14.5345   20.6809    0.9429 C   0  0  0  0  0  0  0  0  0  0  0  0
 19 20  1  0  0  0
 20  1  1  0  0  0
  1  2  2  0  0  0
  2  3  1  0  0  0
  3  7  1  0  0  0
  7  8  2  0  0  0
  8  9  1  0  0  0
  9 10  1  0  0  0
  9 11  1  0  0  0
 11 12  2  0  0  0
 11 13  1  0  0  0
 13 14  2  0  0  0
 14 15  1  0  0  0
 15 16  2  0  0  0
 16 17  1  0  0  0
 17 18  2  0  0  0
  3  4  2  0  0  0
  4 21  1  0  0  0
 21 22  1  0  0  0
  4  5  1  0  0  0
  5  6  2  0  0  0
  6 23  1  0  0  0
 23 24  1  0  0  0
 24 25  1  0  0  0
 24 26  1  0  0  0
  6  1  1  0  0  0
 18  7  1  0  0  0
 18 13  1  0  0  0
M  END
> <minimizedAffinity>
-3.23379

> <CNNscore>
0.6121896505

> <CNNaffinity>
6.8970537186

> <CNN_VS>
4.2223048210

> <CNNaffinity_variance>
0.2195752114

$$$$
[H]c1c(OC([H])([H])[H])c(C([H])([H])N(C([H])([H])[H])C([H])([H])[H])c([H])c(OC([H])([H])[H])c1-c1c([H])n(C([H])([H])[H])c(=O)c2c([H])c([H])c([H])c([H])c12


 26 28  0  0  0  0  0  0  0  0999 V2000
   13.7930   21.8158   -0.1410 C   0  0  0  0  0  0  0  0  0  0  0  0
   13.7772   22.9571   -0.9793 C   0  0  0  0  0  0  0  0  0  0  0  0
   12.8896   24.1032   -0.7211 C   0  0  0  0  0  0  0  0  0  0  0  0
   12.0831   24.0354    0.3102 C   0  0  0  0  0  0  0  0  0  0  0  0
   12.0155   22.8923    1.1473 C   0  0  0  0  0  0  0  0  0  0  0  0
   12.8255   21.9011    0.8927 C   0  0  0  0  0  0  0  0  0  0  0  0
   13.3620   25.2613   -1.4824 C   0  0  0  0  0  0  0  0  0  0  0  0
   12.4558   25.8717   -2.4329 C   0  0  0  0  0  0  0  0  0  0  0  0
   12.9126   26.5794   -3.5239 N   0  0  0  0  0  0  0  0  0  0  0  0
   12.1128   27.1561   -4.5249 C   0  0  0  0  0  0  0  0  0  0  0  0
   14.2153   26.5786   -3.5139 C   0  0  0  0  0  0  0  0  0  0  0  0
   14.6082   27.3269   -4.6648 O   0  0  0  0  0  0  0  0  0  0  0  0
   15.2188   26.1664   -2.8860 C   0  0  0  0  0  0  0  0  0  0  0  0
   16.5831   26.3514   -3.1835 C   0  0  0  0  0  0  0  0  0  0  0  0
   17.3814   25.6759   -2.0985 C   0  0  0  0  0  0  0  0  0  0  0  0
   16.9809   25.0922   -1.1719 C   0  0  0  0  0  0  0  0  0  0  0  0
   15.5915   24.8688   -0.8337 C   0  0  0  0  0  0  0  0  0  0  0  0
   14.7576   25.4032   -1.6906 C   0  0  0  0  0  0  0  0  0  0  0  0
   15.3098   19.7577   -0.0639 C   0  0  0  0  0  0  0  0  0  0  0  0
   14.5471   20.7678   -0.1513 O   0  0  0  0  0  0  0  0  0  0  0  0
   11.2371   25.1119    0.6887 O   0  0  0  0  0  0  0  0  0  0  0  0
   10.3191   24.6564    1.6874 C   0  0  0  0  0  0  0  0  0  0  0  0
   12.9122   20.7028    1.7862 C   0  0  0  0  0  0  0  0  0  0  0  0
   11.8675   20.1392    2.4567 N   0  0  0  0  0  0  0  0  0  0  0  0
   10.6887   20.1087    1.6174 C   0  0  0  0  0  0  0  0  0  0  0  0
   11.6312   19.8433    3.7569 C   0  0  0  0  0  0  0  0  0  0  0  0
 19 20  1  0  0  0
 20  1  1  0  0  0
  1  2  2  0  0  0
  2  3  1  0  0  0
  3  7  1  0  0  0
  7  8  2  0  0  0
  8  9  1  0  0  0
  9 10  1  0  0  0
  9 11  1  0  0  0
 11 12  2  0  0  0
 11 13  1  0  0  0
 13 14  2  0  0  0
 14 15  1  0  0  0
 15 16  2  0  0  0
 16 17  1  0  0  0
 17 18  2  0  0  0
  3  4  2  0  0  0
  4 21  1  0  0  0
 21 22  1  0  0  0
  4  5  1  0  0  0
  5  6  2  0  0  0
  6 23  1  0  0  0
 23 24  1  0  0  0
 24 25  1  0  0  0
 24 26  1  0  0  0
  6  1  1  0  0  0
 18  7  1  0  0  0
 18 13  1  0  0  0
M  END
> <minimizedAffinity>
-4.07738

> <CNNscore>
0.5911417603

> <CNNaffinity>
6.8694772720

> <CNN_VS>
4.0608348846

> <CNNaffinity_variance>
0.3584299088

$$$$
[H]c1c(OC([H])([H])[H])c(C([H])([H])N(C([H])([H])[H])C([H])([H])[H])c([H])c(OC([H])([H])[H])c1-c1c([H])n(C([H])([H])[H])c(=O)c2c([H])c([H])c([H])c([H])c12


 26 28  0  0  0  0  0  0  0  0999 V2000
   14.3629   25.8682   -3.2116 C   0  0  0  0  0  0  0  0  0  0  0  0
   14.7586   25.2087   -2.0224 C   0  0  0  0  0  0  0  0  0  0  0  0
   13.8050   24.9106   -0.9408 C   0  0  0  0  0  0  0  0  0  0  0  0
   12.5611   25.2943   -1.0954 C   0  0  0  0  0  0  0  0  0  0  0  0
   12.1241   26.0103   -2.2392 C   0  0  0  0  0  0  0  0  0  0  0  0
   12.9962   26.2462   -3.1812 C   0  0  0  0  0  0  0  0  0  0  0  0
   14.3839   23.9023   -0.0507 C   0  0  0  0  0  0  0  0  0  0  0  0
   15.6246   24.2181    0.6263 C   0  0  0  0  0  0  0  0  0  0  0  0
   16.4977   23.2363    1.0427 N   0  0  0  0  0  0  0  0  0  0  0  0
   17.7447   23.4487    1.6542 C   0  0  0  0  0  0  0  0  0  0  0  0
   16.0088   22.0717    0.7233 C   0  0  0  0  0  0  0  0  0  0  0  0
   16.9628   21.1152    1.1860 O   0  0  0  0  0  0  0  0  0  0  0  0
   15.0399   21.5025    0.1681 C   0  0  0  0  0  0  0  0  0  0  0  0
   14.8212   20.1253   -0.0305 C   0  0  0  0  0  0  0  0  0  0  0  0
   13.4928   19.9706   -0.7249 C   0  0  0  0  0  0  0  0  0  0  0  0
   12.7565   20.8109   -1.0588 C   0  0  0  0  0  0  0  0  0  0  0  0
   12.9451   22.2354   -0.8852 C   0  0  0  0  0  0  0  0  0  0  0  0
   14.0691   22.5397   -0.2860 C   0  0  0  0  0  0  0  0  0  0  0  0
   15.7472   26.3570   -5.3061 C   0  0  0  0  0  0  0  0  0  0  0  0
   15.0199   26.1356   -4.2905 O   0  0  0  0  0  0  0  0  0  0  0  0
   11.5475   24.9964   -0.1458 O   0  0  0  0  0  0  0  0  0  0  0  0
   10.5469   24.1849   -0.7688 C   0  0  0  0  0  0  0  0  0  0  0  0
   12.6058   26.8899   -4.4754 C   0  0  0  0  0  0  0  0  0  0  0  0
   11.8788   28.0364   -4.6007 N   0  0  0  0  0  0  0  0  0  0  0  0
   12.4909   29.1058   -3.8410 C   0  0  0  0  0  0  0  0  0  0  0  0
   10.6344   28.3191   -5.0538 C   0  0  0  0  0  0  0  0  0  0  0  0
 19 20  1  0  0  0
 20  1  1  0  0  0
  1  2  2  0  0  0
  2  3  1  0  0  0
  3  7  1  0  0  0
  7  8  2  0  0  0
  8  9  1  0  0  0
  9 10  1  0  0  0
  9 11  1  0  0  0
 11 12  2  0  0  0
 11 13  1  0  0  0
 13 14  2  0  0  0
 14 15  1  0  0  0
 15 16  2  0  0  0
 16 17  1  0  0  0
 17 18  2  0  0  0
  3  4  2  0  0  0
  4 21  1  0  0  0
 21 22  1  0  0  0
  4  5  1  0  0  0
  5  6  2  0  0  0
  6 23  1  0  0  0
 23 24  1  0  0  0
 24 25  1  0  0  0
 24 26  1  0  0  0
  6  1  1  0  0  0
 18  7  1  0  0  0
 18 13  1  0  0  0
M  END
> <minimizedAffinity>
5.03722

> <CNNscore>
0.5559382439

> <CNNaffinity>
6.9307298660

> <CNN_VS>
3.8530578613

> <CNNaffinity_variance>
0.6363601685

$$$$
[H]c1c(OC([H])([H])[H])c(C([H])([H])N(C([H])([H])[H])C([H])([H])[H])c([H])c(OC([H])([H])[H])c1-c1c([H])n(C([H])([H])[H])c(=O)c2c([H])c([H])c([H])c([H])c12


 26 28  0  0  0  0  0  0  0  0999 V2000
   12.1135   23.9482   -0.6836 C   0  0  0  0  0  0  0  0  0  0  0  0
   12.9792   24.5664   -1.6185 C   0  0  0  0  0  0  0  0  0  0  0  0
   14.3500   24.9708   -1.2644 C   0  0  0  0  0  0  0  0  0  0  0  0
   14.7541   24.7612   -0.0351 C   0  0  0  0  0  0  0  0  0  0  0  0
   13.9091   24.2005    0.9566 C   0  0  0  0  0  0  0  0  0  0  0  0
   12.7045   23.8450    0.6017 C   0  0  0  0  0  0  0  0  0  0  0  0
   15.1176   25.2009   -2.4899 C   0  0  0  0  0  0  0  0  0  0  0  0
   15.2574   26.5619   -2.9647 C   0  0  0  0  0  0  0  0  0  0  0  0
   15.4795   26.8506   -4.2940 N   0  0  0  0  0  0  0  0  0  0  0  0
   15.5720   28.1364   -4.8530 C   0  0  0  0  0  0  0  0  0  0  0  0
   15.5306   25.7360   -4.9665 C   0  0  0  0  0  0  0  0  0  0  0  0
   15.7632   26.1168   -6.3229 O   0  0  0  0  0  0  0  0  0  0  0  0
   15.4450   24.4900   -4.8615 C   0  0  0  0  0  0  0  0  0  0  0  0
   15.5439   23.5107   -5.8691 C   0  0  0  0  0  0  0  0  0  0  0  0
   15.3949   22.1633   -5.2108 C   0  0  0  0  0  0  0  0  0  0  0  0
   15.2217   21.9330   -4.0809 C   0  0  0  0  0  0  0  0  0  0  0  0
   15.1034   22.9055   -3.0155 C   0  0  0  0  0  0  0  0  0  0  0  0
   15.2143   24.1431   -3.4295 C   0  0  0  0  0  0  0  0  0  0  0  0
    9.7781   22.9768   -1.0640 C   0  0  0  0  0  0  0  0  0  0  0  0
   10.9300   23.4516   -0.8248 O   0  0  0  0  0  0  0  0  0  0  0  0
   16.0778   25.0495    0.3921 O   0  0  0  0  0  0  0  0  0  0  0  0
   16.7579   23.8212    0.6688 C   0  0  0  0  0  0  0  0  0  0  0  0
   11.7799   23.1385    1.5439 C   0  0  0  0  0  0  0  0  0  0  0  0
   12.0221   21.9344    2.1355 N   0  0  0  0  0  0  0  0  0  0  0  0
   12.6624   21.0341    1.2002 C   0  0  0  0  0  0  0  0  0  0  0  0
   11.5915   21.3390    3.2729 C   0  0  0  0  0  0  0  0  0  0  0  0
 19 20  1  0  0  0
 20  1  1  0  0  0
  1  2  2  0  0  0
  2  3  1  0  0  0
  3  7  1  0  0  0
  7  8  2  0  0  0
  8  9  1  0  0  0
  9 10  1  0  0  0
  9 11  1  0  0  0
 11 12  2  0  0  0
 11 13  1  0  0  0
 13 14  2  0  0  0
 14 15  1  0  0  0
 15 16  2  0  0  0
 16 17  1  0  0  0
 17 18  2  0  0  0
  3  4  2  0  0  0
  4 21  1  0  0  0
 21 22  1  0  0  0
  4  5  1  0  0  0
  5  6  2  0  0  0
  6 23  1  0  0  0
 23 24  1  0  0  0
 24 25  1  0  0  0
 24 26  1  0  0  0
  6  1  1  0  0  0
 18  7  1  0  0  0
 18 13  1  0  0  0
M  END
> <minimizedAffinity>
-2.42664

> <CNNscore>
0.5167337060

> <CNNaffinity>
6.7206673622

> <CNN_VS>
3.4727952480

> <CNNaffinity_variance>
0.1686588228

$$$$
[H]c1c(OC([H])([H])[H])c(C([H])([H])N(C([H])([H])[H])C([H])([H])[H])c([H])c(OC([H])([H])[H])c1-c1c([H])n(C([H])([H])[H])c(=O)c2c([H])c([H])c([H])c([H])c12


 26 28  0  0  0  0  0  0  0  0999 V2000
   10.9912   22.3826   -0.8495 C   0  0  0  0  0  0  0  0  0  0  0  0
   11.5932   23.5014   -1.4754 C   0  0  0  0  0  0  0  0  0  0  0  0
   12.7079   24.2367   -0.8553 C   0  0  0  0  0  0  0  0  0  0  0  0
   13.1269   23.8392    0.3214 C   0  0  0  0  0  0  0  0  0  0  0  0
   12.5214   22.7628    1.0192 C   0  0  0  0  0  0  0  0  0  0  0  0
   11.5431   22.1289    0.4322 C   0  0  0  0  0  0  0  0  0  0  0  0
   13.3698   25.0575   -1.8714 C   0  0  0  0  0  0  0  0  0  0  0  0
   12.7445   26.3054   -2.2572 C   0  0  0  0  0  0  0  0  0  0  0  0
   12.9586   26.8758   -3.4936 N   0  0  0  0  0  0  0  0  0  0  0  0
   12.3543   28.0495   -3.9746 C   0  0  0  0  0  0  0  0  0  0  0  0
   13.7697   26.1175   -4.1750 C   0  0  0  0  0  0  0  0  0  0  0  0
   13.9414   26.7721   -5.4324 O   0  0  0  0  0  0  0  0  0  0  0  0
   14.4279   25.0517   -4.1336 C   0  0  0  0  0  0  0  0  0  0  0  0
   15.2492   24.4826   -5.1263 C   0  0  0  0  0  0  0  0  0  0  0  0
   15.8300   23.2112   -4.5632 C   0  0  0  0  0  0  0  0  0  0  0  0
   15.6514   22.7474   -3.5084 C   0  0  0  0  0  0  0  0  0  0  0  0
   14.8096   23.2907   -2.4638 C   0  0  0  0  0  0  0  0  0  0  0  0
   14.2254   24.4133   -2.8010 C   0  0  0  0  0  0  0  0  0  0  0  0
    9.2516   20.7306   -1.7366 C   0  0  0  0  0  0  0  0  0  0  0  0
   10.0787   21.5690   -1.2650 O   0  0  0  0  0  0  0  0  0  0  0  0
   14.2387   24.4337    0.9759 O   0  0  0  0  0  0  0  0  0  0  0  0
   15.4147   23.6720    0.6851 C   0  0  0  0  0  0  0  0  0  0  0  0
   10.9187   20.9088    1.0350 C   0  0  0  0  0  0  0  0  0  0  0  0
   10.8778   20.6170    2.3660 N   0  0  0  0  0  0  0  0  0  0  0  0
    9.8410   21.3880    3.0185 C   0  0  0  0  0  0  0  0  0  0  0  0
   11.7168   19.9817    3.2183 C   0  0  0  0  0  0  0  0  0  0  0  0
 19 20  1  0  0  0
 20  1  1  0  0  0
  1  2  2  0  0  0
  2  3  1  0  0  0
  3  7  1  0  0  0
  7  8  2  0  0  0
  8  9  1  0  0  0
  9 10  1  0  0  0
  9 11  1  0  0  0
 11 12  2  0  0  0
 11 13  1  0  0  0
 13 14  2  0  0  0
 14 15  1  0  0  0
 15 16  2  0  0  0
 16 17  1  0  0  0
 17 18  2  0  0  0
  3  4  2  0  0  0
  4 21  1  0  0  0
 21 22  1  0  0  0
  4  5  1  0  0  0
  5  6  2  0  0  0
  6 23  1  0  0  0
 23 24  1  0  0  0
 24 25  1  0  0  0
 24 26  1  0  0  0
  6  1  1  0  0  0
 18  7  1  0  0  0
 18 13  1  0  0  0
M  END
> <minimizedAffinity>
-5.35204

> <CNNscore>
0.5160588622

> <CNNaffinity>
6.7972440720

> <CNN_VS>
3.5077779293

> <CNNaffinity_variance>
0.2635750771

$$$$
[H]c1c(OC([H])([H])[H])c(C([H])([H])N(C([H])([H])[H])C([H])([H])[H])c([H])c(OC([H])([H])[H])c1-c1c([H])n(C([H])([H])[H])c(=O)c2c([H])c([H])c([H])c([H])c12


 26 28  0  0  0  0  0  0  0  0999 V2000
   14.1521   22.8769   -1.7004 C   0  0  0  0  0  0  0  0  0  0  0  0
   14.9486   23.4888   -2.6989 C   0  0  0  0  0  0  0  0  0  0  0  0
   14.5391   24.7337   -3.3699 C   0  0  0  0  0  0  0  0  0  0  0  0
   13.3890   25.2641   -3.0319 C   0  0  0  0  0  0  0  0  0  0  0  0
   12.5251   24.6617   -2.0817 C   0  0  0  0  0  0  0  0  0  0  0  0
   12.9278   23.5646   -1.5007 C   0  0  0  0  0  0  0  0  0  0  0  0
   15.7002   25.3287   -4.0346 C   0  0  0  0  0  0  0  0  0  0  0  0
   16.5264   26.2464   -3.2779 C   0  0  0  0  0  0  0  0  0  0  0  0
   17.2822   27.2219   -3.8919 N   0  0  0  0  0  0  0  0  0  0  0  0
   18.0665   28.1881   -3.2396 C   0  0  0  0  0  0  0  0  0  0  0  0
   17.1065   27.1452   -5.1805 C   0  0  0  0  0  0  0  0  0  0  0  0
   17.9172   28.1788   -5.7403 O   0  0  0  0  0  0  0  0  0  0  0  0
   16.4979   26.5194   -6.0799 C   0  0  0  0  0  0  0  0  0  0  0  0
   16.5308   26.7226   -7.4733 C   0  0  0  0  0  0  0  0  0  0  0  0
   15.6400   25.6848   -8.1060 C   0  0  0  0  0  0  0  0  0  0  0  0
   15.0169   24.8548   -7.5744 C   0  0  0  0  0  0  0  0  0  0  0  0
   14.9452   24.6169   -6.1485 C   0  0  0  0  0  0  0  0  0  0  0  0
   15.6767   25.4469   -5.4476 C   0  0  0  0  0  0  0  0  0  0  0  0
   14.6558   20.8069   -0.2848 C   0  0  0  0  0  0  0  0  0  0  0  0
   14.3763   21.8512   -0.9488 O   0  0  0  0  0  0  0  0  0  0  0  0
   12.9319   26.4983   -3.5664 O   0  0  0  0  0  0  0  0  0  0  0  0
   13.5588   27.5742   -2.8612 C   0  0  0  0  0  0  0  0  0  0  0  0
   12.1419   22.9187   -0.4020 C   0  0  0  0  0  0  0  0  0  0  0  0
   10.8639   22.4565   -0.5102 N   0  0  0  0  0  0  0  0  0  0  0  0
   10.8316   21.0204   -0.3320 C   0  0  0  0  0  0  0  0  0  0  0  0
    9.7062   22.9846   -0.9734 C   0  0  0  0  0  0  0  0  0  0  0  0
 19 20  1  0  0  0
 20  1  1  0  0  0
  1  2  2  0  0  0
  2  3  1  0  0  0
  3  7  1  0  0  0
  7  8  2  0  0  0
  8  9  1  0  0  0
  9 10  1  0  0  0
  9 11  1  0  0  0
 11 12  2  0  0  0
 11 13  1  0  0  0
 13 14  2  0  0  0
 14 15  1  0  0  0
 15 16  2  0  0  0
 16 17  1  0  0  0
 17 18  2  0  0  0
  3  4  2  0  0  0
  4 21  1  0  0  0
 21 22  1  0  0  0
  4  5  1  0  0  0
  5  6  2  0  0  0
  6 23  1  0  0  0
 23 24  1  0  0  0
 24 25  1  0  0  0
 24 26  1  0  0  0
  6  1  1  0  0  0
 18  7  1  0  0  0
 18 13  1  0  0  0
M  END
> <minimizedAffinity>
2.60778

> <CNNscore>
0.4976974726

> <CNNaffinity>
6.5430707932

> <CNN_VS>
3.2564697266

> <CNNaffinity_variance>
0.3021713793

$$$$
[H]c1c(OC([H])([H])[H])c(C([H])([H])N(C([H])([H])[H])C([H])([H])[H])c([H])c(OC([H])([H])[H])c1-c1c([H])n(C([H])([H])[H])c(=O)c2c([H])c([H])c([H])c([H])c12


 26 28  0  0  0  0  0  0  0  0999 V2000
   12.7007   28.5133   -3.8273 C   0  0  0  0  0  0  0  0  0  0  0  0
   13.5380   27.6655   -3.0618 C   0  0  0  0  0  0  0  0  0  0  0  0
   13.1825   26.2648   -2.7799 C   0  0  0  0  0  0  0  0  0  0  0  0
   12.0421   25.8151   -3.2442 C   0  0  0  0  0  0  0  0  0  0  0  0
   11.1388   26.6373   -3.9654 C   0  0  0  0  0  0  0  0  0  0  0  0
   11.4941   27.8702   -4.2045 C   0  0  0  0  0  0  0  0  0  0  0  0
   14.3762   25.5439   -2.3331 C   0  0  0  0  0  0  0  0  0  0  0  0
   14.2554   24.6609   -1.1917 C   0  0  0  0  0  0  0  0  0  0  0  0
   15.3339   24.3552   -0.3898 N   0  0  0  0  0  0  0  0  0  0  0  0
   15.3005   23.5567    0.7659 C   0  0  0  0  0  0  0  0  0  0  0  0
   16.3863   24.9766   -0.8407 C   0  0  0  0  0  0  0  0  0  0  0  0
   17.4528   24.6102    0.0354 O   0  0  0  0  0  0  0  0  0  0  0  0
   16.7902   25.7609   -1.7310 C   0  0  0  0  0  0  0  0  0  0  0  0
   18.0857   26.2760   -1.9319 C   0  0  0  0  0  0  0  0  0  0  0  0
   18.0422   27.1529   -3.1567 C   0  0  0  0  0  0  0  0  0  0  0  0
   17.1243   27.3913   -3.8352 C   0  0  0  0  0  0  0  0  0  0  0  0
   15.7763   26.8942   -3.6604 C   0  0  0  0  0  0  0  0  0  0  0  0
   15.6461   26.1039   -2.6242 C   0  0  0  0  0  0  0  0  0  0  0  0
   13.1421   30.9040   -4.6222 C   0  0  0  0  0  0  0  0  0  0  0  0
   12.8760   29.7213   -4.2480 O   0  0  0  0  0  0  0  0  0  0  0  0
   11.6356   24.4629   -3.0891 O   0  0  0  0  0  0  0  0  0  0  0  0
   10.9387   24.3235   -1.8471 C   0  0  0  0  0  0  0  0  0  0  0  0
   10.6641   28.7801   -5.0560 C   0  0  0  0  0  0  0  0  0  0  0  0
    9.5423   29.4391   -4.6487 N   0  0  0  0  0  0  0  0  0  0  0  0
    8.4248   29.1080   -5.5070 C   0  0  0  0  0  0  0  0  0  0  0  0
    9.3107   30.4780   -3.8116 C   0  0  0  0  0  0  0  0  0  0  0  0
 19 20  1  0  0  0
 20  1  1  0  0  0
  1  2  2  0  0  0
  2  3  1  0  0  0
  3  7  1  0  0  0
  7  8  2  0  0  0
  8  9  1  0  0  0
  9 10  1  0  0  0
  9 11  1  0  0  0
 11 12  2  0  0  0
 11 13  1  0  0  0
 13 14  2  0  0  0
 14 15  1  0  0  0
 15 16  2  0  0  0
 16 17  1  0  0  0
 17 18  2  0  0  0
  3  4  2  0  0  0
  4 21  1  0  0  0
 21 22  1  0  0  0
  4  5  1  0  0  0
  5  6  2  0  0  0
  6 23  1  0  0  0
 23 24  1  0  0  0
 24 25  1  0  0  0
 24 26  1  0  0  0
  6  1  1  0  0  0
 18  7  1  0  0  0
 18 13  1  0  0  0
M  END
> <minimizedAffinity>
24.61874

> <CNNscore>
0.4919624329

> <CNNaffinity>
6.1641273499

> <CNN_VS>
3.0325191021

> <CNNaffinity_variance>
1.1205818653

$$$$
[H]c1c(OC([H])([H])[H])c(C([H])([H])N(C([H])([H])[H])C([H])([H])[H])c([H])c(OC([H])([H])[H])c1-c1c([H])n(C([H])([H])[H])c(=O)c2c([H])c([H])c([H])c([H])c12


 26 28  0  0  0  0  0  0  0  0999 V2000
   14.0901   26.1234   -4.0980 C   0  0  0  0  0  0  0  0  0  0  0  0
   14.5258   25.0903   -3.2328 C   0  0  0  0  0  0  0  0  0  0  0  0
   13.7653   24.7047   -2.0324 C   0  0  0  0  0  0  0  0  0  0  0  0
   12.6647   25.3644   -1.7643 C   0  0  0  0  0  0  0  0  0  0  0  0
   12.2142   26.4462   -2.5634 C   0  0  0  0  0  0  0  0  0  0  0  0
   12.9094   26.7512   -3.6250 C   0  0  0  0  0  0  0  0  0  0  0  0
   14.2202   23.3906   -1.5738 C   0  0  0  0  0  0  0  0  0  0  0  0
   13.3185   22.2663   -1.7152 C   0  0  0  0  0  0  0  0  0  0  0  0
   13.3998   21.1598   -0.8974 N   0  0  0  0  0  0  0  0  0  0  0  0
   12.5368   20.0513   -0.9237 C   0  0  0  0  0  0  0  0  0  0  0  0
   14.3734   21.3312   -0.0489 C   0  0  0  0  0  0  0  0  0  0  0  0
   14.3937   20.1512    0.7551 O   0  0  0  0  0  0  0  0  0  0  0  0
   15.2662   22.1328    0.3132 C   0  0  0  0  0  0  0  0  0  0  0  0
   16.2070   21.9953    1.3525 C   0  0  0  0  0  0  0  0  0  0  0  0
   17.0698   23.2308    1.3522 C   0  0  0  0  0  0  0  0  0  0  0  0
   16.9988   24.1543    0.6438 C   0  0  0  0  0  0  0  0  0  0  0  0
   16.0440   24.3421   -0.4276 C   0  0  0  0  0  0  0  0  0  0  0  0
   15.2117   23.3398   -0.5611 C   0  0  0  0  0  0  0  0  0  0  0  0
   15.1204   26.9204   -6.2993 C   0  0  0  0  0  0  0  0  0  0  0  0
   14.5634   26.5406   -5.2245 O   0  0  0  0  0  0  0  0  0  0  0  0
   11.8211   25.0283   -0.6720 O   0  0  0  0  0  0  0  0  0  0  0  0
   12.4262   25.4816    0.5430 C   0  0  0  0  0  0  0  0  0  0  0  0
   12.4533   27.7978   -4.5938 C   0  0  0  0  0  0  0  0  0  0  0  0
   11.6395   28.8502   -4.2958 N   0  0  0  0  0  0  0  0  0  0  0  0
   10.3800   28.7271   -4.9984 C   0  0  0  0  0  0  0  0  0  0  0  0
   11.8337   30.0564   -3.7115 C   0  0  0  0  0  0  0  0  0  0  0  0
 19 20  1  0  0  0
 20  1  1  0  0  0
  1  2  2  0  0  0
  2  3  1  0  0  0
  3  7  1  0  0  0
  7  8  2  0  0  0
  8  9  1  0  0  0
  9 10  1  0  0  0
  9 11  1  0  0  0
 11 12  2  0  0  0
 11 13  1  0  0  0
 13 14  2  0  0  0
 14 15  1  0  0  0
 15 16  2  0  0  0
 16 17  1  0  0  0
 17 18  2  0  0  0
  3  4  2  0  0  0
  4 21  1  0  0  0
 21 22  1  0  0  0
  4  5  1  0  0  0
  5  6  2  0  0  0
  6 23  1  0  0  0
 23 24  1  0  0  0
 24 25  1  0  0  0
 24 26  1  0  0  0
  6  1  1  0  0  0
 18  7  1  0  0  0
 18 13  1  0  0  0
M  END
> <minimizedAffinity>
3.57268

> <CNNscore>
0.4771167338

> <CNNaffinity>
6.7027831078

> <CNN_VS>
3.1980099678

> <CNNaffinity_variance>
0.3656133115

$$$$
[H]c1c(OC([H])([H])[H])c(C([H])([H])N(C([H])([H])[H])C([H])([H])[H])c([H])c(OC([H])([H])[H])c1-c1c([H])n(C([H])([H])[H])c(=O)c2c([H])c([H])c([H])c([H])c12


 26 28  0  0  0  0  0  0  0  0999 V2000
   13.3068   24.0726   -1.0162 C   0  0  0  0  0  0  0  0  0  0  0  0
   14.3979   24.7601   -1.6014 C   0  0  0  0  0  0  0  0  0  0  0  0
   15.2639   24.1325   -2.6134 C   0  0  0  0  0  0  0  0  0  0  0  0
   15.0116   22.8920   -2.9537 C   0  0  0  0  0  0  0  0  0  0  0  0
   13.9693   22.1378   -2.3563 C   0  0  0  0  0  0  0  0  0  0  0  0
   13.2165   22.7322   -1.4711 C   0  0  0  0  0  0  0  0  0  0  0  0
   16.0253   25.1718   -3.3092 C   0  0  0  0  0  0  0  0  0  0  0  0
   16.5806   26.2549   -2.5245 C   0  0  0  0  0  0  0  0  0  0  0  0
   16.8414   27.4923   -3.0726 N   0  0  0  0  0  0  0  0  0  0  0  0
   17.3250   28.6146   -2.3791 C   0  0  0  0  0  0  0  0  0  0  0  0
   16.5097   27.4759   -4.3322 C   0  0  0  0  0  0  0  0  0  0  0  0
   16.8091   28.7823   -4.8248 O   0  0  0  0  0  0  0  0  0  0  0  0
   16.0309   26.7561   -5.2398 C   0  0  0  0  0  0  0  0  0  0  0  0
   15.7771   27.0852   -6.5856 C   0  0  0  0  0  0  0  0  0  0  0  0
   15.2235   25.8557   -7.2585 C   0  0  0  0  0  0  0  0  0  0  0  0
   15.0213   24.8093   -6.7852 C   0  0  0  0  0  0  0  0  0  0  0  0
   15.2563   24.4309   -5.4081 C   0  0  0  0  0  0  0  0  0  0  0  0
   15.7465   25.4032   -4.6803 C   0  0  0  0  0  0  0  0  0  0  0  0
   11.5774   24.9043    0.6749 C   0  0  0  0  0  0  0  0  0  0  0  0
   12.3968   24.4733   -0.1925 O   0  0  0  0  0  0  0  0  0  0  0  0
   15.7408   22.2161   -3.9683 O   0  0  0  0  0  0  0  0  0  0  0  0
   14.8996   21.2260   -4.5681 C   0  0  0  0  0  0  0  0  0  0  0  0
   12.0210   22.0590   -0.8716 C   0  0  0  0  0  0  0  0  0  0  0  0
   12.0546   21.1222    0.1183 N   0  0  0  0  0  0  0  0  0  0  0  0
   10.9934   20.1555   -0.0677 C   0  0  0  0  0  0  0  0  0  0  0  0
   12.6753   21.0410    1.3191 C   0  0  0  0  0  0  0  0  0  0  0  0
 19 20  1  0  0  0
 20  1  1  0  0  0
  1  2  2  0  0  0
  2  3  1  0  0  0
  3  7  1  0  0  0
  7  8  2  0  0  0
  8  9  1  0  0  0
  9 10  1  0  0  0
  9 11  1  0  0  0
 11 12  2  0  0  0
 11 13  1  0  0  0
 13 14  2  0  0  0
 14 15  1  0  0  0
 15 16  2  0  0  0
 16 17  1  0  0  0
 17 18  2  0  0  0
  3  4  2  0  0  0
  4 21  1  0  0  0
 21 22  1  0  0  0
  4  5  1  0  0  0
  5  6  2  0  0  0
  6 23  1  0  0  0
 23 24  1  0  0  0
 24 25  1  0  0  0
 24 26  1  0  0  0
  6  1  1  0  0  0
 18  7  1  0  0  0
 18 13  1  0  0  0
M  END
> <minimizedAffinity>
-2.64768

> <CNNscore>
0.4505744576

> <CNNaffinity>
6.7391252518

> <CNN_VS>
3.0364778042

> <CNNaffinity_variance>
0.3269484937

$$$$
[H]c1nc([H])c(N([H])C(=O)c2nn(-c3c([H])c([H])c([H])c([H])c3Cl)c(-c3c([H])c([H])c(Cl)c([H])c3[H])c2C([H])([H])C(=O)N([H])[H])c(C([H])([H])[H])c1[H]


 36 39  0  0  0  0  0  0  0  0999 V2000
   12.8642   25.5036   -1.4245 C   0  0  0  0  0  0  0  0  0  0  0  0
   12.2544   26.6623   -1.7178 N   0  0  0  0  0  0  0  0  0  0  0  0
   12.7205   27.1797   -2.8613 N   0  0  0  0  0  0  0  0  0  0  0  0
   13.6832   26.3516   -3.3742 C   0  0  0  0  0  0  0  0  0  0  0  0
   13.7626   25.3100   -2.4737 C   0  0  0  0  0  0  0  0  0  0  0  0
   12.2334   28.4179   -3.3338 C   0  0  0  0  0  0  0  0  0  0  0  0
   12.6753   29.5931   -2.7724 C   0  0  0  0  0  0  0  0  0  0  0  0
   12.1848   30.8301   -3.2076 C   0  0  0  0  0  0  0  0  0  0  0  0
   11.2399   30.8950   -4.2174 C   0  0  0  0  0  0  0  0  0  0  0  0
   10.8017   29.7192   -4.7749 C   0  0  0  0  0  0  0  0  0  0  0  0
   11.2834   28.5039   -4.3473 C   0  0  0  0  0  0  0  0  0  0  0  0
   10.7345   26.9983   -5.0483 Cl  0  0  0  0  0  0  0  0  0  0  0  0
   14.5185   26.6554   -4.5255 C   0  0  0  0  0  0  0  0  0  0  0  0
   14.3990   26.0711   -5.7608 C   0  0  0  0  0  0  0  0  0  0  0  0
   15.1252   26.4427   -6.8852 C   0  0  0  0  0  0  0  0  0  0  0  0
   16.0366   27.4626   -6.7836 C   0  0  0  0  0  0  0  0  0  0  0  0
   16.9374   27.9109   -8.2125 Cl  0  0  0  0  0  0  0  0  0  0  0  0
   16.1994   28.0785   -5.5828 C   0  0  0  0  0  0  0  0  0  0  0  0
   15.4577   27.6916   -4.4615 C   0  0  0  0  0  0  0  0  0  0  0  0
   11.3952   23.9606   -0.1856 N   0  0  0  0  0  0  0  0  0  0  0  0
   12.6162   24.6636   -0.2497 C   0  0  0  0  0  0  0  0  0  0  0  0
   13.4534   24.5810    0.6466 O   0  0  0  0  0  0  0  0  0  0  0  0
   10.7505   24.1175   -1.0339 H   0  0  0  0  0  0  0  0  0  0  0  0
   11.8271   21.2415   -0.5543 C   0  0  0  0  0  0  0  0  0  0  0  0
   11.1403   21.7204    0.6588 C   0  0  0  0  0  0  0  0  0  0  0  0
   10.7170   20.8118    1.6079 C   0  0  0  0  0  0  0  0  0  0  0  0
   10.0702   21.2171    2.7487 C   0  0  0  0  0  0  0  0  0  0  0  0
    9.8721   22.5298    2.8934 N   0  0  0  0  0  0  0  0  0  0  0  0
   10.2800   23.4576    1.9702 C   0  0  0  0  0  0  0  0  0  0  0  0
   10.9284   23.1010    0.8179 C   0  0  0  0  0  0  0  0  0  0  0  0
   14.5874   24.0656   -2.5727 C   0  0  0  0  0  0  0  0  0  0  0  0
   15.9939   24.4573   -2.1707 C   0  0  0  0  0  0  0  0  0  0  0  0
   16.2229   24.7450   -0.8143 N   0  0  0  0  0  0  0  0  0  0  0  0
   16.9076   24.5222   -3.0011 O   0  0  0  0  0  0  0  0  0  0  0  0
   15.6691   25.4644   -0.2652 H   0  0  0  0  0  0  0  0  0  0  0  0
   16.9713   24.2618   -0.2333 H   0  0  0  0  0  0  0  0  0  0  0  0
 24 25  1  0  0  0
 25 26  2  0  0  0
 26 27  1  0  0  0
 27 28  2  0  0  0
 28 29  1  0  0  0
 29 30  2  0  0  0
 30 20  1  0  0  0
 20 21  1  0  0  0
 21 22  2  0  0  0
 21  1  1  0  0  0
  1  2  2  0  0  0
  2  3  1  0  0  0
  3  6  1  0  0  0
  6  7  2  0  0  0
  7  8  1  0  0  0
  8  9  2  0  0  0
  9 10  1  0  0  0
 10 11  2  0  0  0
 11 12  1  0  0  0
  3  4  1  0  0  0
  4 13  1  0  0  0
 13 14  2  0  0  0
 14 15  1  0  0  0
 15 16  2  0  0  0
 16 17  1  0  0  0
 16 18  1  0  0  0
 18 19  2  0  0  0
  4  5  2  0  0  0
  5 31  1  0  0  0
 31 32  1  0  0  0
 32 33  1  0  0  0
 32 34  2  0  0  0
 30 25  1  0  0  0
  5  1  1  0  0  0
 11  6  1  0  0  0
 19 13  1  0  0  0
 20 23  1  0  0  0
 33 35  1  0  0  0
 33 36  1  0  0  0
M  END
> <minimizedAffinity>
17.06390

> <CNNscore>
0.4578098655

> <CNNaffinity>
7.4323029518

> <CNN_VS>
3.4025816917

> <CNNaffinity_variance>
0.7799823284

$$$$
[H]c1nc([H])c(N([H])C(=O)c2nn(-c3c([H])c([H])c([H])c([H])c3Cl)c(-c3c([H])c([H])c(Cl)c([H])c3[H])c2C([H])([H])C(=O)N([H])[H])c(C([H])([H])[H])c1[H]


 36 39  0  0  0  0  0  0  0  0999 V2000
   12.5663   25.0958   -0.2220 C   0  0  0  0  0  0  0  0  0  0  0  0
   13.3236   26.0158   -0.8390 N   0  0  0  0  0  0  0  0  0  0  0  0
   14.0352   25.4705   -1.8333 N   0  0  0  0  0  0  0  0  0  0  0  0
   13.7605   24.1307   -1.9053 C   0  0  0  0  0  0  0  0  0  0  0  0
   12.8429   23.9087   -0.8999 C   0  0  0  0  0  0  0  0  0  0  0  0
   14.9255   26.2631   -2.5901 C   0  0  0  0  0  0  0  0  0  0  0  0
   16.2375   26.3930   -2.1986 C   0  0  0  0  0  0  0  0  0  0  0  0
   17.1298   27.1958   -2.9195 C   0  0  0  0  0  0  0  0  0  0  0  0
   16.7065   27.8785   -4.0470 C   0  0  0  0  0  0  0  0  0  0  0  0
   15.3958   27.7458   -4.4341 C   0  0  0  0  0  0  0  0  0  0  0  0
   14.5191   26.9572   -3.7259 C   0  0  0  0  0  0  0  0  0  0  0  0
   12.8470   26.7788   -4.2073 Cl  0  0  0  0  0  0  0  0  0  0  0  0
   14.4529   23.1817   -2.7630 C   0  0  0  0  0  0  0  0  0  0  0  0
   14.4312   21.8190   -2.6075 C   0  0  0  0  0  0  0  0  0  0  0  0
   15.0024   20.9127   -3.4918 C   0  0  0  0  0  0  0  0  0  0  0  0
   15.6431   21.3844   -4.6091 C   0  0  0  0  0  0  0  0  0  0  0  0
   16.3534   20.2239   -5.7058 Cl  0  0  0  0  0  0  0  0  0  0  0  0
   15.6978   22.7269   -4.8152 C   0  0  0  0  0  0  0  0  0  0  0  0
   15.1151   23.6245   -3.9141 C   0  0  0  0  0  0  0  0  0  0  0  0
   10.5465   24.4837    1.0505 N   0  0  0  0  0  0  0  0  0  0  0  0
   11.6678   25.3279    0.9120 C   0  0  0  0  0  0  0  0  0  0  0  0
   11.8937   26.2331    1.7124 O   0  0  0  0  0  0  0  0  0  0  0  0
   10.4637   23.7307    0.2849 H   0  0  0  0  0  0  0  0  0  0  0  0
    8.6178   22.4884    0.9277 C   0  0  0  0  0  0  0  0  0  0  0  0
    8.5679   23.4959    2.0024 C   0  0  0  0  0  0  0  0  0  0  0  0
    7.5612   23.4399    2.9452 C   0  0  0  0  0  0  0  0  0  0  0  0
    7.4774   24.3616    3.9588 C   0  0  0  0  0  0  0  0  0  0  0  0
    8.4155   25.3116    3.9866 N   0  0  0  0  0  0  0  0  0  0  0  0
    9.4280   25.3951    3.0660 C   0  0  0  0  0  0  0  0  0  0  0  0
    9.5523   24.4990    2.0379 C   0  0  0  0  0  0  0  0  0  0  0  0
   12.1216   22.6393   -0.5729 C   0  0  0  0  0  0  0  0  0  0  0  0
   12.8376   22.0410    0.6198 C   0  0  0  0  0  0  0  0  0  0  0  0
   12.0611   21.3310    1.5515 N   0  0  0  0  0  0  0  0  0  0  0  0
   14.0579   22.1704    0.7710 O   0  0  0  0  0  0  0  0  0  0  0  0
   11.2082   21.7364    2.0351 H   0  0  0  0  0  0  0  0  0  0  0  0
   12.2704   20.3299    1.8435 H   0  0  0  0  0  0  0  0  0  0  0  0
 24 25  1  0  0  0
 25 26  2  0  0  0
 26 27  1  0  0  0
 27 28  2  0  0  0
 28 29  1  0  0  0
 29 30  2  0  0  0
 30 20  1  0  0  0
 20 21  1  0  0  0
 21 22  2  0  0  0
 21  1  1  0  0  0
  1  2  2  0  0  0
  2  3  1  0  0  0
  3  6  1  0  0  0
  6  7  2  0  0  0
  7  8  1  0  0  0
  8  9  2  0  0  0
  9 10  1  0  0  0
 10 11  2  0  0  0
 11 12  1  0  0  0
  3  4  1  0  0  0
  4 13  1  0  0  0
 13 14  2  0  0  0
 14 15  1  0  0  0
 15 16  2  0  0  0
 16 17  1  0  0  0
 16 18  1  0  0  0
 18 19  2  0  0  0
  4  5  2  0  0  0
  5 31  1  0  0  0
 31 32  1  0  0  0
 32 33  1  0  0  0
 32 34  2  0  0  0
 30 25  1  0  0  0
  5  1  1  0  0  0
 11  6  1  0  0  0
 19 13  1  0  0  0
 20 23  1  0  0  0
 33 35  1  0  0  0
 33 36  1  0  0  0
M  END
> <minimizedAffinity>
2.69273

> <CNNscore>
0.4475606382

> <CNNaffinity>
7.5388512611

> <CNN_VS>
3.3740930557

> <CNNaffinity_variance>
0.4855462015

$$$$
[H]c1nc([H])c(N([H])C(=O)c2nn(-c3c([H])c([H])c([H])c([H])c3Cl)c(-c3c([H])c([H])c(Cl)c([H])c3[H])c2C([H])([H])C(=O)N([H])[H])c(C([H])([H])[H])c1[H]


 36 39  0  0  0  0  0  0  0  0999 V2000
   11.8092   23.5853    0.6169 C   0  0  0  0  0  0  0  0  0  0  0  0
   12.9920   23.2798    1.1723 N   0  0  0  0  0  0  0  0  0  0  0  0
   13.9980   23.4812    0.3122 N   0  0  0  0  0  0  0  0  0  0  0  0
   13.4938   23.9405   -0.8754 C   0  0  0  0  0  0  0  0  0  0  0  0
   12.1310   24.0045   -0.6738 C   0  0  0  0  0  0  0  0  0  0  0  0
   15.3268   23.1873    0.6887 C   0  0  0  0  0  0  0  0  0  0  0  0
   16.2741   24.1840    0.7120 C   0  0  0  0  0  0  0  0  0  0  0  0
   17.6031   23.9088    1.0561 C   0  0  0  0  0  0  0  0  0  0  0  0
   17.9919   22.6206    1.3815 C   0  0  0  0  0  0  0  0  0  0  0  0
   17.0426   21.6287    1.3568 C   0  0  0  0  0  0  0  0  0  0  0  0
   15.7370   21.8990    1.0187 C   0  0  0  0  0  0  0  0  0  0  0  0
   14.5174   20.6457    0.9833 Cl  0  0  0  0  0  0  0  0  0  0  0  0
   14.2670   24.1302   -2.0927 C   0  0  0  0  0  0  0  0  0  0  0  0
   14.5753   23.1408   -2.9915 C   0  0  0  0  0  0  0  0  0  0  0  0
   15.2184   23.3472   -4.2054 C   0  0  0  0  0  0  0  0  0  0  0  0
   15.5861   24.6208   -4.5574 C   0  0  0  0  0  0  0  0  0  0  0  0
   16.3938   24.8539   -6.0895 Cl  0  0  0  0  0  0  0  0  0  0  0  0
   15.3077   25.6423   -3.7048 C   0  0  0  0  0  0  0  0  0  0  0  0
   14.6577   25.4154   -2.4869 C   0  0  0  0  0  0  0  0  0  0  0  0
   10.0525   22.2019    1.6530 N   0  0  0  0  0  0  0  0  0  0  0  0
   10.4953   23.4810    1.2571 C   0  0  0  0  0  0  0  0  0  0  0  0
    9.8082   24.4840    1.4390 O   0  0  0  0  0  0  0  0  0  0  0  0
   10.7479   21.4081    1.4382 H   0  0  0  0  0  0  0  0  0  0  0  0
    8.0277   21.2182    0.0254 C   0  0  0  0  0  0  0  0  0  0  0  0
    7.8126   21.3362    1.4788 C   0  0  0  0  0  0  0  0  0  0  0  0
    6.6034   20.9537    2.0238 C   0  0  0  0  0  0  0  0  0  0  0  0
    6.3623   21.0520    3.3714 C   0  0  0  0  0  0  0  0  0  0  0  0
    7.3529   21.5345    4.1258 N   0  0  0  0  0  0  0  0  0  0  0  0
    8.5650   21.9229    3.6160 C   0  0  0  0  0  0  0  0  0  0  0  0
    8.8512   21.8433    2.2792 C   0  0  0  0  0  0  0  0  0  0  0  0
   11.0838   24.5260   -1.6067 C   0  0  0  0  0  0  0  0  0  0  0  0
   11.6355   25.8120   -2.1856 C   0  0  0  0  0  0  0  0  0  0  0  0
   11.4656   26.0264   -3.5641 N   0  0  0  0  0  0  0  0  0  0  0  0
   12.2135   26.6431   -1.4758 O   0  0  0  0  0  0  0  0  0  0  0  0
   11.7830   25.3402   -4.3084 H   0  0  0  0  0  0  0  0  0  0  0  0
   11.0043   26.8959   -3.9671 H   0  0  0  0  0  0  0  0  0  0  0  0
 24 25  1  0  0  0
 25 26  2  0  0  0
 26 27  1  0  0  0
 27 28  2  0  0  0
 28 29  1  0  0  0
 29 30  2  0  0  0
 30 20  1  0  0  0
 20 21  1  0  0  0
 21 22  2  0  0  0
 21  1  1  0  0  0
  1  2  2  0  0  0
  2  3  1  0  0  0
  3  6  1  0  0  0
  6  7  2  0  0  0
  7  8  1  0  0  0
  8  9  2  0  0  0
  9 10  1  0  0  0
 10 11  2  0  0  0
 11 12  1  0  0  0
  3  4  1  0  0  0
  4 13  1  0  0  0
 13 14  2  0  0  0
 14 15  1  0  0  0
 15 16  2  0  0  0
 16 17  1  0  0  0
 16 18  1  0  0  0
 18 19  2  0  0  0
  4  5  2  0  0  0
  5 31  1  0  0  0
 31 32  1  0  0  0
 32 33  1  0  0  0
 32 34  2  0  0  0
 30 25  1  0  0  0
  5  1  1  0  0  0
 11  6  1  0  0  0
 19 13  1  0  0  0
 20 23  1  0  0  0
 33 35  1  0  0  0
 33 36  1  0  0  0
M  END
> <minimizedAffinity>
2.83913

> <CNNscore>
0.4428588748

> <CNNaffinity>
7.6179709435

> <CNN_VS>
3.3736860752

> <CNNaffinity_variance>
0.9476975203

$$$$
[H]c1nc([H])c(N([H])C(=O)c2nn(-c3c([H])c([H])c([H])c([H])c3Cl)c(-c3c([H])c([H])c(Cl)c([H])c3[H])c2C([H])([H])C(=O)N([H])[H])c(C([H])([H])[H])c1[H]


 36 39  0  0  0  0  0  0  0  0999 V2000
   12.7122   23.6324   -0.7177 C   0  0  0  0  0  0  0  0  0  0  0  0
   11.6396   24.2576   -0.2087 N   0  0  0  0  0  0  0  0  0  0  0  0
   11.2184   23.6619    0.9139 N   0  0  0  0  0  0  0  0  0  0  0  0
   12.0263   22.5908    1.1890 C   0  0  0  0  0  0  0  0  0  0  0  0
   12.9545   22.5834    0.1690 C   0  0  0  0  0  0  0  0  0  0  0  0
   10.0777   24.1446    1.5917 C   0  0  0  0  0  0  0  0  0  0  0  0
   10.1867   25.2105    2.4540 C   0  0  0  0  0  0  0  0  0  0  0  0
    9.0734   25.6873    3.1566 C   0  0  0  0  0  0  0  0  0  0  0  0
    7.8340   25.0917    2.9962 C   0  0  0  0  0  0  0  0  0  0  0  0
    7.7300   24.0279    2.1342 C   0  0  0  0  0  0  0  0  0  0  0  0
    8.8237   23.5594    1.4441 C   0  0  0  0  0  0  0  0  0  0  0  0
    8.7060   22.2055    0.3429 Cl  0  0  0  0  0  0  0  0  0  0  0  0
   11.7911   21.6173    2.2437 C   0  0  0  0  0  0  0  0  0  0  0  0
   11.1346   21.8747    3.4204 C   0  0  0  0  0  0  0  0  0  0  0  0
   10.8164   20.9167    4.3747 C   0  0  0  0  0  0  0  0  0  0  0  0
   11.1734   19.6109    4.1538 C   0  0  0  0  0  0  0  0  0  0  0  0
   10.7617   18.4250    5.3696 Cl  0  0  0  0  0  0  0  0  0  0  0  0
   11.8280   19.2961    3.0048 C   0  0  0  0  0  0  0  0  0  0  0  0
   12.1386   20.2745    2.0543 C   0  0  0  0  0  0  0  0  0  0  0  0
   13.5980   25.3707   -2.2235 N   0  0  0  0  0  0  0  0  0  0  0  0
   13.4341   23.9991   -1.9390 C   0  0  0  0  0  0  0  0  0  0  0  0
   13.8793   23.1300   -2.6858 O   0  0  0  0  0  0  0  0  0  0  0  0
   13.1629   26.0285   -1.4901 H   0  0  0  0  0  0  0  0  0  0  0  0
   16.3625   25.6004   -2.0787 C   0  0  0  0  0  0  0  0  0  0  0  0
   15.6437   26.0929   -3.2675 C   0  0  0  0  0  0  0  0  0  0  0  0
   16.3515   26.6648   -4.3056 C   0  0  0  0  0  0  0  0  0  0  0  0
   15.7189   27.1394   -5.4275 C   0  0  0  0  0  0  0  0  0  0  0  0
   14.3894   27.0202   -5.4640 N   0  0  0  0  0  0  0  0  0  0  0  0
   13.6573   26.4574   -4.4505 C   0  0  0  0  0  0  0  0  0  0  0  0
   14.2439   25.9706   -3.3128 C   0  0  0  0  0  0  0  0  0  0  0  0
   14.1396   21.6846    0.0065 C   0  0  0  0  0  0  0  0  0  0  0  0
   15.2615   22.3155    0.8043 C   0  0  0  0  0  0  0  0  0  0  0  0
   16.1188   21.4532    1.5090 N   0  0  0  0  0  0  0  0  0  0  0  0
   15.4199   23.5413    0.8365 O   0  0  0  0  0  0  0  0  0  0  0  0
   15.7800   20.7319    2.2093 H   0  0  0  0  0  0  0  0  0  0  0  0
   17.1761   21.4583    1.3932 H   0  0  0  0  0  0  0  0  0  0  0  0
 24 25  1  0  0  0
 25 26  2  0  0  0
 26 27  1  0  0  0
 27 28  2  0  0  0
 28 29  1  0  0  0
 29 30  2  0  0  0
 30 20  1  0  0  0
 20 21  1  0  0  0
 21 22  2  0  0  0
 21  1  1  0  0  0
  1  2  2  0  0  0
  2  3  1  0  0  0
  3  6  1  0  0  0
  6  7  2  0  0  0
  7  8  1  0  0  0
  8  9  2  0  0  0
  9 10  1  0  0  0
 10 11  2  0  0  0
 11 12  1  0  0  0
  3  4  1  0  0  0
  4 13  1  0  0  0
 13 14  2  0  0  0
 14 15  1  0  0  0
 15 16  2  0  0  0
 16 17  1  0  0  0
 16 18  1  0  0  0
 18 19  2  0  0  0
  4  5  2  0  0  0
  5 31  1  0  0  0
 31 32  1  0  0  0
 32 33  1  0  0  0
 32 34  2  0  0  0
 30 25  1  0  0  0
  5  1  1  0  0  0
 11  6  1  0  0  0
 19 13  1  0  0  0
 20 23  1  0  0  0
 33 35  1  0  0  0
 33 36  1  0  0  0
M  END
> <minimizedAffinity>
-8.66523

> <CNNscore>
0.4230707884

> <CNNaffinity>
7.6620626450

> <CNN_VS>
3.2415947914

> <CNNaffinity_variance>
0.1536983848

$$$$
[H]c1nc([H])c(N([H])C(=O)c2nn(-c3c([H])c([H])c([H])c([H])c3Cl)c(-c3c([H])c([H])c(Cl)c([H])c3[H])c2C([H])([H])C(=O)N([H])[H])c(C([H])([H])[H])c1[H]


 36 39  0  0  0  0  0  0  0  0999 V2000
   13.4097   24.8299   -2.0842 C   0  0  0  0  0  0  0  0  0  0  0  0
   13.4434   24.7579   -3.4237 N   0  0  0  0  0  0  0  0  0  0  0  0
   14.5189   25.3849   -3.9162 N   0  0  0  0  0  0  0  0  0  0  0  0
   15.2517   25.9067   -2.8834 C   0  0  0  0  0  0  0  0  0  0  0  0
   14.5540   25.5529   -1.7476 C   0  0  0  0  0  0  0  0  0  0  0  0
   14.7258   25.4556   -5.3111 C   0  0  0  0  0  0  0  0  0  0  0  0
   14.1461   26.4642   -6.0447 C   0  0  0  0  0  0  0  0  0  0  0  0
   14.3163   26.5369   -7.4325 C   0  0  0  0  0  0  0  0  0  0  0  0
   15.0759   25.5896   -8.0974 C   0  0  0  0  0  0  0  0  0  0  0  0
   15.6528   24.5845   -7.3609 C   0  0  0  0  0  0  0  0  0  0  0  0
   15.4855   24.5129   -5.9975 C   0  0  0  0  0  0  0  0  0  0  0  0
   16.2144   23.2385   -5.0466 Cl  0  0  0  0  0  0  0  0  0  0  0  0
   16.4051   26.7795   -3.0361 C   0  0  0  0  0  0  0  0  0  0  0  0
   17.6649   26.5086   -2.5658 C   0  0  0  0  0  0  0  0  0  0  0  0
   18.7857   27.2924   -2.8091 C   0  0  0  0  0  0  0  0  0  0  0  0
   18.6543   28.4264   -3.5693 C   0  0  0  0  0  0  0  0  0  0  0  0
   20.0792   29.3953   -3.8607 Cl  0  0  0  0  0  0  0  0  0  0  0  0
   17.4283   28.7468   -4.0615 C   0  0  0  0  0  0  0  0  0  0  0  0
   16.3110   27.9441   -3.8072 C   0  0  0  0  0  0  0  0  0  0  0  0
   12.7570   23.2420   -0.3161 N   0  0  0  0  0  0  0  0  0  0  0  0
   12.3787   24.2662   -1.2088 C   0  0  0  0  0  0  0  0  0  0  0  0
   11.2224   24.6808   -1.2588 O   0  0  0  0  0  0  0  0  0  0  0  0
   13.7980   22.9714   -0.3705 H   0  0  0  0  0  0  0  0  0  0  0  0
   12.4080   20.5185   -0.7368 C   0  0  0  0  0  0  0  0  0  0  0  0
   11.7809   21.1704    0.4270 C   0  0  0  0  0  0  0  0  0  0  0  0
   11.0239   20.4204    1.3045 C   0  0  0  0  0  0  0  0  0  0  0  0
   10.4202   20.9906    2.3973 C   0  0  0  0  0  0  0  0  0  0  0  0
   10.6016   22.3025    2.5682 N   0  0  0  0  0  0  0  0  0  0  0  0
   11.3472   23.0754    1.7158 C   0  0  0  0  0  0  0  0  0  0  0  0
   11.9678   22.5513    0.6133 C   0  0  0  0  0  0  0  0  0  0  0  0
   14.9395   25.7799   -0.3198 C   0  0  0  0  0  0  0  0  0  0  0  0
   15.9211   24.6820    0.0330 C   0  0  0  0  0  0  0  0  0  0  0  0
   15.4155   23.5499    0.6945 N   0  0  0  0  0  0  0  0  0  0  0  0
   17.1214   24.7751   -0.2487 O   0  0  0  0  0  0  0  0  0  0  0  0
   14.8615   23.5965    1.5980 H   0  0  0  0  0  0  0  0  0  0  0  0
   15.5505   22.5568    0.3383 H   0  0  0  0  0  0  0  0  0  0  0  0
 24 25  1  0  0  0
 25 26  2  0  0  0
 26 27  1  0  0  0
 27 28  2  0  0  0
 28 29  1  0  0  0
 29 30  2  0  0  0
 30 20  1  0  0  0
 20 21  1  0  0  0
 21 22  2  0  0  0
 21  1  1  0  0  0
  1  2  2  0  0  0
  2  3  1  0  0  0
  3  6  1  0  0  0
  6  7  2  0  0  0
  7  8  1  0  0  0
  8  9  2  0  0  0
  9 10  1  0  0  0
 10 11  2  0  0  0
 11 12  1  0  0  0
  3  4  1  0  0  0
  4 13  1  0  0  0
 13 14  2  0  0  0
 14 15  1  0  0  0
 15 16  2  0  0  0
 16 17  1  0  0  0
 16 18  1  0  0  0
 18 19  2  0  0  0
  4  5  2  0  0  0
  5 31  1  0  0  0
 31 32  1  0  0  0
 32 33  1  0  0  0
 32 34  2  0  0  0
 30 25  1  0  0  0
  5  1  1  0  0  0
 11  6  1  0  0  0
 19 13  1  0  0  0
 20 23  1  0  0  0
 33 35  1  0  0  0
 33 36  1  0  0  0
M  END
> <minimizedAffinity>
4.41440

> <CNNscore>
0.4148552120

> <CNNaffinity>
7.5139493942

> <CNN_VS>
3.1172010899

> <CNNaffinity_variance>
0.5029451251

$$$$
[H]c1nc([H])c(N([H])C(=O)c2nn(-c3c([H])c([H])c([H])c([H])c3Cl)c(-c3c([H])c([H])c(Cl)c([H])c3[H])c2C([H])([H])C(=O)N([H])[H])c(C([H])([H])[H])c1[H]


 36 39  0  0  0  0  0  0  0  0999 V2000
   14.0416   24.2036   -1.9458 C   0  0  0  0  0  0  0  0  0  0  0  0
   13.9581   24.2063   -3.2851 N   0  0  0  0  0  0  0  0  0  0  0  0
   14.8663   25.0280   -3.8259 N   0  0  0  0  0  0  0  0  0  0  0  0
   15.6007   25.6115   -2.8280 C   0  0  0  0  0  0  0  0  0  0  0  0
   15.0812   25.0892   -1.6622 C   0  0  0  0  0  0  0  0  0  0  0  0
   14.9246   25.2029   -5.2258 C   0  0  0  0  0  0  0  0  0  0  0  0
   15.7188   24.3817   -5.9916 C   0  0  0  0  0  0  0  0  0  0  0  0
   15.8118   24.5555   -7.3778 C   0  0  0  0  0  0  0  0  0  0  0  0
   15.1022   25.5632   -8.0084 C   0  0  0  0  0  0  0  0  0  0  0  0
   14.3106   26.3806   -7.2397 C   0  0  0  0  0  0  0  0  0  0  0  0
   14.2192   26.2099   -5.8780 C   0  0  0  0  0  0  0  0  0  0  0  0
   13.2150   27.2434   -4.8865 Cl  0  0  0  0  0  0  0  0  0  0  0  0
   16.5782   26.6709   -3.0216 C   0  0  0  0  0  0  0  0  0  0  0  0
   17.8954   26.6051   -2.6441 C   0  0  0  0  0  0  0  0  0  0  0  0
   18.8494   27.5738   -2.9294 C   0  0  0  0  0  0  0  0  0  0  0  0
   18.4772   28.6888   -3.6360 C   0  0  0  0  0  0  0  0  0  0  0  0
   19.6960   29.8926   -3.9819 Cl  0  0  0  0  0  0  0  0  0  0  0  0
   17.1835   28.8096   -4.0357 C   0  0  0  0  0  0  0  0  0  0  0  0
   16.2369   27.8227   -3.7404 C   0  0  0  0  0  0  0  0  0  0  0  0
   11.8074   23.6226   -1.0833 N   0  0  0  0  0  0  0  0  0  0  0  0
   13.2035   23.4323   -1.0240 C   0  0  0  0  0  0  0  0  0  0  0  0
   13.7119   22.6459   -0.2275 O   0  0  0  0  0  0  0  0  0  0  0  0
   11.4904   24.3372   -1.8241 H   0  0  0  0  0  0  0  0  0  0  0  0
   11.0273   24.9202    1.2456 C   0  0  0  0  0  0  0  0  0  0  0  0
   10.3865   23.6500    0.8602 C   0  0  0  0  0  0  0  0  0  0  0  0
    9.3982   23.1130    1.6604 C   0  0  0  0  0  0  0  0  0  0  0  0
    8.7802   21.9304    1.3386 C   0  0  0  0  0  0  0  0  0  0  0  0
    9.1819   21.3280    0.2165 N   0  0  0  0  0  0  0  0  0  0  0  0
   10.1601   21.8347   -0.5997 C   0  0  0  0  0  0  0  0  0  0  0  0
   10.8043   23.0102   -0.3199 C   0  0  0  0  0  0  0  0  0  0  0  0
   15.5599   25.3045   -0.2610 C   0  0  0  0  0  0  0  0  0  0  0  0
   16.6178   24.2507   -0.0088 C   0  0  0  0  0  0  0  0  0  0  0  0
   16.2684   23.1672    0.8153 N   0  0  0  0  0  0  0  0  0  0  0  0
   17.7461   24.3373   -0.5070 O   0  0  0  0  0  0  0  0  0  0  0  0
   15.8826   23.2771    1.7974 H   0  0  0  0  0  0  0  0  0  0  0  0
   16.3648   22.1512    0.5157 H   0  0  0  0  0  0  0  0  0  0  0  0
 24 25  1  0  0  0
 25 26  2  0  0  0
 26 27  1  0  0  0
 27 28  2  0  0  0
 28 29  1  0  0  0
 29 30  2  0  0  0
 30 20  1  0  0  0
 20 21  1  0  0  0
 21 22  2  0  0  0
 21  1  1  0  0  0
  1  2  2  0  0  0
  2  3  1  0  0  0
  3  6  1  0  0  0
  6  7  2  0  0  0
  7  8  1  0  0  0
  8  9  2  0  0  0
  9 10  1  0  0  0
 10 11  2  0  0  0
 11 12  1  0  0  0
  3  4  1  0  0  0
  4 13  1  0  0  0
 13 14  2  0  0  0
 14 15  1  0  0  0
 15 16  2  0  0  0
 16 17  1  0  0  0
 16 18  1  0  0  0
 18 19  2  0  0  0
  4  5  2  0  0  0
  5 31  1  0  0  0
 31 32  1  0  0  0
 32 33  1  0  0  0
 32 34  2  0  0  0
 30 25  1  0  0  0
  5  1  1  0  0  0
 11  6  1  0  0  0
 19 13  1  0  0  0
 20 23  1  0  0  0
 33 35  1  0  0  0
 33 36  1  0  0  0
M  END
> <minimizedAffinity>
3.86559

> <CNNscore>
0.4138425291

> <CNNaffinity>
7.7497391701

> <CNN_VS>
3.2071716785

> <CNNaffinity_variance>
0.7255493402

$$$$
[H]c1nc([H])c(N([H])C(=O)c2nn(-c3c([H])c([H])c([H])c([H])c3Cl)c(-c3c([H])c([H])c(Cl)c([H])c3[H])c2C([H])([H])C(=O)N([H])[H])c(C([H])([H])[H])c1[H]


 36 39  0  0  0  0  0  0  0  0999 V2000
   14.9326   24.6883   -2.5704 C   0  0  0  0  0  0  0  0  0  0  0  0
   15.4895   23.7447   -1.7957 N   0  0  0  0  0  0  0  0  0  0  0  0
   14.5557   23.0237   -1.1627 N   0  0  0  0  0  0  0  0  0  0  0  0
   13.3140   23.4843   -1.5114 C   0  0  0  0  0  0  0  0  0  0  0  0
   13.5600   24.5183   -2.3902 C   0  0  0  0  0  0  0  0  0  0  0  0
   14.9325   21.9977   -0.2689 C   0  0  0  0  0  0  0  0  0  0  0  0
   15.7497   22.2796    0.8008 C   0  0  0  0  0  0  0  0  0  0  0  0
   16.1570   21.2718    1.6832 C   0  0  0  0  0  0  0  0  0  0  0  0
   15.7428   19.9642    1.4953 C   0  0  0  0  0  0  0  0  0  0  0  0
   14.9270   19.6875    0.4260 C   0  0  0  0  0  0  0  0  0  0  0  0
   14.5269   20.6775   -0.4410 C   0  0  0  0  0  0  0  0  0  0  0  0
   13.4879   20.3396   -1.8070 Cl  0  0  0  0  0  0  0  0  0  0  0  0
   12.0630   23.0463   -0.9125 C   0  0  0  0  0  0  0  0  0  0  0  0
   11.1357   22.2425   -1.5256 C   0  0  0  0  0  0  0  0  0  0  0  0
    9.9966   21.7379   -0.9112 C   0  0  0  0  0  0  0  0  0  0  0  0
    9.7531   22.0503    0.4019 C   0  0  0  0  0  0  0  0  0  0  0  0
    8.3133   21.4031    1.1517 Cl  0  0  0  0  0  0  0  0  0  0  0  0
   10.6372   22.8451    1.0611 C   0  0  0  0  0  0  0  0  0  0  0  0
   11.7801   23.3428    0.4261 C   0  0  0  0  0  0  0  0  0  0  0  0
   15.0100   26.1230   -4.5727 N   0  0  0  0  0  0  0  0  0  0  0  0
   15.6447   25.6640   -3.3998 C   0  0  0  0  0  0  0  0  0  0  0  0
   16.7606   26.0640   -3.0742 O   0  0  0  0  0  0  0  0  0  0  0  0
   14.0359   25.6965   -4.7431 H   0  0  0  0  0  0  0  0  0  0  0  0
   15.6036   25.1410   -7.1023 C   0  0  0  0  0  0  0  0  0  0  0  0
   15.7765   26.5752   -6.8098 C   0  0  0  0  0  0  0  0  0  0  0  0
   16.2315   27.4242   -7.7986 C   0  0  0  0  0  0  0  0  0  0  0  0
   16.4098   28.7649   -7.5649 C   0  0  0  0  0  0  0  0  0  0  0  0
   16.1219   29.2048   -6.3374 N   0  0  0  0  0  0  0  0  0  0  0  0
   15.6683   28.3883   -5.3337 C   0  0  0  0  0  0  0  0  0  0  0  0
   15.4752   27.0454   -5.5196 C   0  0  0  0  0  0  0  0  0  0  0  0
   12.5672   25.3296   -3.1615 C   0  0  0  0  0  0  0  0  0  0  0  0
   12.6801   26.7459   -2.6375 C   0  0  0  0  0  0  0  0  0  0  0  0
   12.7022   26.9203   -1.2432 N   0  0  0  0  0  0  0  0  0  0  0  0
   12.7503   27.7135   -3.4041 O   0  0  0  0  0  0  0  0  0  0  0  0
   11.9534   26.5441   -0.5926 H   0  0  0  0  0  0  0  0  0  0  0  0
   13.4741   27.4445   -0.7326 H   0  0  0  0  0  0  0  0  0  0  0  0
 24 25  1  0  0  0
 25 26  2  0  0  0
 26 27  1  0  0  0
 27 28  2  0  0  0
 28 29  1  0  0  0
 29 30  2  0  0  0
 30 20  1  0  0  0
 20 21  1  0  0  0
 21 22  2  0  0  0
 21  1  1  0  0  0
  1  2  2  0  0  0
  2  3  1  0  0  0
  3  6  1  0  0  0
  6  7  2  0  0  0
  7  8  1  0  0  0
  8  9  2  0  0  0
  9 10  1  0  0  0
 10 11  2  0  0  0
 11 12  1  0  0  0
  3  4  1  0  0  0
  4 13  1  0  0  0
 13 14  2  0  0  0
 14 15  1  0  0  0
 15 16  2  0  0  0
 16 17  1  0  0  0
 16 18  1  0  0  0
 18 19  2  0  0  0
  4  5  2  0  0  0
  5 31  1  0  0  0
 31 32  1  0  0  0
 32 33  1  0  0  0
 32 34  2  0  0  0
 30 25  1  0  0  0
  5  1  1  0  0  0
 11  6  1  0  0  0
 19 13  1  0  0  0
 20 23  1  0  0  0
 33 35  1  0  0  0
 33 36  1  0  0  0
M  END
> <minimizedAffinity>
5.10974

> <CNNscore>
0.4109802544

> <CNNaffinity>
7.4946966171

> <CNN_VS>
3.0801723003

> <CNNaffinity_variance>
0.4482666850

$$$$
[H]c1nc([H])c(N([H])C(=O)c2nn(-c3c([H])c([H])c([H])c([H])c3Cl)c(-c3c([H])c([H])c(Cl)c([H])c3[H])c2C([H])([H])C(=O)N([H])[H])c(C([H])([H])[H])c1[H]


 36 39  0  0  0  0  0  0  0  0999 V2000
   12.8232   24.5008   -1.8557 C   0  0  0  0  0  0  0  0  0  0  0  0
   12.8961   24.7621   -3.1698 N   0  0  0  0  0  0  0  0  0  0  0  0
   14.1127   25.2061   -3.5092 N   0  0  0  0  0  0  0  0  0  0  0  0
   14.9056   25.2528   -2.3934 C   0  0  0  0  0  0  0  0  0  0  0  0
   14.0940   24.8089   -1.3706 C   0  0  0  0  0  0  0  0  0  0  0  0
   14.3908   25.5720   -4.8443 C   0  0  0  0  0  0  0  0  0  0  0  0
   13.8182   26.6997   -5.3845 C   0  0  0  0  0  0  0  0  0  0  0  0
   14.0592   27.0652   -6.7144 C   0  0  0  0  0  0  0  0  0  0  0  0
   14.8834   26.2943   -7.5163 C   0  0  0  0  0  0  0  0  0  0  0  0
   15.4529   25.1693   -6.9726 C   0  0  0  0  0  0  0  0  0  0  0  0
   15.2161   24.8101   -5.6661 C   0  0  0  0  0  0  0  0  0  0  0  0
   15.9347   23.3801   -4.9603 Cl  0  0  0  0  0  0  0  0  0  0  0  0
   16.2431   25.8219   -2.3434 C   0  0  0  0  0  0  0  0  0  0  0  0
   17.3430   25.2014   -1.8075 C   0  0  0  0  0  0  0  0  0  0  0  0
   18.6378   25.7018   -1.8606 C   0  0  0  0  0  0  0  0  0  0  0  0
   18.8641   26.9017   -2.4854 C   0  0  0  0  0  0  0  0  0  0  0  0
   20.5018   27.5094   -2.5385 Cl  0  0  0  0  0  0  0  0  0  0  0  0
   17.8111   27.5634   -3.0341 C   0  0  0  0  0  0  0  0  0  0  0  0
   16.5140   27.0430   -2.9722 C   0  0  0  0  0  0  0  0  0  0  0  0
   11.5292   22.6175   -0.9325 N   0  0  0  0  0  0  0  0  0  0  0  0
   11.6486   24.0087   -1.1309 C   0  0  0  0  0  0  0  0  0  0  0  0
   10.7993   24.7930   -0.7127 O   0  0  0  0  0  0  0  0  0  0  0  0
   12.3397   22.0415   -1.3462 H   0  0  0  0  0  0  0  0  0  0  0  0
   11.4379   22.8184    1.8365 C   0  0  0  0  0  0  0  0  0  0  0  0
   10.4417   21.9981    1.1243 C   0  0  0  0  0  0  0  0  0  0  0  0
    9.4653   21.3348    1.8400 C   0  0  0  0  0  0  0  0  0  0  0  0
    8.5224   20.5578    1.2145 C   0  0  0  0  0  0  0  0  0  0  0  0
    8.5971   20.4764   -0.1163 N   0  0  0  0  0  0  0  0  0  0  0  0
    9.5536   21.1223   -0.8562 C   0  0  0  0  0  0  0  0  0  0  0  0
   10.5141   21.9079   -0.2768 C   0  0  0  0  0  0  0  0  0  0  0  0
   14.4612   24.5664    0.0596 C   0  0  0  0  0  0  0  0  0  0  0  0
   14.0472   25.8093    0.8192 C   0  0  0  0  0  0  0  0  0  0  0  0
   15.0569   26.5311    1.4785 N   0  0  0  0  0  0  0  0  0  0  0  0
   12.8676   26.1775    0.8597 O   0  0  0  0  0  0  0  0  0  0  0  0
   15.7223   26.0997    2.1832 H   0  0  0  0  0  0  0  0  0  0  0  0
   15.2311   27.5684    1.3204 H   0  0  0  0  0  0  0  0  0  0  0  0
 24 25  1  0  0  0
 25 26  2  0  0  0
 26 27  1  0  0  0
 27 28  2  0  0  0
 28 29  1  0  0  0
 29 30  2  0  0  0
 30 20  1  0  0  0
 20 21  1  0  0  0
 21 22  2  0  0  0
 21  1  1  0  0  0
  1  2  2  0  0  0
  2  3  1  0  0  0
  3  6  1  0  0  0
  6  7  2  0  0  0
  7  8  1  0  0  0
  8  9  2  0  0  0
  9 10  1  0  0  0
 10 11  2  0  0  0
 11 12  1  0  0  0
  3  4  1  0  0  0
  4 13  1  0  0  0
 13 14  2  0  0  0
 14 15  1  0  0  0
 15 16  2  0  0  0
 16 17  1  0  0  0
 16 18  1  0  0  0
 18 19  2  0  0  0
  4  5  2  0  0  0
  5 31  1  0  0  0
 31 32  1  0  0  0
 32 33  1  0  0  0
 32 34  2  0  0  0
 30 25  1  0  0  0
  5  1  1  0  0  0
 11  6  1  0  0  0
 19 13  1  0  0  0
 20 23  1  0  0  0
 33 35  1  0  0  0
 33 36  1  0  0  0
M  END
> <minimizedAffinity>
8.73828

> <CNNscore>
0.3707004786

> <CNNaffinity>
7.3244423866

> <CNN_VS>
2.7151741982

> <CNNaffinity_variance>
0.7995198369

$$$$
[H]c1nc([H])c(N([H])C(=O)c2nn(-c3c([H])c([H])c([H])c([H])c3Cl)c(-c3c([H])c([H])c(Cl)c([H])c3[H])c2C([H])([H])C(=O)N([H])[H])c(C([H])([H])[H])c1[H]


 36 39  0  0  0  0  0  0  0  0999 V2000
   13.2140   22.0859    0.2264 C   0  0  0  0  0  0  0  0  0  0  0  0
   13.4178   21.3810   -0.8970 N   0  0  0  0  0  0  0  0  0  0  0  0
   13.8882   22.1596   -1.8794 N   0  0  0  0  0  0  0  0  0  0  0  0
   14.0132   23.4436   -1.4195 C   0  0  0  0  0  0  0  0  0  0  0  0
   13.5939   23.3859   -0.1069 C   0  0  0  0  0  0  0  0  0  0  0  0
   14.1387   21.6185   -3.1593 C   0  0  0  0  0  0  0  0  0  0  0  0
   13.2942   20.6685   -3.6845 C   0  0  0  0  0  0  0  0  0  0  0  0
   13.5397   20.0995   -4.9400 C   0  0  0  0  0  0  0  0  0  0  0  0
   14.6436   20.4841   -5.6816 C   0  0  0  0  0  0  0  0  0  0  0  0
   15.4839   21.4329   -5.1532 C   0  0  0  0  0  0  0  0  0  0  0  0
   15.2429   21.9918   -3.9198 C   0  0  0  0  0  0  0  0  0  0  0  0
   16.3045   23.2013   -3.2344 Cl  0  0  0  0  0  0  0  0  0  0  0  0
   14.3528   24.5949   -2.2409 C   0  0  0  0  0  0  0  0  0  0  0  0
   15.5742   25.2193   -2.2545 C   0  0  0  0  0  0  0  0  0  0  0  0
   15.9273   26.2475   -3.1192 C   0  0  0  0  0  0  0  0  0  0  0  0
   15.0090   26.6938   -4.0352 C   0  0  0  0  0  0  0  0  0  0  0  0
   15.4778   27.9884   -5.1115 Cl  0  0  0  0  0  0  0  0  0  0  0  0
   13.7803   26.1132   -4.0672 C   0  0  0  0  0  0  0  0  0  0  0  0
   13.4431   25.0774   -3.1893 C   0  0  0  0  0  0  0  0  0  0  0  0
   11.4209   21.9916    1.9144 N   0  0  0  0  0  0  0  0  0  0  0  0
   12.6995   21.5676    1.4968 C   0  0  0  0  0  0  0  0  0  0  0  0
   13.3698   20.7873    2.1699 O   0  0  0  0  0  0  0  0  0  0  0  0
   10.9383   22.6736    1.2349 H   0  0  0  0  0  0  0  0  0  0  0  0
   11.9183   19.4760    2.9824 C   0  0  0  0  0  0  0  0  0  0  0  0
   10.9533   20.3768    3.6380 C   0  0  0  0  0  0  0  0  0  0  0  0
   10.3027   19.9642    4.7834 C   0  0  0  0  0  0  0  0  0  0  0  0
    9.3941   20.7716    5.4210 C   0  0  0  0  0  0  0  0  0  0  0  0
    9.1723   21.9719    4.8794 N   0  0  0  0  0  0  0  0  0  0  0  0
    9.8016   22.4117    3.7435 C   0  0  0  0  0  0  0  0  0  0  0  0
   10.7149   21.6421    3.0734 C   0  0  0  0  0  0  0  0  0  0  0  0
   13.6028   24.4802    0.9134 C   0  0  0  0  0  0  0  0  0  0  0  0
   12.4014   25.3509    0.6104 C   0  0  0  0  0  0  0  0  0  0  0  0
   11.1289   24.7764    0.7709 N   0  0  0  0  0  0  0  0  0  0  0  0
   12.5316   26.5221    0.2362 O   0  0  0  0  0  0  0  0  0  0  0  0
   10.8267   23.8770    0.2963 H   0  0  0  0  0  0  0  0  0  0  0  0
   10.3695   25.2014    1.3824 H   0  0  0  0  0  0  0  0  0  0  0  0
 24 25  1  0  0  0
 25 26  2  0  0  0
 26 27  1  0  0  0
 27 28  2  0  0  0
 28 29  1  0  0  0
 29 30  2  0  0  0
 30 20  1  0  0  0
 20 21  1  0  0  0
 21 22  2  0  0  0
 21  1  1  0  0  0
  1  2  2  0  0  0
  2  3  1  0  0  0
  3  6  1  0  0  0
  6  7  2  0  0  0
  7  8  1  0  0  0
  8  9  2  0  0  0
  9 10  1  0  0  0
 10 11  2  0  0  0
 11 12  1  0  0  0
  3  4  1  0  0  0
  4 13  1  0  0  0
 13 14  2  0  0  0
 14 15  1  0  0  0
 15 16  2  0  0  0
 16 17  1  0  0  0
 16 18  1  0  0  0
 18 19  2  0  0  0
  4  5  2  0  0  0
  5 31  1  0  0  0
 31 32  1  0  0  0
 32 33  1  0  0  0
 32 34  2  0  0  0
 30 25  1  0  0  0
  5  1  1  0  0  0
 11  6  1  0  0  0
 19 13  1  0  0  0
 20 23  1  0  0  0
 33 35  1  0  0  0
 33 36  1  0  0  0
M  END
> <minimizedAffinity>
3.69717

> <CNNscore>
0.2984622419

> <CNNaffinity>
7.2405486107

> <CNN_VS>
2.1610302925

> <CNNaffinity_variance>
0.3710820079

$$$$
[H]OC([H])([H])C([H])([H])n1c(C2([H])C([H])([H])C([H])([H])N(c3nc([H])nc(N([H])[H])c3C#N)C([H])([H])C2([H])[H])nc(-c2c([H])c([H])c(F)c(C([H])([H])[H])c2[H])c1[H]


 34 37  0  0  0  0  0  0  0  0999 V2000
   11.1805   22.4611    1.2810 C   0  0  0  0  0  0  0  0  0  0  0  0
   12.1221   21.4865    1.0482 C   0  0  0  0  0  0  0  0  0  0  0  0
   12.8265   21.8712   -0.0630 N   0  0  0  0  0  0  0  0  0  0  0  0
   12.3434   23.0358   -0.5028 C   0  0  0  0  0  0  0  0  0  0  0  0
   11.3449   23.3746    0.3286 N   0  0  0  0  0  0  0  0  0  0  0  0
    8.6656   24.7178    4.9677 C   0  0  0  0  0  0  0  0  0  0  0  0
    8.9884   23.5201    4.1539 C   0  0  0  0  0  0  0  0  0  0  0  0
    9.9207   23.5618    3.1167 C   0  0  0  0  0  0  0  0  0  0  0  0
   10.2129   22.4523    2.3704 C   0  0  0  0  0  0  0  0  0  0  0  0
    9.5696   21.2674    2.6523 C   0  0  0  0  0  0  0  0  0  0  0  0
    8.6424   21.1958    3.6727 C   0  0  0  0  0  0  0  0  0  0  0  0
    8.3526   22.3266    4.4241 C   0  0  0  0  0  0  0  0  0  0  0  0
    7.4274   22.2090    5.4249 F   0  0  0  0  0  0  0  0  0  0  0  0
   12.7890   23.8093   -1.6594 C   0  0  0  0  0  0  0  0  0  0  0  0
   14.3013   23.8228   -1.7732 C   0  0  0  0  0  0  0  0  0  0  0  0
   14.5765   24.2391   -3.1965 C   0  0  0  0  0  0  0  0  0  0  0  0
   14.0568   25.6113   -3.3973 N   0  0  0  0  0  0  0  0  0  0  0  0
   12.7562   25.9274   -2.9179 C   0  0  0  0  0  0  0  0  0  0  0  0
   12.4057   25.2714   -1.5715 C   0  0  0  0  0  0  0  0  0  0  0  0
   14.9732   26.4810   -4.0398 C   0  0  0  0  0  0  0  0  0  0  0  0
   14.6407   27.0944   -5.2198 N   0  0  0  0  0  0  0  0  0  0  0  0
   15.4946   27.8889   -5.8700 C   0  0  0  0  0  0  0  0  0  0  0  0
   16.7212   28.1288   -5.4039 N   0  0  0  0  0  0  0  0  0  0  0  0
   17.1181   27.5650   -4.2554 C   0  0  0  0  0  0  0  0  0  0  0  0
   18.4220   27.7887   -3.7117 N   0  0  0  0  0  0  0  0  0  0  0  0
   16.2183   26.7263   -3.5665 C   0  0  0  0  0  0  0  0  0  0  0  0
   19.2662   27.3886   -4.2077 H   0  0  0  0  0  0  0  0  0  0  0  0
   18.5928   28.3306   -2.8427 H   0  0  0  0  0  0  0  0  0  0  0  0
   16.6754   26.1772   -2.3126 C   0  0  0  0  0  0  0  0  0  0  0  0
   17.0722   25.7419   -1.3127 N   0  0  0  0  0  0  0  0  0  0  0  0
   13.9000   21.0794   -0.5859 C   0  0  0  0  0  0  0  0  0  0  0  0
   14.7550   20.5915    0.5455 C   0  0  0  0  0  0  0  0  0  0  0  0
   15.3608   21.5698    1.2906 O   0  0  0  0  0  0  0  0  0  0  0  0
   15.2798   21.4206    2.2794 H   0  0  0  0  0  0  0  0  0  0  0  0
  6  7  1  0  0  0
  7  8  2  0  0  0
  8  9  1  0  0  0
  9  1  1  0  0  0
  1  2  2  0  0  0
  2  3  1  0  0  0
  3 31  1  0  0  0
 31 32  1  0  0  0
 32 33  1  0  0  0
  3  4  1  0  0  0
  4 14  1  0  0  0
 14 15  1  0  0  0
 15 16  1  0  0  0
 16 17  1  0  0  0
 17 20  1  0  0  0
 20 21  2  0  0  0
 21 22  1  0  0  0
 22 23  2  0  0  0
 23 24  1  0  0  0
 24 25  1  0  0  0
 24 26  2  0  0  0
 26 29  1  0  0  0
 29 30  3  0  0  0
 17 18  1  0  0  0
 18 19  1  0  0  0
  4  5  2  0  0  0
  9 10  2  0  0  0
 10 11  1  0  0  0
 11 12  2  0  0  0
 12 13  1  0  0  0
 12  7  1  0  0  0
  5  1  1  0  0  0
 19 14  1  0  0  0
 26 20  1  0  0  0
 33 34  1  0  0  0
 25 27  1  0  0  0
 25 28  1  0  0  0
M  END
> <minimizedAffinity>
-8.41326

> <CNNscore>
0.5976631045

> <CNNaffinity>
8.0756330490

> <CNN_VS>
4.8265080452

> <CNNaffinity_variance>
0.4832878709

$$$$
[H]OC([H])([H])C([H])([H])n1c(C2([H])C([H])([H])C([H])([H])N(c3nc([H])nc(N([H])[H])c3C#N)C([H])([H])C2([H])[H])nc(-c2c([H])c([H])c(F)c(C([H])([H])[H])c2[H])c1[H]


 34 37  0  0  0  0  0  0  0  0999 V2000
   11.4122   22.1553    1.8767 C   0  0  0  0  0  0  0  0  0  0  0  0
   10.4076   22.9908    1.4486 C   0  0  0  0  0  0  0  0  0  0  0  0
   10.9838   23.9078    0.6083 N   0  0  0  0  0  0  0  0  0  0  0  0
   12.2916   23.6536    0.5179 C   0  0  0  0  0  0  0  0  0  0  0  0
   12.5287   22.5853    1.2962 N   0  0  0  0  0  0  0  0  0  0  0  0
   13.0569   17.9962    4.1143 C   0  0  0  0  0  0  0  0  0  0  0  0
   12.0124   19.0233    3.8795 C   0  0  0  0  0  0  0  0  0  0  0  0
   12.2087   20.0880    2.9993 C   0  0  0  0  0  0  0  0  0  0  0  0
   11.2401   21.0316    2.7883 C   0  0  0  0  0  0  0  0  0  0  0  0
   10.0436   20.9252    3.4624 C   0  0  0  0  0  0  0  0  0  0  0  0
    9.8207   19.8827    4.3396 C   0  0  0  0  0  0  0  0  0  0  0  0
   10.8093   18.9304    4.5471 C   0  0  0  0  0  0  0  0  0  0  0  0
   10.5445   17.9152    5.4250 F   0  0  0  0  0  0  0  0  0  0  0  0
   13.2919   24.3794   -0.2612 C   0  0  0  0  0  0  0  0  0  0  0  0
   12.6508   25.2195   -1.3490 C   0  0  0  0  0  0  0  0  0  0  0  0
   13.7120   26.2171   -1.7407 C   0  0  0  0  0  0  0  0  0  0  0  0
   14.8674   25.4823   -2.3048 N   0  0  0  0  0  0  0  0  0  0  0  0
   15.3458   24.3308   -1.6216 C   0  0  0  0  0  0  0  0  0  0  0  0
   14.2379   23.4602   -1.0047 C   0  0  0  0  0  0  0  0  0  0  0  0
   15.3495   26.0238   -3.5228 C   0  0  0  0  0  0  0  0  0  0  0  0
   15.6931   27.3481   -3.6084 N   0  0  0  0  0  0  0  0  0  0  0  0
   16.1140   27.8980   -4.7501 C   0  0  0  0  0  0  0  0  0  0  0  0
   16.2232   27.1850   -5.8721 N   0  0  0  0  0  0  0  0  0  0  0  0
   15.9061   25.8834   -5.8664 C   0  0  0  0  0  0  0  0  0  0  0  0
   16.0048   25.0737   -7.0413 N   0  0  0  0  0  0  0  0  0  0  0  0
   15.4620   25.3002   -4.6622 C   0  0  0  0  0  0  0  0  0  0  0  0
   15.3357   25.2401   -7.8434 H   0  0  0  0  0  0  0  0  0  0  0  0
   16.7073   24.3179   -7.1562 H   0  0  0  0  0  0  0  0  0  0  0  0
   15.1743   23.8864   -4.6949 C   0  0  0  0  0  0  0  0  0  0  0  0
   14.9416   22.7509   -4.7523 N   0  0  0  0  0  0  0  0  0  0  0  0
   10.2135   24.9344   -0.0284 C   0  0  0  0  0  0  0  0  0  0  0  0
    9.8353   24.4882   -1.4094 C   0  0  0  0  0  0  0  0  0  0  0  0
    9.9405   23.1414   -1.6429 O   0  0  0  0  0  0  0  0  0  0  0  0
    9.1413   22.7582   -2.1129 H   0  0  0  0  0  0  0  0  0  0  0  0
  6  7  1  0  0  0
  7  8  2  0  0  0
  8  9  1  0  0  0
  9  1  1  0  0  0
  1  2  2  0  0  0
  2  3  1  0  0  0
  3 31  1  0  0  0
 31 32  1  0  0  0
 32 33  1  0  0  0
  3  4  1  0  0  0
  4 14  1  0  0  0
 14 15  1  0  0  0
 15 16  1  0  0  0
 16 17  1  0  0  0
 17 20  1  0  0  0
 20 21  2  0  0  0
 21 22  1  0  0  0
 22 23  2  0  0  0
 23 24  1  0  0  0
 24 25  1  0  0  0
 24 26  2  0  0  0
 26 29  1  0  0  0
 29 30  3  0  0  0
 17 18  1  0  0  0
 18 19  1  0  0  0
  4  5  2  0  0  0
  9 10  2  0  0  0
 10 11  1  0  0  0
 11 12  2  0  0  0
 12 13  1  0  0  0
 12  7  1  0  0  0
  5  1  1  0  0  0
 19 14  1  0  0  0
 26 20  1  0  0  0
 33 34  1  0  0  0
 25 27  1  0  0  0
 25 28  1  0  0  0
M  END
> <minimizedAffinity>
0.64188

> <CNNscore>
0.5148426294

> <CNNaffinity>
7.3752326965

> <CNN_VS>
3.7970840931

> <CNNaffinity_variance>
1.0784075260

$$$$
[H]OC([H])([H])C([H])([H])n1c(C2([H])C([H])([H])C([H])([H])N(c3nc([H])nc(N([H])[H])c3C#N)C([H])([H])C2([H])[H])nc(-c2c([H])c([H])c(F)c(C([H])([H])[H])c2[H])c1[H]


 34 37  0  0  0  0  0  0  0  0999 V2000
   10.6722   23.3565    1.1728 C   0  0  0  0  0  0  0  0  0  0  0  0
   11.7252   22.4753    1.2469 C   0  0  0  0  0  0  0  0  0  0  0  0
   12.5258   22.7200    0.1615 N   0  0  0  0  0  0  0  0  0  0  0  0
   11.9932   23.7112   -0.5574 C   0  0  0  0  0  0  0  0  0  0  0  0
   10.8685   24.0820    0.0757 N   0  0  0  0  0  0  0  0  0  0  0  0
    8.5484   25.2473    5.2866 C   0  0  0  0  0  0  0  0  0  0  0  0
    8.5346   24.3401    4.1128 C   0  0  0  0  0  0  0  0  0  0  0  0
    9.5989   24.2818    3.2124 C   0  0  0  0  0  0  0  0  0  0  0  0
    9.5784   23.4421    2.1318 C   0  0  0  0  0  0  0  0  0  0  0  0
    8.4796   22.6364    1.9308 C   0  0  0  0  0  0  0  0  0  0  0  0
    7.4116   22.6723    2.8049 C   0  0  0  0  0  0  0  0  0  0  0  0
    7.4415   23.5273    3.8981 C   0  0  0  0  0  0  0  0  0  0  0  0
    6.3613   23.5293    4.7375 F   0  0  0  0  0  0  0  0  0  0  0  0
   12.5067   24.2947   -1.7946 C   0  0  0  0  0  0  0  0  0  0  0  0
   14.0177   24.1922   -1.8752 C   0  0  0  0  0  0  0  0  0  0  0  0
   14.3402   24.3987   -3.3340 C   0  0  0  0  0  0  0  0  0  0  0  0
   13.9192   25.7642   -3.7233 N   0  0  0  0  0  0  0  0  0  0  0  0
   12.6372   26.2265   -3.3184 C   0  0  0  0  0  0  0  0  0  0  0  0
   12.2241   25.7779   -1.9062 C   0  0  0  0  0  0  0  0  0  0  0  0
   14.9021   26.4789   -4.4529 C   0  0  0  0  0  0  0  0  0  0  0  0
   14.7199   26.7518   -5.7838 N   0  0  0  0  0  0  0  0  0  0  0  0
   15.6426   27.3891   -6.5087 C   0  0  0  0  0  0  0  0  0  0  0  0
   16.7950   27.7957   -5.9741 N   0  0  0  0  0  0  0  0  0  0  0  0
   17.0447   27.5655   -4.6782 C   0  0  0  0  0  0  0  0  0  0  0  0
   18.2638   27.9799   -4.0555 N   0  0  0  0  0  0  0  0  0  0  0  0
   16.0718   26.8933   -3.9104 C   0  0  0  0  0  0  0  0  0  0  0  0
   19.1699   27.5037   -4.3216 H   0  0  0  0  0  0  0  0  0  0  0  0
   18.3135   28.7346   -3.3442 H   0  0  0  0  0  0  0  0  0  0  0  0
   16.3672   26.7072   -2.5101 C   0  0  0  0  0  0  0  0  0  0  0  0
   16.5913   26.5849   -1.3780 N   0  0  0  0  0  0  0  0  0  0  0  0
   13.7284   21.9766   -0.0703 C   0  0  0  0  0  0  0  0  0  0  0  0
   14.8152   22.4980    0.8220 C   0  0  0  0  0  0  0  0  0  0  0  0
   14.7625   23.8411    1.0917 O   0  0  0  0  0  0  0  0  0  0  0  0
   14.8952   24.0547    2.0630 H   0  0  0  0  0  0  0  0  0  0  0  0
  6  7  1  0  0  0
  7  8  2  0  0  0
  8  9  1  0  0  0
  9  1  1  0  0  0
  1  2  2  0  0  0
  2  3  1  0  0  0
  3 31  1  0  0  0
 31 32  1  0  0  0
 32 33  1  0  0  0
  3  4  1  0  0  0
  4 14  1  0  0  0
 14 15  1  0  0  0
 15 16  1  0  0  0
 16 17  1  0  0  0
 17 20  1  0  0  0
 20 21  2  0  0  0
 21 22  1  0  0  0
 22 23  2  0  0  0
 23 24  1  0  0  0
 24 25  1  0  0  0
 24 26  2  0  0  0
 26 29  1  0  0  0
 29 30  3  0  0  0
 17 18  1  0  0  0
 18 19  1  0  0  0
  4  5  2  0  0  0
  9 10  2  0  0  0
 10 11  1  0  0  0
 11 12  2  0  0  0
 12 13  1  0  0  0
 12  7  1  0  0  0
  5  1  1  0  0  0
 19 14  1  0  0  0
 26 20  1  0  0  0
 33 34  1  0  0  0
 25 27  1  0  0  0
 25 28  1  0  0  0
M  END
> <minimizedAffinity>
-6.16145

> <CNNscore>
0.4028165042

> <CNNaffinity>
7.4989318848

> <CNN_VS>
3.0206935406

> <CNNaffinity_variance>
0.1690789163

$$$$
[H]OC([H])([H])C([H])([H])n1c(C2([H])C([H])([H])C([H])([H])N(c3nc([H])nc(N([H])[H])c3C#N)C([H])([H])C2([H])[H])nc(-c2c([H])c([H])c(F)c(C([H])([H])[H])c2[H])c1[H]


 34 37  0  0  0  0  0  0  0  0999 V2000
   10.6456   23.4992    1.6220 C   0  0  0  0  0  0  0  0  0  0  0  0
   10.9732   22.1702    1.4920 C   0  0  0  0  0  0  0  0  0  0  0  0
   12.0575   22.1077    0.6557 N   0  0  0  0  0  0  0  0  0  0  0  0
   12.3901   23.3455    0.2813 C   0  0  0  0  0  0  0  0  0  0  0  0
   11.5192   24.1738    0.8802 N   0  0  0  0  0  0  0  0  0  0  0  0
    8.4104   27.1562    4.1987 C   0  0  0  0  0  0  0  0  0  0  0  0
    8.4509   25.7691    3.6743 C   0  0  0  0  0  0  0  0  0  0  0  0
    9.5178   25.3010    2.9065 C   0  0  0  0  0  0  0  0  0  0  0  0
    9.5476   24.0197    2.4263 C   0  0  0  0  0  0  0  0  0  0  0  0
    8.4979   23.1741    2.7093 C   0  0  0  0  0  0  0  0  0  0  0  0
    7.4286   23.6091    3.4665 C   0  0  0  0  0  0  0  0  0  0  0  0
    7.4073   24.9105    3.9492 C   0  0  0  0  0  0  0  0  0  0  0  0
    6.3278   25.2980    4.6950 F   0  0  0  0  0  0  0  0  0  0  0  0
   13.4775   23.7495   -0.6069 C   0  0  0  0  0  0  0  0  0  0  0  0
   14.2172   24.9595   -0.0695 C   0  0  0  0  0  0  0  0  0  0  0  0
   15.5301   24.9690   -0.8118 C   0  0  0  0  0  0  0  0  0  0  0  0
   15.2569   25.1615   -2.2546 N   0  0  0  0  0  0  0  0  0  0  0  0
   14.2258   24.3953   -2.8639 C   0  0  0  0  0  0  0  0  0  0  0  0
   12.9899   24.1833   -1.9731 C   0  0  0  0  0  0  0  0  0  0  0  0
   16.0701   26.1500   -2.8632 C   0  0  0  0  0  0  0  0  0  0  0  0
   17.3583   26.3499   -2.4391 N   0  0  0  0  0  0  0  0  0  0  0  0
   18.1378   27.2980   -2.9650 C   0  0  0  0  0  0  0  0  0  0  0  0
   17.7027   28.1039   -3.9348 N   0  0  0  0  0  0  0  0  0  0  0  0
   16.4545   27.9684   -4.4020 C   0  0  0  0  0  0  0  0  0  0  0  0
   15.9383   28.8060   -5.4402 N   0  0  0  0  0  0  0  0  0  0  0  0
   15.6296   26.9678   -3.8490 C   0  0  0  0  0  0  0  0  0  0  0  0
   15.7596   29.8291   -5.2402 H   0  0  0  0  0  0  0  0  0  0  0  0
   15.7243   28.4633   -6.3966 H   0  0  0  0  0  0  0  0  0  0  0  0
   14.3089   26.8316   -4.4146 C   0  0  0  0  0  0  0  0  0  0  0  0
   13.2569   26.7359   -4.8953 N   0  0  0  0  0  0  0  0  0  0  0  0
   12.6684   20.8597    0.3062 C   0  0  0  0  0  0  0  0  0  0  0  0
   13.6387   20.4634    1.3789 C   0  0  0  0  0  0  0  0  0  0  0  0
   14.8513   21.1018    1.3417 O   0  0  0  0  0  0  0  0  0  0  0  0
   15.1508   21.4339    2.2397 H   0  0  0  0  0  0  0  0  0  0  0  0
  6  7  1  0  0  0
  7  8  2  0  0  0
  8  9  1  0  0  0
  9  1  1  0  0  0
  1  2  2  0  0  0
  2  3  1  0  0  0
  3 31  1  0  0  0
 31 32  1  0  0  0
 32 33  1  0  0  0
  3  4  1  0  0  0
  4 14  1  0  0  0
 14 15  1  0  0  0
 15 16  1  0  0  0
 16 17  1  0  0  0
 17 20  1  0  0  0
 20 21  2  0  0  0
 21 22  1  0  0  0
 22 23  2  0  0  0
 23 24  1  0  0  0
 24 25  1  0  0  0
 24 26  2  0  0  0
 26 29  1  0  0  0
 29 30  3  0  0  0
 17 18  1  0  0  0
 18 19  1  0  0  0
  4  5  2  0  0  0
  9 10  2  0  0  0
 10 11  1  0  0  0
 11 12  2  0  0  0
 12 13  1  0  0  0
 12  7  1  0  0  0
  5  1  1  0  0  0
 19 14  1  0  0  0
 26 20  1  0  0  0
 33 34  1  0  0  0
 25 27  1  0  0  0
 25 28  1  0  0  0
M  END
> <minimizedAffinity>
-7.99530

> <CNNscore>
0.3634469807

> <CNNaffinity>
7.4241232872

> <CNN_VS>
2.6982750893

> <CNNaffinity_variance>
0.2225305587

$$$$
[H]OC([H])([H])C([H])([H])n1c(C2([H])C([H])([H])C([H])([H])N(c3nc([H])nc(N([H])[H])c3C#N)C([H])([H])C2([H])[H])nc(-c2c([H])c([H])c(F)c(C([H])([H])[H])c2[H])c1[H]


 34 37  0  0  0  0  0  0  0  0999 V2000
   11.8733   22.0012    1.7985 C   0  0  0  0  0  0  0  0  0  0  0  0
   11.0389   22.9882    1.3292 C   0  0  0  0  0  0  0  0  0  0  0  0
   11.7707   23.7426    0.4492 N   0  0  0  0  0  0  0  0  0  0  0  0
   13.0079   23.2459    0.3745 C   0  0  0  0  0  0  0  0  0  0  0  0
   13.0470   22.1892    1.2020 N   0  0  0  0  0  0  0  0  0  0  0  0
    8.9296   20.2046    5.4201 C   0  0  0  0  0  0  0  0  0  0  0  0
   10.0942   20.0856    4.5088 C   0  0  0  0  0  0  0  0  0  0  0  0
   10.4245   21.0898    3.5981 C   0  0  0  0  0  0  0  0  0  0  0  0
   11.5006   20.9722    2.7606 C   0  0  0  0  0  0  0  0  0  0  0  0
   12.2744   19.8343    2.8203 C   0  0  0  0  0  0  0  0  0  0  0  0
   11.9720   18.8239    3.7113 C   0  0  0  0  0  0  0  0  0  0  0  0
   10.8784   18.9522    4.5567 C   0  0  0  0  0  0  0  0  0  0  0  0
   10.6166   17.9263    5.4230 F   0  0  0  0  0  0  0  0  0  0  0  0
   14.1212   23.7366   -0.4344 C   0  0  0  0  0  0  0  0  0  0  0  0
   14.4704   25.1721   -0.0917 C   0  0  0  0  0  0  0  0  0  0  0  0
   15.8603   25.3721   -0.6422 C   0  0  0  0  0  0  0  0  0  0  0  0
   15.8134   25.2164   -2.1142 N   0  0  0  0  0  0  0  0  0  0  0  0
   15.1004   24.1157   -2.6635 C   0  0  0  0  0  0  0  0  0  0  0  0
   13.8022   23.7705   -1.9142 C   0  0  0  0  0  0  0  0  0  0  0  0
   16.4860   26.2456   -2.8194 C   0  0  0  0  0  0  0  0  0  0  0  0
   17.7840   26.5647   -2.5154 N   0  0  0  0  0  0  0  0  0  0  0  0
   18.4335   27.5538   -3.1341 C   0  0  0  0  0  0  0  0  0  0  0  0
   17.8515   28.2866   -4.0846 N   0  0  0  0  0  0  0  0  0  0  0  0
   16.5841   28.0334   -4.4369 C   0  0  0  0  0  0  0  0  0  0  0  0
   15.9130   28.7888   -5.4493 N   0  0  0  0  0  0  0  0  0  0  0  0
   15.8962   26.9892   -3.7857 C   0  0  0  0  0  0  0  0  0  0  0  0
   15.6663   29.8004   -5.2635 H   0  0  0  0  0  0  0  0  0  0  0  0
   15.6483   28.3960   -6.3732 H   0  0  0  0  0  0  0  0  0  0  0  0
   14.5485   26.7259   -4.2296 C   0  0  0  0  0  0  0  0  0  0  0  0
   13.4684   26.5353   -4.6090 N   0  0  0  0  0  0  0  0  0  0  0  0
   11.2008   24.8641   -0.2366 C   0  0  0  0  0  0  0  0  0  0  0  0
   10.7441   24.4343   -1.5989 C   0  0  0  0  0  0  0  0  0  0  0  0
    9.5401   23.7799   -1.6374 O   0  0  0  0  0  0  0  0  0  0  0  0
    8.9321   24.1132   -2.3625 H   0  0  0  0  0  0  0  0  0  0  0  0
  6  7  1  0  0  0
  7  8  2  0  0  0
  8  9  1  0  0  0
  9  1  1  0  0  0
  1  2  2  0  0  0
  2  3  1  0  0  0
  3 31  1  0  0  0
 31 32  1  0  0  0
 32 33  1  0  0  0
  3  4  1  0  0  0
  4 14  1  0  0  0
 14 15  1  0  0  0
 15 16  1  0  0  0
 16 17  1  0  0  0
 17 20  1  0  0  0
 20 21  2  0  0  0
 21 22  1  0  0  0
 22 23  2  0  0  0
 23 24  1  0  0  0
 24 25  1  0  0  0
 24 26  2  0  0  0
 26 29  1  0  0  0
 29 30  3  0  0  0
 17 18  1  0  0  0
 18 19  1  0  0  0
  4  5  2  0  0  0
  9 10  2  0  0  0
 10 11  1  0  0  0
 11 12  2  0  0  0
 12 13  1  0  0  0
 12  7  1  0  0  0
  5  1  1  0  0  0
 19 14  1  0  0  0
 26 20  1  0  0  0
 33 34  1  0  0  0
 25 27  1  0  0  0
 25 28  1  0  0  0
M  END
> <minimizedAffinity>
-5.36656

> <CNNscore>
0.3517002165

> <CNNaffinity>
7.3769454956

> <CNN_VS>
2.5944733620

> <CNNaffinity_variance>
0.6112678051

$$$$
[H]OC([H])([H])C([H])([H])n1c(C2([H])C([H])([H])C([H])([H])N(c3nc([H])nc(N([H])[H])c3C#N)C([H])([H])C2([H])[H])nc(-c2c([H])c([H])c(F)c(C([H])([H])[H])c2[H])c1[H]


 34 37  0  0  0  0  0  0  0  0999 V2000
   10.7090   21.7789    0.6456 C   0  0  0  0  0  0  0  0  0  0  0  0
   11.7215   20.8497    0.6002 C   0  0  0  0  0  0  0  0  0  0  0  0
   12.6675   21.3340   -0.2656 N   0  0  0  0  0  0  0  0  0  0  0  0
   12.2605   22.5143   -0.7389 C   0  0  0  0  0  0  0  0  0  0  0  0
   11.0692   22.7642   -0.1718 N   0  0  0  0  0  0  0  0  0  0  0  0
    8.3377   21.4410    5.0355 C   0  0  0  0  0  0  0  0  0  0  0  0
    8.3324   21.4999    3.5532 C   0  0  0  0  0  0  0  0  0  0  0  0
    9.5110   21.6101    2.8145 C   0  0  0  0  0  0  0  0  0  0  0  0
    9.4975   21.6640    1.4470 C   0  0  0  0  0  0  0  0  0  0  0  0
    8.2901   21.6079    0.7866 C   0  0  0  0  0  0  0  0  0  0  0  0
    7.1076   21.4988    1.4907 C   0  0  0  0  0  0  0  0  0  0  0  0
    7.1313   21.4449    2.8777 C   0  0  0  0  0  0  0  0  0  0  0  0
    5.9357   21.3368    3.5336 F   0  0  0  0  0  0  0  0  0  0  0  0
   12.9505   23.3826   -1.6900 C   0  0  0  0  0  0  0  0  0  0  0  0
   14.4493   23.3853   -1.4579 C   0  0  0  0  0  0  0  0  0  0  0  0
   15.0361   23.9242   -2.7386 C   0  0  0  0  0  0  0  0  0  0  0  0
   14.5657   25.3160   -2.9261 N   0  0  0  0  0  0  0  0  0  0  0  0
   13.1883   25.6055   -2.7258 C   0  0  0  0  0  0  0  0  0  0  0  0
   12.5471   24.8360   -1.5585 C   0  0  0  0  0  0  0  0  0  0  0  0
   15.5975   26.2272   -3.2636 C   0  0  0  0  0  0  0  0  0  0  0  0
   16.6835   26.3850   -2.4422 N   0  0  0  0  0  0  0  0  0  0  0  0
   17.6536   27.2622   -2.7115 C   0  0  0  0  0  0  0  0  0  0  0  0
   17.6174   28.0343   -3.7986 N   0  0  0  0  0  0  0  0  0  0  0  0
   16.5874   27.9364   -4.6497 C   0  0  0  0  0  0  0  0  0  0  0  0
   16.4994   28.7405   -5.8293 N   0  0  0  0  0  0  0  0  0  0  0  0
   15.5622   27.0106   -4.3680 C   0  0  0  0  0  0  0  0  0  0  0  0
   16.3324   29.7808   -5.7364 H   0  0  0  0  0  0  0  0  0  0  0  0
   16.5912   28.3568   -6.7897 H   0  0  0  0  0  0  0  0  0  0  0  0
   14.4964   26.9102   -5.3359 C   0  0  0  0  0  0  0  0  0  0  0  0
   13.6601   26.8341   -6.1369 N   0  0  0  0  0  0  0  0  0  0  0  0
   13.8729   20.6118   -0.5450 C   0  0  0  0  0  0  0  0  0  0  0  0
   14.6062   20.3530    0.7374 C   0  0  0  0  0  0  0  0  0  0  0  0
   15.1431   21.4596    1.3428 O   0  0  0  0  0  0  0  0  0  0  0  0
   14.9623   21.4973    2.3289 H   0  0  0  0  0  0  0  0  0  0  0  0
  6  7  1  0  0  0
  7  8  2  0  0  0
  8  9  1  0  0  0
  9  1  1  0  0  0
  1  2  2  0  0  0
  2  3  1  0  0  0
  3 31  1  0  0  0
 31 32  1  0  0  0
 32 33  1  0  0  0
  3  4  1  0  0  0
  4 14  1  0  0  0
 14 15  1  0  0  0
 15 16  1  0  0  0
 16 17  1  0  0  0
 17 20  1  0  0  0
 20 21  2  0  0  0
 21 22  1  0  0  0
 22 23  2  0  0  0
 23 24  1  0  0  0
 24 25  1  0  0  0
 24 26  2  0  0  0
 26 29  1  0  0  0
 29 30  3  0  0  0
 17 18  1  0  0  0
 18 19  1  0  0  0
  4  5  2  0  0  0
  9 10  2  0  0  0
 10 11  1  0  0  0
 11 12  2  0  0  0
 12 13  1  0  0  0
 12  7  1  0  0  0
  5  1  1  0  0  0
 19 14  1  0  0  0
 26 20  1  0  0  0
 33 34  1  0  0  0
 25 27  1  0  0  0
 25 28  1  0  0  0
M  END
> <minimizedAffinity>
-7.35479

> <CNNscore>
0.3277978003

> <CNNaffinity>
7.6203551292

> <CNN_VS>
2.4979355335

> <CNNaffinity_variance>
0.3762503564

$$$$
[H]OC([H])([H])C([H])([H])n1c(C2([H])C([H])([H])C([H])([H])N(c3nc([H])nc(N([H])[H])c3C#N)C([H])([H])C2([H])[H])nc(-c2c([H])c([H])c(F)c(C([H])([H])[H])c2[H])c1[H]


 34 37  0  0  0  0  0  0  0  0999 V2000
   10.6963   21.5843    0.7289 C   0  0  0  0  0  0  0  0  0  0  0  0
   11.6893   20.6638    0.9679 C   0  0  0  0  0  0  0  0  0  0  0  0
   12.8239   21.1359    0.3605 N   0  0  0  0  0  0  0  0  0  0  0  0
   12.5481   22.3006   -0.2313 C   0  0  0  0  0  0  0  0  0  0  0  0
   11.2507   22.5529    0.0057 N   0  0  0  0  0  0  0  0  0  0  0  0
    5.7941   21.0085   -0.0754 C   0  0  0  0  0  0  0  0  0  0  0  0
    6.9515   21.2011    0.8325 C   0  0  0  0  0  0  0  0  0  0  0  0
    8.2579   21.2998    0.3524 C   0  0  0  0  0  0  0  0  0  0  0  0
    9.3204   21.4773    1.1967 C   0  0  0  0  0  0  0  0  0  0  0  0
    9.0917   21.5603    2.5524 C   0  0  0  0  0  0  0  0  0  0  0  0
    7.8099   21.4661    3.0566 C   0  0  0  0  0  0  0  0  0  0  0  0
    6.7386   21.2860    2.1924 C   0  0  0  0  0  0  0  0  0  0  0  0
    5.4864   21.1981    2.7364 F   0  0  0  0  0  0  0  0  0  0  0  0
   13.4559   23.1521   -0.9965 C   0  0  0  0  0  0  0  0  0  0  0  0
   12.8429   24.5103   -1.2786 C   0  0  0  0  0  0  0  0  0  0  0  0
   14.0111   25.3912   -1.6449 C   0  0  0  0  0  0  0  0  0  0  0  0
   14.6306   24.8655   -2.8831 N   0  0  0  0  0  0  0  0  0  0  0  0
   14.8737   23.4685   -2.9867 C   0  0  0  0  0  0  0  0  0  0  0  0
   13.7730   22.5910   -2.3665 C   0  0  0  0  0  0  0  0  0  0  0  0
   14.8832   25.8589   -3.8620 C   0  0  0  0  0  0  0  0  0  0  0  0
   14.0282   26.0272   -4.9202 N   0  0  0  0  0  0  0  0  0  0  0  0
   14.2573   26.9274   -5.8794 C   0  0  0  0  0  0  0  0  0  0  0  0
   15.3344   27.7140   -5.8586 N   0  0  0  0  0  0  0  0  0  0  0  0
   16.2157   27.6083   -4.8552 C   0  0  0  0  0  0  0  0  0  0  0  0
   17.3866   28.4267   -4.7849 N   0  0  0  0  0  0  0  0  0  0  0  0
   15.9759   26.6589   -3.8409 C   0  0  0  0  0  0  0  0  0  0  0  0
   18.1620   28.2840   -5.4900 H   0  0  0  0  0  0  0  0  0  0  0  0
   17.5237   29.1665   -4.0695 H   0  0  0  0  0  0  0  0  0  0  0  0
   16.9299   26.6123   -2.7590 C   0  0  0  0  0  0  0  0  0  0  0  0
   17.6740   26.5673   -1.8696 N   0  0  0  0  0  0  0  0  0  0  0  0
   14.0628   20.4185    0.4172 C   0  0  0  0  0  0  0  0  0  0  0  0
   15.1964   21.3927    0.5393 C   0  0  0  0  0  0  0  0  0  0  0  0
   15.9017   21.3320    1.7133 O   0  0  0  0  0  0  0  0  0  0  0  0
   16.8957   21.3441    1.5783 H   0  0  0  0  0  0  0  0  0  0  0  0
  6  7  1  0  0  0
  7  8  2  0  0  0
  8  9  1  0  0  0
  9  1  1  0  0  0
  1  2  2  0  0  0
  2  3  1  0  0  0
  3 31  1  0  0  0
 31 32  1  0  0  0
 32 33  1  0  0  0
  3  4  1  0  0  0
  4 14  1  0  0  0
 14 15  1  0  0  0
 15 16  1  0  0  0
 16 17  1  0  0  0
 17 20  1  0  0  0
 20 21  2  0  0  0
 21 22  1  0  0  0
 22 23  2  0  0  0
 23 24  1  0  0  0
 24 25  1  0  0  0
 24 26  2  0  0  0
 26 29  1  0  0  0
 29 30  3  0  0  0
 17 18  1  0  0  0
 18 19  1  0  0  0
  4  5  2  0  0  0
  9 10  2  0  0  0
 10 11  1  0  0  0
 11 12  2  0  0  0
 12 13  1  0  0  0
 12  7  1  0  0  0
  5  1  1  0  0  0
 19 14  1  0  0  0
 26 20  1  0  0  0
 33 34  1  0  0  0
 25 27  1  0  0  0
 25 28  1  0  0  0
M  END
> <minimizedAffinity>
-6.29248

> <CNNscore>
0.3245519996

> <CNNaffinity>
7.6579232216

> <CNN_VS>
2.4853942394

> <CNNaffinity_variance>
0.4503808022

$$$$
[H]OC([H])([H])C([H])([H])n1c(C2([H])C([H])([H])C([H])([H])N(c3nc([H])nc(N([H])[H])c3C#N)C([H])([H])C2([H])[H])nc(-c2c([H])c([H])c(F)c(C([H])([H])[H])c2[H])c1[H]


 34 37  0  0  0  0  0  0  0  0999 V2000
    9.8834   21.3476   -0.4398 C   0  0  0  0  0  0  0  0  0  0  0  0
   10.7072   21.5595    0.6406 C   0  0  0  0  0  0  0  0  0  0  0  0
   11.6903   22.4211    0.2283 N   0  0  0  0  0  0  0  0  0  0  0  0
   11.4869   22.7318   -1.0543 C   0  0  0  0  0  0  0  0  0  0  0  0
   10.3843   22.0686   -1.4387 N   0  0  0  0  0  0  0  0  0  0  0  0
    5.4369   19.9561    1.3772 C   0  0  0  0  0  0  0  0  0  0  0  0
    6.5576   19.8032    0.4172 C   0  0  0  0  0  0  0  0  0  0  0  0
    7.6741   20.6396    0.4466 C   0  0  0  0  0  0  0  0  0  0  0  0
    8.7038   20.4921   -0.4428 C   0  0  0  0  0  0  0  0  0  0  0  0
    8.6338   19.4932   -1.3885 C   0  0  0  0  0  0  0  0  0  0  0  0
    7.5417   18.6503   -1.4418 C   0  0  0  0  0  0  0  0  0  0  0  0
    6.5020   18.8078   -0.5355 C   0  0  0  0  0  0  0  0  0  0  0  0
    5.4402   17.9499   -0.6257 F   0  0  0  0  0  0  0  0  0  0  0  0
   12.2903   23.6118   -1.8996 C   0  0  0  0  0  0  0  0  0  0  0  0
   13.7707   23.3066   -1.7755 C   0  0  0  0  0  0  0  0  0  0  0  0
   14.3980   23.9422   -2.9909 C   0  0  0  0  0  0  0  0  0  0  0  0
   14.1910   25.4069   -2.9193 N   0  0  0  0  0  0  0  0  0  0  0  0
   12.9015   25.8999   -2.5793 C   0  0  0  0  0  0  0  0  0  0  0  0
   12.1731   25.0698   -1.5087 C   0  0  0  0  0  0  0  0  0  0  0  0
   15.3619   26.1628   -3.1775 C   0  0  0  0  0  0  0  0  0  0  0  0
   16.3889   26.1878   -2.2699 N   0  0  0  0  0  0  0  0  0  0  0  0
   17.4887   26.9196   -2.4651 C   0  0  0  0  0  0  0  0  0  0  0  0
   17.6469   27.6679   -3.5578 N   0  0  0  0  0  0  0  0  0  0  0  0
   16.6859   27.6940   -4.4908 C   0  0  0  0  0  0  0  0  0  0  0  0
   16.8049   28.4791   -5.6804 N   0  0  0  0  0  0  0  0  0  0  0  0
   15.5240   26.9217   -4.2875 C   0  0  0  0  0  0  0  0  0  0  0  0
   16.7750   29.5341   -5.6105 H   0  0  0  0  0  0  0  0  0  0  0  0
   16.9210   28.0677   -6.6265 H   0  0  0  0  0  0  0  0  0  0  0  0
   14.5368   26.9480   -5.3398 C   0  0  0  0  0  0  0  0  0  0  0  0
   13.7548   26.9428   -6.1974 N   0  0  0  0  0  0  0  0  0  0  0  0
   12.7248   22.8635    1.1154 C   0  0  0  0  0  0  0  0  0  0  0  0
   12.8634   21.8862    2.2445 C   0  0  0  0  0  0  0  0  0  0  0  0
   12.9560   20.5691    1.8758 O   0  0  0  0  0  0  0  0  0  0  0  0
   13.6877   20.0757    2.3528 H   0  0  0  0  0  0  0  0  0  0  0  0
  6  7  1  0  0  0
  7  8  2  0  0  0
  8  9  1  0  0  0
  9  1  1  0  0  0
  1  2  2  0  0  0
  2  3  1  0  0  0
  3 31  1  0  0  0
 31 32  1  0  0  0
 32 33  1  0  0  0
  3  4  1  0  0  0
  4 14  1  0  0  0
 14 15  1  0  0  0
 15 16  1  0  0  0
 16 17  1  0  0  0
 17 20  1  0  0  0
 20 21  2  0  0  0
 21 22  1  0  0  0
 22 23  2  0  0  0
 23 24  1  0  0  0
 24 25  1  0  0  0
 24 26  2  0  0  0
 26 29  1  0  0  0
 29 30  3  0  0  0
 17 18  1  0  0  0
 18 19  1  0  0  0
  4  5  2  0  0  0
  9 10  2  0  0  0
 10 11  1  0  0  0
 11 12  2  0  0  0
 12 13  1  0  0  0
 12  7  1  0  0  0
  5  1  1  0  0  0
 19 14  1  0  0  0
 26 20  1  0  0  0
 33 34  1  0  0  0
 25 27  1  0  0  0
 25 28  1  0  0  0
M  END
> <minimizedAffinity>
-5.07106

> <CNNscore>
0.2729943395

> <CNNaffinity>
7.1372237206

> <CNN_VS>
1.9484217167

> <CNNaffinity_variance>
0.3291308880

$$$$
[H]OC([H])([H])C([H])([H])n1c(C2([H])C([H])([H])C([H])([H])N(c3nc([H])nc(N([H])[H])c3C#N)C([H])([H])C2([H])[H])nc(-c2c([H])c([H])c(F)c(C([H])([H])[H])c2[H])c1[H]


 34 37  0  0  0  0  0  0  0  0999 V2000
    8.3232   27.1855    1.4714 C   0  0  0  0  0  0  0  0  0  0  0  0
    9.5126   26.8547    2.0769 C   0  0  0  0  0  0  0  0  0  0  0  0
    9.8647   25.6145    1.6111 N   0  0  0  0  0  0  0  0  0  0  0  0
    8.9337   25.1917    0.7524 C   0  0  0  0  0  0  0  0  0  0  0  0
    8.0077   26.1618    0.6833 N   0  0  0  0  0  0  0  0  0  0  0  0
    6.7836   30.9649    4.3619 C   0  0  0  0  0  0  0  0  0  0  0  0
    6.8340   30.2587    3.0582 C   0  0  0  0  0  0  0  0  0  0  0  0
    7.5471   29.0714    2.8888 C   0  0  0  0  0  0  0  0  0  0  0  0
    7.5887   28.4261    1.6825 C   0  0  0  0  0  0  0  0  0  0  0  0
    6.9094   28.9638    0.6118 C   0  0  0  0  0  0  0  0  0  0  0  0
    6.1953   30.1374    0.7492 C   0  0  0  0  0  0  0  0  0  0  0  0
    6.1590   30.7847    1.9767 C   0  0  0  0  0  0  0  0  0  0  0  0
    5.4389   31.9444    2.0665 F   0  0  0  0  0  0  0  0  0  0  0  0
    8.8993   23.9271    0.0215 C   0  0  0  0  0  0  0  0  0  0  0  0
    7.9637   22.9290    0.6762 C   0  0  0  0  0  0  0  0  0  0  0  0
    7.6891   21.9007   -0.3924 C   0  0  0  0  0  0  0  0  0  0  0  0
    8.9614   21.2267   -0.7391 N   0  0  0  0  0  0  0  0  0  0  0  0
   10.1210   22.0214   -0.9515 C   0  0  0  0  0  0  0  0  0  0  0  0
   10.2408   23.2254   -0.0018 C   0  0  0  0  0  0  0  0  0  0  0  0
    8.8652   19.8133   -0.7850 C   0  0  0  0  0  0  0  0  0  0  0  0
    9.9136   19.0303   -0.3764 N   0  0  0  0  0  0  0  0  0  0  0  0
    9.8698   17.6974   -0.4427 C   0  0  0  0  0  0  0  0  0  0  0  0
    8.7993   17.0545   -0.9116 N   0  0  0  0  0  0  0  0  0  0  0  0
    7.7347   17.7522   -1.3292 C   0  0  0  0  0  0  0  0  0  0  0  0
    6.5620   17.1128   -1.8409 N   0  0  0  0  0  0  0  0  0  0  0  0
    7.7781   19.1597   -1.2598 C   0  0  0  0  0  0  0  0  0  0  0  0
    6.6083   16.6132   -2.7720 H   0  0  0  0  0  0  0  0  0  0  0  0
    5.6506   17.1096   -1.3436 H   0  0  0  0  0  0  0  0  0  0  0  0
    6.5915   19.8656   -1.6799 C   0  0  0  0  0  0  0  0  0  0  0  0
    5.6324   20.4114   -2.0391 N   0  0  0  0  0  0  0  0  0  0  0  0
   11.0681   24.9638    2.0367 C   0  0  0  0  0  0  0  0  0  0  0  0
   10.9133   24.5120    3.4583 C   0  0  0  0  0  0  0  0  0  0  0  0
    9.6757   24.7184    4.0107 O   0  0  0  0  0  0  0  0  0  0  0  0
    9.3269   23.9202    4.5084 H   0  0  0  0  0  0  0  0  0  0  0  0
  6  7  1  0  0  0
  7  8  2  0  0  0
  8  9  1  0  0  0
  9  1  1  0  0  0
  1  2  2  0  0  0
  2  3  1  0  0  0
  3 31  1  0  0  0
 31 32  1  0  0  0
 32 33  1  0  0  0
  3  4  1  0  0  0
  4 14  1  0  0  0
 14 15  1  0  0  0
 15 16  1  0  0  0
 16 17  1  0  0  0
 17 20  1  0  0  0
 20 21  2  0  0  0
 21 22  1  0  0  0
 22 23  2  0  0  0
 23 24  1  0  0  0
 24 25  1  0  0  0
 24 26  2  0  0  0
 26 29  1  0  0  0
 29 30  3  0  0  0
 17 18  1  0  0  0
 18 19  1  0  0  0
  4  5  2  0  0  0
  9 10  2  0  0  0
 10 11  1  0  0  0
 11 12  2  0  0  0
 12 13  1  0  0  0
 12  7  1  0  0  0
  5  1  1  0  0  0
 19 14  1  0  0  0
 26 20  1  0  0  0
 33 34  1  0  0  0
 25 27  1  0  0  0
 25 28  1  0  0  0
M  END
> <minimizedAffinity>
30.42509

> <CNNscore>
0.2538699806

> <CNNaffinity>
5.1615228653

> <CNN_VS>
1.3103556633

> <CNNaffinity_variance>
0.5310140848

$$$$
[H]Cl.[H]O[C@]([H])(C(=O)N([H])[C@]([H])(C(=O)OC([H])([H])n1c([H])c(F)c(=O)n([H])c1=O)C([H])([H])C([H])(C([H])([H])[H])C([H])([H])[H])[C@]([H])(N([H])[H])C([H])([H])c1c([H])c([H])c([H])c([H])c1[H]


 37 38  0  0  0  0  0  0  0  0999 V2000
   12.3120   22.9066    0.5272 C   0  0  0  0  0  0  0  0  0  0  0  0
   10.9891   22.9428    1.1631 N   0  0  0  0  0  0  0  0  0  0  0  0
   10.7423   22.2921    2.4029 C   0  0  0  0  0  0  0  0  0  0  0  0
   11.6922   21.6814    2.9425 O   0  0  0  0  0  0  0  0  0  0  0  0
   10.1891   23.4480    0.7234 H   0  0  0  0  0  0  0  0  0  0  0  0
    9.4133   22.3169    3.0626 C   0  0  0  0  0  0  0  0  0  0  0  0
    8.9177   21.0227    3.1404 O   0  0  0  0  0  0  0  0  0  0  0  0
    9.2618   20.5870    3.9550 H   0  0  0  0  0  0  0  0  0  0  0  0
    9.4923   22.8843    4.4730 C   0  0  0  0  0  0  0  0  0  0  0  0
    9.9135   21.9048    5.4240 N   0  0  0  0  0  0  0  0  0  0  0  0
   10.5763   22.2593    6.1390 H   0  0  0  0  0  0  0  0  0  0  0  0
    9.1876   21.2837    5.7901 H   0  0  0  0  0  0  0  0  0  0  0  0
    8.1272   23.4228    4.8042 C   0  0  0  0  0  0  0  0  0  0  0  0
    7.9369   24.8321    4.4039 C   0  0  0  0  0  0  0  0  0  0  0  0
    8.9640   25.7611    4.4187 C   0  0  0  0  0  0  0  0  0  0  0  0
    8.7821   27.0808    4.0426 C   0  0  0  0  0  0  0  0  0  0  0  0
    7.5491   27.5006    3.6385 C   0  0  0  0  0  0  0  0  0  0  0  0
    6.5013   26.6157    3.6077 C   0  0  0  0  0  0  0  0  0  0  0  0
    6.6933   25.3116    3.9824 C   0  0  0  0  0  0  0  0  0  0  0  0
   12.7890   24.2937    0.3049 C   0  0  0  0  0  0  0  0  0  0  0  0
   11.9219   25.2262    0.4470 O   0  0  0  0  0  0  0  0  0  0  0  0
   14.0348   24.6971   -0.0293 O   0  0  0  0  0  0  0  0  0  0  0  0
   14.8438   24.4239   -1.1049 C   0  0  0  0  0  0  0  0  0  0  0  0
   14.6145   25.1418   -2.3166 N   0  0  0  0  0  0  0  0  0  0  0  0
   13.4936   25.7888   -2.6674 C   0  0  0  0  0  0  0  0  0  0  0  0
   13.3671   26.4507   -3.8953 C   0  0  0  0  0  0  0  0  0  0  0  0
   12.2296   27.0947   -4.2246 F   0  0  0  0  0  0  0  0  0  0  0  0
   14.4124   26.4464   -4.7780 C   0  0  0  0  0  0  0  0  0  0  0  0
   14.4065   27.0038   -5.8978 O   0  0  0  0  0  0  0  0  0  0  0  0
   15.5338   25.7851   -4.3999 N   0  0  0  0  0  0  0  0  0  0  0  0
   15.6222   25.1659   -3.2254 C   0  0  0  0  0  0  0  0  0  0  0  0
   16.7252   24.5717   -2.9670 O   0  0  0  0  0  0  0  0  0  0  0  0
   16.3545   25.7678   -5.0654 H   0  0  0  0  0  0  0  0  0  0  0  0
   12.2968   22.0338   -0.6757 C   0  0  0  0  0  0  0  0  0  0  0  0
   14.3480   21.1293   -1.7877 C   0  0  0  0  0  0  0  0  0  0  0  0
   13.3390   20.9661   -0.6457 C   0  0  0  0  0  0  0  0  0  0  0  0
   14.1009   21.0128    0.6914 C   0  0  0  0  0  0  0  0  0  0  0  0
 35 36  1  0  0  0
 36 37  1  0  0  0
 36 34  1  0  0  0
 34  1  1  0  0  0
  1  2  1  0  0  0
  2  3  1  0  0  0
  3  4  2  0  0  0
  3  6  1  0  0  0
  6  7  1  0  0  0
  6  9  1  0  0  0
  9 10  1  0  0  0
  9 13  1  0  0  0
 13 14  1  0  0  0
 14 15  2  0  0  0
 15 16  1  0  0  0
 16 17  2  0  0  0
 17 18  1  0  0  0
 18 19  2  0  0  0
  1 20  1  0  0  0
 20 21  2  0  0  0
 20 22  1  0  0  0
 22 23  1  0  0  0
 23 24  1  0  0  0
 24 25  1  0  0  0
 25 26  2  0  0  0
 26 27  1  0  0  0
 26 28  1  0  0  0
 28 29  2  0  0  0
 28 30  1  0  0  0
 30 31  1  0  0  0
 31 32  2  0  0  0
 19 14  1  0  0  0
 31 24  1  0  0  0
  2  5  1  0  0  0
  7  8  1  0  0  0
 10 11  1  0  0  0
 10 12  1  0  0  0
 30 33  1  0  0  0
M  END
> <minimizedAffinity>
-8.25349

> <CNNscore>
0.7019986510

> <CNNaffinity>
7.0108985901

> <CNN_VS>
4.9216413498

> <CNNaffinity_variance>
0.2072380334

$$$$
[H]Cl.[H]O[C@]([H])(C(=O)N([H])[C@]([H])(C(=O)OC([H])([H])n1c([H])c(F)c(=O)n([H])c1=O)C([H])([H])C([H])(C([H])([H])[H])C([H])([H])[H])[C@]([H])(N([H])[H])C([H])([H])c1c([H])c([H])c([H])c([H])c1[H]


 37 38  0  0  0  0  0  0  0  0999 V2000
   13.3563   23.4350    0.7119 C   0  0  0  0  0  0  0  0  0  0  0  0
   11.9543   23.7288    0.3895 N   0  0  0  0  0  0  0  0  0  0  0  0
   10.9024   23.4153    1.2931 C   0  0  0  0  0  0  0  0  0  0  0  0
   11.2066   22.8766    2.3810 O   0  0  0  0  0  0  0  0  0  0  0  0
   11.6877   24.1772   -0.5140 H   0  0  0  0  0  0  0  0  0  0  0  0
    9.4795   23.7042    0.9869 C   0  0  0  0  0  0  0  0  0  0  0  0
    9.3176   23.7954   -0.3887 O   0  0  0  0  0  0  0  0  0  0  0  0
    9.1668   22.8959   -0.7627 H   0  0  0  0  0  0  0  0  0  0  0  0
    8.5559   22.6108    1.5055 C   0  0  0  0  0  0  0  0  0  0  0  0
    8.5180   22.5711    2.9331 N   0  0  0  0  0  0  0  0  0  0  0  0
    7.5753   22.4025    3.3320 H   0  0  0  0  0  0  0  0  0  0  0  0
    9.2718   22.0558    3.3946 H   0  0  0  0  0  0  0  0  0  0  0  0
    9.0513   21.3117    0.9309 C   0  0  0  0  0  0  0  0  0  0  0  0
    8.1965   20.7824   -0.1515 C   0  0  0  0  0  0  0  0  0  0  0  0
    8.7033   20.0767   -1.2302 C   0  0  0  0  0  0  0  0  0  0  0  0
    7.8993   19.5818   -2.2424 C   0  0  0  0  0  0  0  0  0  0  0  0
    6.5521   19.7878   -2.1921 C   0  0  0  0  0  0  0  0  0  0  0  0
    6.0049   20.4815   -1.1427 C   0  0  0  0  0  0  0  0  0  0  0  0
    6.8108   20.9668   -0.1463 C   0  0  0  0  0  0  0  0  0  0  0  0
   14.2222   24.5083    0.1647 C   0  0  0  0  0  0  0  0  0  0  0  0
   14.8464   25.2308    1.0190 O   0  0  0  0  0  0  0  0  0  0  0  0
   14.4360   24.8181   -1.1333 O   0  0  0  0  0  0  0  0  0  0  0  0
   13.5940   25.1945   -2.1508 C   0  0  0  0  0  0  0  0  0  0  0  0
   14.1553   25.3930   -3.4477 N   0  0  0  0  0  0  0  0  0  0  0  0
   15.0397   24.6003   -4.0704 C   0  0  0  0  0  0  0  0  0  0  0  0
   15.5426   24.8987   -5.3431 C   0  0  0  0  0  0  0  0  0  0  0  0
   16.4308   24.0852   -5.9485 F   0  0  0  0  0  0  0  0  0  0  0  0
   15.1285   26.0330   -5.9863 C   0  0  0  0  0  0  0  0  0  0  0  0
   15.5124   26.3937   -7.1208 O   0  0  0  0  0  0  0  0  0  0  0  0
   14.2347   26.8174   -5.3354 N   0  0  0  0  0  0  0  0  0  0  0  0
   13.7758   26.5056   -4.1259 C   0  0  0  0  0  0  0  0  0  0  0  0
   12.9352   27.3142   -3.6007 O   0  0  0  0  0  0  0  0  0  0  0  0
   13.9003   27.6992   -5.8124 H   0  0  0  0  0  0  0  0  0  0  0  0
   13.7145   22.0518    0.3029 C   0  0  0  0  0  0  0  0  0  0  0  0
   14.2477   21.4080   -2.0558 C   0  0  0  0  0  0  0  0  0  0  0  0
   13.1463   21.6597   -1.0202 C   0  0  0  0  0  0  0  0  0  0  0  0
   12.3097   20.3756   -0.8730 C   0  0  0  0  0  0  0  0  0  0  0  0
 35 36  1  0  0  0
 36 37  1  0  0  0
 36 34  1  0  0  0
 34  1  1  0  0  0
  1  2  1  0  0  0
  2  3  1  0  0  0
  3  4  2  0  0  0
  3  6  1  0  0  0
  6  7  1  0  0  0
  6  9  1  0  0  0
  9 10  1  0  0  0
  9 13  1  0  0  0
 13 14  1  0  0  0
 14 15  2  0  0  0
 15 16  1  0  0  0
 16 17  2  0  0  0
 17 18  1  0  0  0
 18 19  2  0  0  0
  1 20  1  0  0  0
 20 21  2  0  0  0
 20 22  1  0  0  0
 22 23  1  0  0  0
 23 24  1  0  0  0
 24 25  1  0  0  0
 25 26  2  0  0  0
 26 27  1  0  0  0
 26 28  1  0  0  0
 28 29  2  0  0  0
 28 30  1  0  0  0
 30 31  1  0  0  0
 31 32  2  0  0  0
 19 14  1  0  0  0
 31 24  1  0  0  0
  2  5  1  0  0  0
  7  8  1  0  0  0
 10 11  1  0  0  0
 10 12  1  0  0  0
 30 33  1  0  0  0
M  END
> <minimizedAffinity>
-6.50360

> <CNNscore>
0.5571047664

> <CNNaffinity>
7.1418061256

> <CNN_VS>
3.9787342548

> <CNNaffinity_variance>
0.0536509454

$$$$
[H]Cl.[H]O[C@]([H])(C(=O)N([H])[C@]([H])(C(=O)OC([H])([H])n1c([H])c(F)c(=O)n([H])c1=O)C([H])([H])C([H])(C([H])([H])[H])C([H])([H])[H])[C@]([H])(N([H])[H])C([H])([H])c1c([H])c([H])c([H])c([H])c1[H]


 37 38  0  0  0  0  0  0  0  0999 V2000
   12.7561   23.2764    0.1170 C   0  0  0  0  0  0  0  0  0  0  0  0
   11.5380   23.6000    0.8703 N   0  0  0  0  0  0  0  0  0  0  0  0
   11.1940   22.9045    2.0616 C   0  0  0  0  0  0  0  0  0  0  0  0
   11.9647   21.9999    2.4544 O   0  0  0  0  0  0  0  0  0  0  0  0
   10.8873   24.3514    0.5533 H   0  0  0  0  0  0  0  0  0  0  0  0
    9.9684   23.2161    2.8379 C   0  0  0  0  0  0  0  0  0  0  0  0
    9.4984   24.4683    2.4664 O   0  0  0  0  0  0  0  0  0  0  0  0
    8.9180   24.3803    1.6745 H   0  0  0  0  0  0  0  0  0  0  0  0
    8.8653   22.1976    2.5867 C   0  0  0  0  0  0  0  0  0  0  0  0
    9.3222   20.8554    2.7625 N   0  0  0  0  0  0  0  0  0  0  0  0
    8.6453   20.2317    3.2409 H   0  0  0  0  0  0  0  0  0  0  0  0
    9.8009   20.4291    1.9650 H   0  0  0  0  0  0  0  0  0  0  0  0
    8.3658   22.4309    1.1870 C   0  0  0  0  0  0  0  0  0  0  0  0
    7.7321   21.2415    0.5818 C   0  0  0  0  0  0  0  0  0  0  0  0
    6.5963   20.6479    1.1071 C   0  0  0  0  0  0  0  0  0  0  0  0
    6.0050   19.5337    0.5371 C   0  0  0  0  0  0  0  0  0  0  0  0
    6.5488   18.9851   -0.5869 C   0  0  0  0  0  0  0  0  0  0  0  0
    7.6740   19.5390   -1.1428 C   0  0  0  0  0  0  0  0  0  0  0  0
    8.2507   20.6421   -0.5697 C   0  0  0  0  0  0  0  0  0  0  0  0
   13.5689   24.5056   -0.0553 C   0  0  0  0  0  0  0  0  0  0  0  0
   13.0115   25.6108    0.2754 O   0  0  0  0  0  0  0  0  0  0  0  0
   14.8344   24.6027   -0.5196 O   0  0  0  0  0  0  0  0  0  0  0  0
   15.3993   24.3382   -1.7430 C   0  0  0  0  0  0  0  0  0  0  0  0
   15.3421   25.3550   -2.7426 N   0  0  0  0  0  0  0  0  0  0  0  0
   14.3299   25.5936   -3.5891 C   0  0  0  0  0  0  0  0  0  0  0  0
   14.3841   26.6121   -4.5490 C   0  0  0  0  0  0  0  0  0  0  0  0
   13.3528   26.8325   -5.3886 F   0  0  0  0  0  0  0  0  0  0  0  0
   15.4997   27.3989   -4.6397 C   0  0  0  0  0  0  0  0  0  0  0  0
   15.6529   28.3330   -5.4573 O   0  0  0  0  0  0  0  0  0  0  0  0
   16.5088   27.1371   -3.7730 N   0  0  0  0  0  0  0  0  0  0  0  0
   16.4261   26.1614   -2.8720 C   0  0  0  0  0  0  0  0  0  0  0  0
   17.4347   25.9987   -2.1023 O   0  0  0  0  0  0  0  0  0  0  0  0
   17.3810   27.7316   -3.8243 H   0  0  0  0  0  0  0  0  0  0  0  0
   12.4255   22.5462   -1.1345 C   0  0  0  0  0  0  0  0  0  0  0  0
   14.1205   20.9000   -0.3105 C   0  0  0  0  0  0  0  0  0  0  0  0
   12.8270   21.1092   -1.1053 C   0  0  0  0  0  0  0  0  0  0  0  0
   11.7130   20.2655   -0.4589 C   0  0  0  0  0  0  0  0  0  0  0  0
 35 36  1  0  0  0
 36 37  1  0  0  0
 36 34  1  0  0  0
 34  1  1  0  0  0
  1  2  1  0  0  0
  2  3  1  0  0  0
  3  4  2  0  0  0
  3  6  1  0  0  0
  6  7  1  0  0  0
  6  9  1  0  0  0
  9 10  1  0  0  0
  9 13  1  0  0  0
 13 14  1  0  0  0
 14 15  2  0  0  0
 15 16  1  0  0  0
 16 17  2  0  0  0
 17 18  1  0  0  0
 18 19  2  0  0  0
  1 20  1  0  0  0
 20 21  2  0  0  0
 20 22  1  0  0  0
 22 23  1  0  0  0
 23 24  1  0  0  0
 24 25  1  0  0  0
 25 26  2  0  0  0
 26 27  1  0  0  0
 26 28  1  0  0  0
 28 29  2  0  0  0
 28 30  1  0  0  0
 30 31  1  0  0  0
 31 32  2  0  0  0
 19 14  1  0  0  0
 31 24  1  0  0  0
  2  5  1  0  0  0
  7  8  1  0  0  0
 10 11  1  0  0  0
 10 12  1  0  0  0
 30 33  1  0  0  0
M  END
> <minimizedAffinity>
-7.54361

> <CNNscore>
0.5370851159

> <CNNaffinity>
7.0013365746

> <CNN_VS>
3.7603137493

> <CNNaffinity_variance>
0.1881838441

$$$$
[H]Cl.[H]O[C@]([H])(C(=O)N([H])[C@]([H])(C(=O)OC([H])([H])n1c([H])c(F)c(=O)n([H])c1=O)C([H])([H])C([H])(C([H])([H])[H])C([H])([H])[H])[C@]([H])(N([H])[H])C([H])([H])c1c([H])c([H])c([H])c([H])c1[H]


 37 38  0  0  0  0  0  0  0  0999 V2000
   12.0243   22.2591   -0.1183 C   0  0  0  0  0  0  0  0  0  0  0  0
   10.8527   22.0079    0.7303 N   0  0  0  0  0  0  0  0  0  0  0  0
   10.9723   21.8680    2.1401 C   0  0  0  0  0  0  0  0  0  0  0  0
   12.1143   21.9652    2.6429 O   0  0  0  0  0  0  0  0  0  0  0  0
    9.8956   21.9245    0.3234 H   0  0  0  0  0  0  0  0  0  0  0  0
    9.8013   21.6145    3.0156 C   0  0  0  0  0  0  0  0  0  0  0  0
   10.2257   21.5368    4.3349 O   0  0  0  0  0  0  0  0  0  0  0  0
   10.2609   22.4423    4.7231 H   0  0  0  0  0  0  0  0  0  0  0  0
    8.7658   22.7254    2.9111 C   0  0  0  0  0  0  0  0  0  0  0  0
    8.2487   22.8558    1.5856 N   0  0  0  0  0  0  0  0  0  0  0  0
    7.2281   23.0361    1.5399 H   0  0  0  0  0  0  0  0  0  0  0  0
    8.8067   23.4103    0.9315 H   0  0  0  0  0  0  0  0  0  0  0  0
    9.4365   23.9921    3.3681 C   0  0  0  0  0  0  0  0  0  0  0  0
    8.4911   25.0946    3.6388 C   0  0  0  0  0  0  0  0  0  0  0  0
    8.8468   26.4294    3.5381 C   0  0  0  0  0  0  0  0  0  0  0  0
    7.9583   27.4598    3.7922 C   0  0  0  0  0  0  0  0  0  0  0  0
    6.6771   27.1677    4.1575 C   0  0  0  0  0  0  0  0  0  0  0  0
    6.2793   25.8597    4.2703 C   0  0  0  0  0  0  0  0  0  0  0  0
    7.1679   24.8479    4.0163 C   0  0  0  0  0  0  0  0  0  0  0  0
   11.8225   23.5193   -0.8748 C   0  0  0  0  0  0  0  0  0  0  0  0
   10.6332   23.7530   -1.2899 O   0  0  0  0  0  0  0  0  0  0  0  0
   12.7454   24.4583   -1.1800 O   0  0  0  0  0  0  0  0  0  0  0  0
   12.7220   25.5492   -2.0138 C   0  0  0  0  0  0  0  0  0  0  0  0
   13.5759   25.5385   -3.1571 N   0  0  0  0  0  0  0  0  0  0  0  0
   14.5305   24.6399   -3.4386 C   0  0  0  0  0  0  0  0  0  0  0  0
   15.3280   24.7331   -4.5863 C   0  0  0  0  0  0  0  0  0  0  0  0
   16.2812   23.8164   -4.8474 F   0  0  0  0  0  0  0  0  0  0  0  0
   15.1401   25.7694   -5.4595 C   0  0  0  0  0  0  0  0  0  0  0  0
   15.7940   25.9477   -6.5108 O   0  0  0  0  0  0  0  0  0  0  0  0
   14.1693   26.6643   -5.1519 N   0  0  0  0  0  0  0  0  0  0  0  0
   13.4283   26.5473   -4.0529 C   0  0  0  0  0  0  0  0  0  0  0  0
   12.5394   27.4461   -3.8571 O   0  0  0  0  0  0  0  0  0  0  0  0
   14.0059   27.4736   -5.8115 H   0  0  0  0  0  0  0  0  0  0  0  0
   12.3483   21.0636   -0.9397 C   0  0  0  0  0  0  0  0  0  0  0  0
   14.5811   21.5351   -1.9666 C   0  0  0  0  0  0  0  0  0  0  0  0
   13.7997   20.7164   -0.9332 C   0  0  0  0  0  0  0  0  0  0  0  0
   14.3983   20.9861    0.4595 C   0  0  0  0  0  0  0  0  0  0  0  0
 35 36  1  0  0  0
 36 37  1  0  0  0
 36 34  1  0  0  0
 34  1  1  0  0  0
  1  2  1  0  0  0
  2  3  1  0  0  0
  3  4  2  0  0  0
  3  6  1  0  0  0
  6  7  1  0  0  0
  6  9  1  0  0  0
  9 10  1  0  0  0
  9 13  1  0  0  0
 13 14  1  0  0  0
 14 15  2  0  0  0
 15 16  1  0  0  0
 16 17  2  0  0  0
 17 18  1  0  0  0
 18 19  2  0  0  0
  1 20  1  0  0  0
 20 21  2  0  0  0
 20 22  1  0  0  0
 22 23  1  0  0  0
 23 24  1  0  0  0
 24 25  1  0  0  0
 25 26  2  0  0  0
 26 27  1  0  0  0
 26 28  1  0  0  0
 28 29  2  0  0  0
 28 30  1  0  0  0
 30 31  1  0  0  0
 31 32  2  0  0  0
 19 14  1  0  0  0
 31 24  1  0  0  0
  2  5  1  0  0  0
  7  8  1  0  0  0
 10 11  1  0  0  0
 10 12  1  0  0  0
 30 33  1  0  0  0
M  END
> <minimizedAffinity>
-7.90819

> <CNNscore>
0.5003803372

> <CNNaffinity>
6.7494263649

> <CNN_VS>
3.3772802353

> <CNNaffinity_variance>
0.4455705285

$$$$
[H]Cl.[H]O[C@]([H])(C(=O)N([H])[C@]([H])(C(=O)OC([H])([H])n1c([H])c(F)c(=O)n([H])c1=O)C([H])([H])C([H])(C([H])([H])[H])C([H])([H])[H])[C@]([H])(N([H])[H])C([H])([H])c1c([H])c([H])c([H])c([H])c1[H]


 37 38  0  0  0  0  0  0  0  0999 V2000
   12.7709   22.4232    0.7683 C   0  0  0  0  0  0  0  0  0  0  0  0
   11.4406   22.4271    1.3898 N   0  0  0  0  0  0  0  0  0  0  0  0
   11.2212   21.8709    2.6796 C   0  0  0  0  0  0  0  0  0  0  0  0
   12.2019   21.3728    3.2767 O   0  0  0  0  0  0  0  0  0  0  0  0
   10.6152   22.8388    0.9023 H   0  0  0  0  0  0  0  0  0  0  0  0
    9.8852   21.8652    3.3256 C   0  0  0  0  0  0  0  0  0  0  0  0
    9.9044   20.9949    4.4069 O   0  0  0  0  0  0  0  0  0  0  0  0
   10.2364   21.4689    5.2049 H   0  0  0  0  0  0  0  0  0  0  0  0
    9.4952   23.2471    3.8310 C   0  0  0  0  0  0  0  0  0  0  0  0
    9.0842   23.2234    5.1991 N   0  0  0  0  0  0  0  0  0  0  0  0
    9.4229   24.0262    5.7621 H   0  0  0  0  0  0  0  0  0  0  0  0
    8.1117   22.9606    5.3780 H   0  0  0  0  0  0  0  0  0  0  0  0
    8.3956   23.7461    2.9337 C   0  0  0  0  0  0  0  0  0  0  0  0
    7.6333   22.6635    2.2784 C   0  0  0  0  0  0  0  0  0  0  0  0
    7.7483   22.3764    0.9283 C   0  0  0  0  0  0  0  0  0  0  0  0
    7.0328   21.3610    0.3176 C   0  0  0  0  0  0  0  0  0  0  0  0
    6.1756   20.6028    1.0595 C   0  0  0  0  0  0  0  0  0  0  0  0
    6.0288   20.8506    2.4007 C   0  0  0  0  0  0  0  0  0  0  0  0
    6.7425   21.8586    2.9944 C   0  0  0  0  0  0  0  0  0  0  0  0
   13.1493   23.8117    0.4077 C   0  0  0  0  0  0  0  0  0  0  0  0
   12.3008   24.7281    0.6932 O   0  0  0  0  0  0  0  0  0  0  0  0
   14.2879   24.2313   -0.1873 O   0  0  0  0  0  0  0  0  0  0  0  0
   14.8391   23.9832   -1.4205 C   0  0  0  0  0  0  0  0  0  0  0  0
   14.7843   25.0188   -2.4006 N   0  0  0  0  0  0  0  0  0  0  0  0
   13.6829   25.5256   -2.9735 C   0  0  0  0  0  0  0  0  0  0  0  0
   13.7428   26.5345   -3.9432 C   0  0  0  0  0  0  0  0  0  0  0  0
   12.6207   27.0279   -4.5040 F   0  0  0  0  0  0  0  0  0  0  0  0
   14.9576   27.0305   -4.3305 C   0  0  0  0  0  0  0  0  0  0  0  0
   15.1251   27.9286   -5.1849 O   0  0  0  0  0  0  0  0  0  0  0  0
   16.0554   26.5013   -3.7368 N   0  0  0  0  0  0  0  0  0  0  0  0
   15.9645   25.5430   -2.8181 C   0  0  0  0  0  0  0  0  0  0  0  0
   17.0620   25.1135   -2.3207 O   0  0  0  0  0  0  0  0  0  0  0  0
   17.0051   26.8685   -4.0200 H   0  0  0  0  0  0  0  0  0  0  0  0
   12.8347   21.4336   -0.3387 C   0  0  0  0  0  0  0  0  0  0  0  0
   10.6033   20.3009   -0.3345 C   0  0  0  0  0  0  0  0  0  0  0  0
   11.5400   21.2709   -1.0628 C   0  0  0  0  0  0  0  0  0  0  0  0
   10.8332   22.6331   -1.1881 C   0  0  0  0  0  0  0  0  0  0  0  0
 35 36  1  0  0  0
 36 37  1  0  0  0
 36 34  1  0  0  0
 34  1  1  0  0  0
  1  2  1  0  0  0
  2  3  1  0  0  0
  3  4  2  0  0  0
  3  6  1  0  0  0
  6  7  1  0  0  0
  6  9  1  0  0  0
  9 10  1  0  0  0
  9 13  1  0  0  0
 13 14  1  0  0  0
 14 15  2  0  0  0
 15 16  1  0  0  0
 16 17  2  0  0  0
 17 18  1  0  0  0
 18 19  2  0  0  0
  1 20  1  0  0  0
 20 21  2  0  0  0
 20 22  1  0  0  0
 22 23  1  0  0  0
 23 24  1  0  0  0
 24 25  1  0  0  0
 25 26  2  0  0  0
 26 27  1  0  0  0
 26 28  1  0  0  0
 28 29  2  0  0  0
 28 30  1  0  0  0
 30 31  1  0  0  0
 31 32  2  0  0  0
 19 14  1  0  0  0
 31 24  1  0  0  0
  2  5  1  0  0  0
  7  8  1  0  0  0
 10 11  1  0  0  0
 10 12  1  0  0  0
 30 33  1  0  0  0
M  END
> <minimizedAffinity>
-7.40222

> <CNNscore>
0.4976419806

> <CNNaffinity>
6.7625517845

> <CNN_VS>
3.3653297424

> <CNNaffinity_variance>
0.2604151666

$$$$
[H]Cl.[H]O[C@]([H])(C(=O)N([H])[C@]([H])(C(=O)OC([H])([H])n1c([H])c(F)c(=O)n([H])c1=O)C([H])([H])C([H])(C([H])([H])[H])C([H])([H])[H])[C@]([H])(N([H])[H])C([H])([H])c1c([H])c([H])c([H])c([H])c1[H]


 37 38  0  0  0  0  0  0  0  0999 V2000
    9.0867   23.0050    1.5939 C   0  0  0  0  0  0  0  0  0  0  0  0
    9.8170   24.0037    0.8032 N   0  0  0  0  0  0  0  0  0  0  0  0
   11.2294   24.1370    0.8958 C   0  0  0  0  0  0  0  0  0  0  0  0
   11.8393   23.3729    1.6772 O   0  0  0  0  0  0  0  0  0  0  0  0
    9.3203   24.6467    0.1487 H   0  0  0  0  0  0  0  0  0  0  0  0
   11.9864   25.1390    0.1054 C   0  0  0  0  0  0  0  0  0  0  0  0
   13.3012   25.1724    0.5493 O   0  0  0  0  0  0  0  0  0  0  0  0
   13.8237   24.4787    0.0829 H   0  0  0  0  0  0  0  0  0  0  0  0
   11.9915   24.8021   -1.3791 C   0  0  0  0  0  0  0  0  0  0  0  0
   11.0915   23.7375   -1.6922 N   0  0  0  0  0  0  0  0  0  0  0  0
   10.5616   23.8701   -2.5741 H   0  0  0  0  0  0  0  0  0  0  0  0
   11.4420   22.7873   -1.5471 H   0  0  0  0  0  0  0  0  0  0  0  0
   13.4084   24.4507   -1.7424 C   0  0  0  0  0  0  0  0  0  0  0  0
   13.8753   25.0972   -2.9860 C   0  0  0  0  0  0  0  0  0  0  0  0
   13.3172   26.2649   -3.4794 C   0  0  0  0  0  0  0  0  0  0  0  0
   13.7575   26.8681   -4.6448 C   0  0  0  0  0  0  0  0  0  0  0  0
   14.7808   26.3043   -5.3483 C   0  0  0  0  0  0  0  0  0  0  0  0
   15.3645   25.1474   -4.8981 C   0  0  0  0  0  0  0  0  0  0  0  0
   14.9201   24.5591   -3.7429 C   0  0  0  0  0  0  0  0  0  0  0  0
    8.6378   21.9059    0.7042 C   0  0  0  0  0  0  0  0  0  0  0  0
    7.4222   21.5234    0.8364 O   0  0  0  0  0  0  0  0  0  0  0  0
    9.3584   21.2555   -0.2362 O   0  0  0  0  0  0  0  0  0  0  0  0
   10.2352   20.2005   -0.1717 C   0  0  0  0  0  0  0  0  0  0  0  0
   11.6164   20.4880    0.0427 N   0  0  0  0  0  0  0  0  0  0  0  0
   12.5276   20.7956   -0.8917 C   0  0  0  0  0  0  0  0  0  0  0  0
   13.8687   21.0442   -0.5730 C   0  0  0  0  0  0  0  0  0  0  0  0
   14.7658   21.3521   -1.5309 F   0  0  0  0  0  0  0  0  0  0  0  0
   14.2794   20.9747    0.7301 C   0  0  0  0  0  0  0  0  0  0  0  0
   15.4491   21.1775    1.1242 O   0  0  0  0  0  0  0  0  0  0  0  0
   13.3392   20.6615    1.6553 N   0  0  0  0  0  0  0  0  0  0  0  0
   12.0724   20.4310    1.3197 C   0  0  0  0  0  0  0  0  0  0  0  0
   11.2660   20.1435    2.2702 O   0  0  0  0  0  0  0  0  0  0  0  0
   13.6330   20.6017    2.6687 H   0  0  0  0  0  0  0  0  0  0  0  0
    8.0205   23.6490    2.4046 C   0  0  0  0  0  0  0  0  0  0  0  0
    9.4692   22.8923    4.2996 C   0  0  0  0  0  0  0  0  0  0  0  0
    8.4248   23.9053    3.8181 C   0  0  0  0  0  0  0  0  0  0  0  0
    9.0189   25.3199    3.9465 C   0  0  0  0  0  0  0  0  0  0  0  0
 35 36  1  0  0  0
 36 37  1  0  0  0
 36 34  1  0  0  0
 34  1  1  0  0  0
  1  2  1  0  0  0
  2  3  1  0  0  0
  3  4  2  0  0  0
  3  6  1  0  0  0
  6  7  1  0  0  0
  6  9  1  0  0  0
  9 10  1  0  0  0
  9 13  1  0  0  0
 13 14  1  0  0  0
 14 15  2  0  0  0
 15 16  1  0  0  0
 16 17  2  0  0  0
 17 18  1  0  0  0
 18 19  2  0  0  0
  1 20  1  0  0  0
 20 21  2  0  0  0
 20 22  1  0  0  0
 22 23  1  0  0  0
 23 24  1  0  0  0
 24 25  1  0  0  0
 25 26  2  0  0  0
 26 27  1  0  0  0
 26 28  1  0  0  0
 28 29  2  0  0  0
 28 30  1  0  0  0
 30 31  1  0  0  0
 31 32  2  0  0  0
 19 14  1  0  0  0
 31 24  1  0  0  0
  2  5  1  0  0  0
  7  8  1  0  0  0
 10 11  1  0  0  0
 10 12  1  0  0  0
 30 33  1  0  0  0
M  END
> <minimizedAffinity>
-8.41357

> <CNNscore>
0.4774570465

> <CNNaffinity>
7.3055253029

> <CNN_VS>
3.4880745411

> <CNNaffinity_variance>
0.1062733755

$$$$
[H]Cl.[H]O[C@]([H])(C(=O)N([H])[C@]([H])(C(=O)OC([H])([H])n1c([H])c(F)c(=O)n([H])c1=O)C([H])([H])C([H])(C([H])([H])[H])C([H])([H])[H])[C@]([H])(N([H])[H])C([H])([H])c1c([H])c([H])c([H])c([H])c1[H]


 37 38  0  0  0  0  0  0  0  0999 V2000
   12.8754   23.2633    0.3261 C   0  0  0  0  0  0  0  0  0  0  0  0
   11.6808   23.8222    0.9714 N   0  0  0  0  0  0  0  0  0  0  0  0
   11.0241   23.1440    2.0343 C   0  0  0  0  0  0  0  0  0  0  0  0
   11.4960   22.0469    2.4085 O   0  0  0  0  0  0  0  0  0  0  0  0
   11.2775   24.7355    0.6685 H   0  0  0  0  0  0  0  0  0  0  0  0
    9.8163   23.6915    2.7002 C   0  0  0  0  0  0  0  0  0  0  0  0
   10.0384   25.0222    3.0269 O   0  0  0  0  0  0  0  0  0  0  0  0
    9.8140   25.5925    2.2548 H   0  0  0  0  0  0  0  0  0  0  0  0
    8.5914   23.6185    1.7992 C   0  0  0  0  0  0  0  0  0  0  0  0
    7.5188   24.4289    2.2829 N   0  0  0  0  0  0  0  0  0  0  0  0
    7.0019   24.9411    1.5435 H   0  0  0  0  0  0  0  0  0  0  0  0
    6.9249   24.0146    3.0056 H   0  0  0  0  0  0  0  0  0  0  0  0
    8.1944   22.1697    1.7184 C   0  0  0  0  0  0  0  0  0  0  0  0
    7.6797   21.6280    2.9928 C   0  0  0  0  0  0  0  0  0  0  0  0
    6.4778   20.9461    3.0869 C   0  0  0  0  0  0  0  0  0  0  0  0
    5.9988   20.4395    4.2827 C   0  0  0  0  0  0  0  0  0  0  0  0
    6.7260   20.6093    5.4239 C   0  0  0  0  0  0  0  0  0  0  0  0
    7.9227   21.2784    5.3792 C   0  0  0  0  0  0  0  0  0  0  0  0
    8.3869   21.7756    4.1896 C   0  0  0  0  0  0  0  0  0  0  0  0
   13.8534   24.3505    0.0758 C   0  0  0  0  0  0  0  0  0  0  0  0
   14.4743   24.8080    1.0989 O   0  0  0  0  0  0  0  0  0  0  0  0
   14.1731   24.9200   -1.1074 O   0  0  0  0  0  0  0  0  0  0  0  0
   15.2066   24.7167   -1.9886 C   0  0  0  0  0  0  0  0  0  0  0  0
   15.5276   25.7665   -2.9002 N   0  0  0  0  0  0  0  0  0  0  0  0
   16.6562   26.4901   -2.9274 C   0  0  0  0  0  0  0  0  0  0  0  0
   16.8633   27.5152   -3.8592 C   0  0  0  0  0  0  0  0  0  0  0  0
   18.0073   28.2282   -3.8664 F   0  0  0  0  0  0  0  0  0  0  0  0
   15.8917   27.8009   -4.7790 C   0  0  0  0  0  0  0  0  0  0  0  0
   15.9726   28.6923   -5.6529 O   0  0  0  0  0  0  0  0  0  0  0  0
   14.7604   27.0555   -4.7302 N   0  0  0  0  0  0  0  0  0  0  0  0
   14.5945   26.0880   -3.8319 C   0  0  0  0  0  0  0  0  0  0  0  0
   13.4894   25.4450   -3.8727 O   0  0  0  0  0  0  0  0  0  0  0  0
   13.9955   27.2581   -5.4307 H   0  0  0  0  0  0  0  0  0  0  0  0
   12.5037   22.4500   -0.8610 C   0  0  0  0  0  0  0  0  0  0  0  0
   14.4009   21.3327   -2.0503 C   0  0  0  0  0  0  0  0  0  0  0  0
   13.3007   21.1952   -0.9922 C   0  0  0  0  0  0  0  0  0  0  0  0
   13.9583   20.8470    0.3557 C   0  0  0  0  0  0  0  0  0  0  0  0
 35 36  1  0  0  0
 36 37  1  0  0  0
 36 34  1  0  0  0
 34  1  1  0  0  0
  1  2  1  0  0  0
  2  3  1  0  0  0
  3  4  2  0  0  0
  3  6  1  0  0  0
  6  7  1  0  0  0
  6  9  1  0  0  0
  9 10  1  0  0  0
  9 13  1  0  0  0
 13 14  1  0  0  0
 14 15  2  0  0  0
 15 16  1  0  0  0
 16 17  2  0  0  0
 17 18  1  0  0  0
 18 19  2  0  0  0
  1 20  1  0  0  0
 20 21  2  0  0  0
 20 22  1  0  0  0
 22 23  1  0  0  0
 23 24  1  0  0  0
 24 25  1  0  0  0
 25 26  2  0  0  0
 26 27  1  0  0  0
 26 28  1  0  0  0
 28 29  2  0  0  0
 28 30  1  0  0  0
 30 31  1  0  0  0
 31 32  2  0  0  0
 19 14  1  0  0  0
 31 24  1  0  0  0
  2  5  1  0  0  0
  7  8  1  0  0  0
 10 11  1  0  0  0
 10 12  1  0  0  0
 30 33  1  0  0  0
M  END
> <minimizedAffinity>
-6.94771

> <CNNscore>
0.4408536255

> <CNNaffinity>
6.8230714798

> <CNN_VS>
3.0079758167

> <CNNaffinity_variance>
0.2782455385

$$$$
[H]Cl.[H]O[C@]([H])(C(=O)N([H])[C@]([H])(C(=O)OC([H])([H])n1c([H])c(F)c(=O)n([H])c1=O)C([H])([H])C([H])(C([H])([H])[H])C([H])([H])[H])[C@]([H])(N([H])[H])C([H])([H])c1c([H])c([H])c([H])c([H])c1[H]


 37 38  0  0  0  0  0  0  0  0999 V2000
   13.8669   22.2542   -1.0325 C   0  0  0  0  0  0  0  0  0  0  0  0
   12.4485   22.6295   -1.0891 N   0  0  0  0  0  0  0  0  0  0  0  0
   11.8766   23.5193   -0.1392 C   0  0  0  0  0  0  0  0  0  0  0  0
   12.6218   23.9781    0.7555 O   0  0  0  0  0  0  0  0  0  0  0  0
   11.8168   22.2537   -1.8295 H   0  0  0  0  0  0  0  0  0  0  0  0
   10.4460   23.9117   -0.1789 C   0  0  0  0  0  0  0  0  0  0  0  0
    9.8013   23.1883   -1.1727 O   0  0  0  0  0  0  0  0  0  0  0  0
    9.5050   22.3213   -0.8091 H   0  0  0  0  0  0  0  0  0  0  0  0
    9.7464   23.6346    1.1444 C   0  0  0  0  0  0  0  0  0  0  0  0
   10.1722   24.5273    2.1754 N   0  0  0  0  0  0  0  0  0  0  0  0
    9.4101   24.8599    2.7957 H   0  0  0  0  0  0  0  0  0  0  0  0
   11.0379   24.2814    2.6621 H   0  0  0  0  0  0  0  0  0  0  0  0
   10.0375   22.2023    1.5008 C   0  0  0  0  0  0  0  0  0  0  0  0
    9.3789   21.7598    2.7469 C   0  0  0  0  0  0  0  0  0  0  0  0
    8.0199   21.5043    2.8270 C   0  0  0  0  0  0  0  0  0  0  0  0
    7.4062   21.0894    3.9962 C   0  0  0  0  0  0  0  0  0  0  0  0
    8.1538   20.9201    5.1243 C   0  0  0  0  0  0  0  0  0  0  0  0
    9.5039   21.1614    5.0927 C   0  0  0  0  0  0  0  0  0  0  0  0
   10.1005   21.5718    3.9293 C   0  0  0  0  0  0  0  0  0  0  0  0
   14.5716   22.8157   -2.2112 C   0  0  0  0  0  0  0  0  0  0  0  0
   14.7803   22.0137   -3.1883 O   0  0  0  0  0  0  0  0  0  0  0  0
   15.0217   24.0784   -2.3824 O   0  0  0  0  0  0  0  0  0  0  0  0
   16.1361   24.5933   -2.9981 C   0  0  0  0  0  0  0  0  0  0  0  0
   15.9645   25.7060   -3.8749 N   0  0  0  0  0  0  0  0  0  0  0  0
   15.2254   25.7413   -4.9932 C   0  0  0  0  0  0  0  0  0  0  0  0
   15.1391   26.8866   -5.7949 C   0  0  0  0  0  0  0  0  0  0  0  0
   14.3886   26.8970   -6.9146 F   0  0  0  0  0  0  0  0  0  0  0  0
   15.8259   28.0153   -5.4398 C   0  0  0  0  0  0  0  0  0  0  0  0
   15.8193   29.0892   -6.0812 O   0  0  0  0  0  0  0  0  0  0  0  0
   16.5658   27.9536   -4.3056 N   0  0  0  0  0  0  0  0  0  0  0  0
   16.6267   26.8495   -3.5654 C   0  0  0  0  0  0  0  0  0  0  0  0
   17.3543   26.8980   -2.5143 O   0  0  0  0  0  0  0  0  0  0  0  0
   17.1053   28.8133   -4.0112 H   0  0  0  0  0  0  0  0  0  0  0  0
   14.0187   20.7893   -0.8330 C   0  0  0  0  0  0  0  0  0  0  0  0
   15.5724   21.3836    1.0365 C   0  0  0  0  0  0  0  0  0  0  0  0
   14.4878   20.4235    0.5357 C   0  0  0  0  0  0  0  0  0  0  0  0
   13.3071   20.4604    1.5231 C   0  0  0  0  0  0  0  0  0  0  0  0
 35 36  1  0  0  0
 36 37  1  0  0  0
 36 34  1  0  0  0
 34  1  1  0  0  0
  1  2  1  0  0  0
  2  3  1  0  0  0
  3  4  2  0  0  0
  3  6  1  0  0  0
  6  7  1  0  0  0
  6  9  1  0  0  0
  9 10  1  0  0  0
  9 13  1  0  0  0
 13 14  1  0  0  0
 14 15  2  0  0  0
 15 16  1  0  0  0
 16 17  2  0  0  0
 17 18  1  0  0  0
 18 19  2  0  0  0
  1 20  1  0  0  0
 20 21  2  0  0  0
 20 22  1  0  0  0
 22 23  1  0  0  0
 23 24  1  0  0  0
 24 25  1  0  0  0
 25 26  2  0  0  0
 26 27  1  0  0  0
 26 28  1  0  0  0
 28 29  2  0  0  0
 28 30  1  0  0  0
 30 31  1  0  0  0
 31 32  2  0  0  0
 19 14  1  0  0  0
 31 24  1  0  0  0
  2  5  1  0  0  0
  7  8  1  0  0  0
 10 11  1  0  0  0
 10 12  1  0  0  0
 30 33  1  0  0  0
M  END
> <minimizedAffinity>
-7.66498

> <CNNscore>
0.4174011052

> <CNNaffinity>
6.9361448288

> <CNN_VS>
2.8951544762

> <CNNaffinity_variance>
0.2345345318

$$$$
[H]Cl.[H]O[C@]([H])(C(=O)N([H])[C@]([H])(C(=O)OC([H])([H])n1c([H])c(F)c(=O)n([H])c1=O)C([H])([H])C([H])(C([H])([H])[H])C([H])([H])[H])[C@]([H])(N([H])[H])C([H])([H])c1c([H])c([H])c([H])c([H])c1[H]


 37 38  0  0  0  0  0  0  0  0999 V2000
   13.1801   24.6421   -2.4065 C   0  0  0  0  0  0  0  0  0  0  0  0
   12.1802   24.8765   -1.3571 N   0  0  0  0  0  0  0  0  0  0  0  0
   11.0878   23.9884   -1.1596 C   0  0  0  0  0  0  0  0  0  0  0  0
   11.0003   22.9919   -1.9118 O   0  0  0  0  0  0  0  0  0  0  0  0
   12.2417   25.7034   -0.7239 H   0  0  0  0  0  0  0  0  0  0  0  0
   10.0670   24.2066   -0.1049 C   0  0  0  0  0  0  0  0  0  0  0  0
    9.1794   23.1394   -0.1002 O   0  0  0  0  0  0  0  0  0  0  0  0
    9.5390   22.4149    0.4632 H   0  0  0  0  0  0  0  0  0  0  0  0
   10.6955   24.3118    1.2776 C   0  0  0  0  0  0  0  0  0  0  0  0
   12.0047   23.7412    1.3182 N   0  0  0  0  0  0  0  0  0  0  0  0
   12.6904   24.2820    1.8780 H   0  0  0  0  0  0  0  0  0  0  0  0
   12.0560   22.7277    1.4490 H   0  0  0  0  0  0  0  0  0  0  0  0
    9.7632   23.6208    2.2349 C   0  0  0  0  0  0  0  0  0  0  0  0
    9.2371   24.5105    3.2905 C   0  0  0  0  0  0  0  0  0  0  0  0
    9.3187   25.8912    3.2170 C   0  0  0  0  0  0  0  0  0  0  0  0
    8.8244   26.7217    4.2078 C   0  0  0  0  0  0  0  0  0  0  0  0
    8.2298   26.1763    5.3073 C   0  0  0  0  0  0  0  0  0  0  0  0
    8.1263   24.8133    5.4237 C   0  0  0  0  0  0  0  0  0  0  0  0
    8.6195   24.0010    4.4364 C   0  0  0  0  0  0  0  0  0  0  0  0
   14.1938   23.6776   -1.9132 C   0  0  0  0  0  0  0  0  0  0  0  0
   15.0458   24.1259   -1.0678 O   0  0  0  0  0  0  0  0  0  0  0  0
   14.3285   22.3750   -2.2472 O   0  0  0  0  0  0  0  0  0  0  0  0
   14.4971   21.2355   -1.4995 C   0  0  0  0  0  0  0  0  0  0  0  0
   13.5069   20.9224   -0.5208 N   0  0  0  0  0  0  0  0  0  0  0  0
   12.2415   20.5430   -0.7508 C   0  0  0  0  0  0  0  0  0  0  0  0
   11.3420   20.2752    0.2888 C   0  0  0  0  0  0  0  0  0  0  0  0
   10.0747   19.8947    0.0315 F   0  0  0  0  0  0  0  0  0  0  0  0
   11.7517   20.4003    1.5881 C   0  0  0  0  0  0  0  0  0  0  0  0
   11.0331   20.1866    2.5894 O   0  0  0  0  0  0  0  0  0  0  0  0
   13.0351   20.7855    1.7938 N   0  0  0  0  0  0  0  0  0  0  0  0
   13.8652   21.0324    0.7836 C   0  0  0  0  0  0  0  0  0  0  0  0
   15.0553   21.3898    1.0878 O   0  0  0  0  0  0  0  0  0  0  0  0
   13.3744   20.8892    2.7893 H   0  0  0  0  0  0  0  0  0  0  0  0
   13.7170   25.9283   -2.9223 C   0  0  0  0  0  0  0  0  0  0  0  0
   14.4275   26.3942   -5.2760 C   0  0  0  0  0  0  0  0  0  0  0  0
   14.8002   25.7547   -3.9340 C   0  0  0  0  0  0  0  0  0  0  0  0
   16.1014   26.4030   -3.4271 C   0  0  0  0  0  0  0  0  0  0  0  0
 35 36  1  0  0  0
 36 37  1  0  0  0
 36 34  1  0  0  0
 34  1  1  0  0  0
  1  2  1  0  0  0
  2  3  1  0  0  0
  3  4  2  0  0  0
  3  6  1  0  0  0
  6  7  1  0  0  0
  6  9  1  0  0  0
  9 10  1  0  0  0
  9 13  1  0  0  0
 13 14  1  0  0  0
 14 15  2  0  0  0
 15 16  1  0  0  0
 16 17  2  0  0  0
 17 18  1  0  0  0
 18 19  2  0  0  0
  1 20  1  0  0  0
 20 21  2  0  0  0
 20 22  1  0  0  0
 22 23  1  0  0  0
 23 24  1  0  0  0
 24 25  1  0  0  0
 25 26  2  0  0  0
 26 27  1  0  0  0
 26 28  1  0  0  0
 28 29  2  0  0  0
 28 30  1  0  0  0
 30 31  1  0  0  0
 31 32  2  0  0  0
 19 14  1  0  0  0
 31 24  1  0  0  0
  2  5  1  0  0  0
  7  8  1  0  0  0
 10 11  1  0  0  0
 10 12  1  0  0  0
 30 33  1  0  0  0
M  END
> <minimizedAffinity>
-7.99491

> <CNNscore>
0.4049394429

> <CNNaffinity>
6.8241372108

> <CNN_VS>
2.7633624077

> <CNNaffinity_variance>
0.1198978424

$$$$
