[H]c1nc(C([H])([H])N2C([H])([H])C([H])([H])C3(C(=O)N(c4c([H])c([H])c(-c5c([H])c([H])c([H])c([H])c5[H])c([H])c4[H])C(=O)N3c3nc([H])n([H])c(=O)c3[H])C([H])([H])C2([H])[H])c(C([H])([H])[H])c([H])c1[H]


 40 45  0  0  0  0  0  0  0  0999 V2000
   14.8285   24.9440   -3.4457 N   0  0  0  0  0  0  0  0  0  0  0  0
   13.9496   25.6890   -2.6426 C   0  0  0  0  0  0  0  0  0  0  0  0
   12.7464   24.9641   -2.1701 C   0  0  0  0  0  0  0  0  0  0  0  0
   13.0759   23.5252   -1.7644 C   0  0  0  0  0  0  0  0  0  0  0  0
   13.8477   22.8381   -2.8066 C   0  0  0  0  0  0  0  0  0  0  0  0
   15.1173   23.6479   -3.1208 C   0  0  0  0  0  0  0  0  0  0  0  0
   13.5822   23.4466   -0.4595 N   0  0  0  0  0  0  0  0  0  0  0  0
   12.8930   22.3166    0.1883 C   0  0  0  0  0  0  0  0  0  0  0  0
   13.2715   21.7052    1.2005 O   0  0  0  0  0  0  0  0  0  0  0  0
   11.6749   22.0601   -0.5566 N   0  0  0  0  0  0  0  0  0  0  0  0
   11.6651   22.9028   -1.6227 C   0  0  0  0  0  0  0  0  0  0  0  0
   10.7249   23.1677   -2.4346 O   0  0  0  0  0  0  0  0  0  0  0  0
   14.4337   24.1920    0.4400 C   0  0  0  0  0  0  0  0  0  0  0  0
   14.0517   25.3445    1.0018 C   0  0  0  0  0  0  0  0  0  0  0  0
   14.9689   26.1909    1.5836 C   0  0  0  0  0  0  0  0  0  0  0  0
   14.6974   27.2795    2.1398 O   0  0  0  0  0  0  0  0  0  0  0  0
   16.2680   25.7955    1.5634 N   0  0  0  0  0  0  0  0  0  0  0  0
   16.6166   24.6463    1.0243 C   0  0  0  0  0  0  0  0  0  0  0  0
   15.7298   23.8430    0.4632 N   0  0  0  0  0  0  0  0  0  0  0  0
   16.9924   26.4397    2.0039 H   0  0  0  0  0  0  0  0  0  0  0  0
   10.5963   21.3883    0.2104 C   0  0  0  0  0  0  0  0  0  0  0  0
    9.4758   22.0453    0.5280 C   0  0  0  0  0  0  0  0  0  0  0  0
    8.2554   21.2703    0.5568 C   0  0  0  0  0  0  0  0  0  0  0  0
    8.2789   19.9846    0.2867 C   0  0  0  0  0  0  0  0  0  0  0  0
    9.4771   19.2817   -0.0002 C   0  0  0  0  0  0  0  0  0  0  0  0
   10.6506   20.0413   -0.0318 C   0  0  0  0  0  0  0  0  0  0  0  0
    7.0297   19.3084   -0.1298 C   0  0  0  0  0  0  0  0  0  0  0  0
    6.1984   18.5972    0.7429 C   0  0  0  0  0  0  0  0  0  0  0  0
    5.1653   17.8743    0.2481 C   0  0  0  0  0  0  0  0  0  0  0  0
    4.8731   17.7740   -1.0873 C   0  0  0  0  0  0  0  0  0  0  0  0
    5.7140   18.4870   -1.9883 C   0  0  0  0  0  0  0  0  0  0  0  0
    6.7294   19.2093   -1.4638 C   0  0  0  0  0  0  0  0  0  0  0  0
   15.7076   25.7428   -4.1448 C   0  0  0  0  0  0  0  0  0  0  0  0
   16.0223   28.2741   -4.9695 C   0  0  0  0  0  0  0  0  0  0  0  0
   16.0306   27.2158   -6.0382 C   0  0  0  0  0  0  0  0  0  0  0  0
   16.2783   27.4763   -7.3504 C   0  0  0  0  0  0  0  0  0  0  0  0
   16.0724   26.4624   -8.2436 C   0  0  0  0  0  0  0  0  0  0  0  0
   15.6393   25.2481   -7.8155 C   0  0  0  0  0  0  0  0  0  0  0  0
   15.4064   25.0195   -6.4902 N   0  0  0  0  0  0  0  0  0  0  0  0
   15.5921   25.9706   -5.5809 C   0  0  0  0  0  0  0  0  0  0  0  0
 34 35  1  0  0  0
 35 36  2  0  0  0
 36 37  1  0  0  0
 37 38  2  0  0  0
 38 39  1  0  0  0
 39 40  2  0  0  0
 40 33  1  0  0  0
 33  1  1  0  0  0
  1  2  1  0  0  0
  2  3  1  0  0  0
  3  4  1  0  0  0
  4  5  1  0  0  0
  5  6  1  0  0  0
  4  7  1  0  0  0
  7  8  1  0  0  0
  8  9  2  0  0  0
  8 10  1  0  0  0
 10 11  1  0  0  0
 11 12  2  0  0  0
 10 21  1  0  0  0
 21 22  2  0  0  0
 22 23  1  0  0  0
 23 24  2  0  0  0
 24 25  1  0  0  0
 25 26  2  0  0  0
 24 27  1  0  0  0
 27 28  2  0  0  0
 28 29  1  0  0  0
 29 30  2  0  0  0
 30 31  1  0  0  0
 31 32  2  0  0  0
  7 13  1  0  0  0
 13 14  2  0  0  0
 14 15  1  0  0  0
 15 16  2  0  0  0
 15 17  1  0  0  0
 17 18  1  0  0  0
 18 19  2  0  0  0
 40 35  1  0  0  0
  6  1  1  0  0  0
 26 21  1  0  0  0
 32 27  1  0  0  0
 19 13  1  0  0  0
 11  4  1  0  0  0
 17 20  1  0  0  0
M  END
> <minimizedAffinity>
0.53059

> <CNNscore>
0.4975308478

> <CNNaffinity>
7.8869924545

> <CNN_VS>
3.9240219593

> <CNNaffinity_variance>
0.5234972835

$$$$
[H]c1nc(C([H])([H])N2C([H])([H])C([H])([H])C3(C(=O)N(c4c([H])c([H])c(-c5c([H])c([H])c([H])c([H])c5[H])c([H])c4[H])C(=O)N3c3nc([H])n([H])c(=O)c3[H])C([H])([H])C2([H])[H])c(C([H])([H])[H])c([H])c1[H]


 40 45  0  0  0  0  0  0  0  0999 V2000
    9.7645   22.5734   -0.8618 N   0  0  0  0  0  0  0  0  0  0  0  0
   10.2680   23.7219   -0.2294 C   0  0  0  0  0  0  0  0  0  0  0  0
   11.6272   23.5899    0.3463 C   0  0  0  0  0  0  0  0  0  0  0  0
   12.5539   22.7860   -0.5695 C   0  0  0  0  0  0  0  0  0  0  0  0
   11.9303   21.5255   -0.9896 C   0  0  0  0  0  0  0  0  0  0  0  0
   10.5793   21.8224   -1.6624 C   0  0  0  0  0  0  0  0  0  0  0  0
   13.1085   23.5764   -1.5859 N   0  0  0  0  0  0  0  0  0  0  0  0
   14.5397   23.2312   -1.6491 C   0  0  0  0  0  0  0  0  0  0  0  0
   15.3068   23.4413   -2.6025 O   0  0  0  0  0  0  0  0  0  0  0  0
   14.9004   22.6211   -0.3834 N   0  0  0  0  0  0  0  0  0  0  0  0
   13.7655   22.5196    0.3572 C   0  0  0  0  0  0  0  0  0  0  0  0
   13.6256   22.2282    1.5856 O   0  0  0  0  0  0  0  0  0  0  0  0
   12.7436   24.6745   -2.4525 C   0  0  0  0  0  0  0  0  0  0  0  0
   13.4809   25.0310   -3.5103 C   0  0  0  0  0  0  0  0  0  0  0  0
   13.3040   26.2519   -4.1219 C   0  0  0  0  0  0  0  0  0  0  0  0
   13.9406   26.6599   -5.1201 O   0  0  0  0  0  0  0  0  0  0  0  0
   12.3468   27.0647   -3.6046 N   0  0  0  0  0  0  0  0  0  0  0  0
   11.6186   26.6824   -2.5767 C   0  0  0  0  0  0  0  0  0  0  0  0
   11.7994   25.5108   -1.9926 N   0  0  0  0  0  0  0  0  0  0  0  0
   12.1993   28.0152   -4.0612 H   0  0  0  0  0  0  0  0  0  0  0  0
   16.3369   22.7188   -0.0229 C   0  0  0  0  0  0  0  0  0  0  0  0
   17.0668   23.7693   -0.4122 C   0  0  0  0  0  0  0  0  0  0  0  0
   18.1035   24.2106    0.4941 C   0  0  0  0  0  0  0  0  0  0  0  0
   18.2996   23.5857    1.6332 C   0  0  0  0  0  0  0  0  0  0  0  0
   17.5564   22.4408    2.0192 C   0  0  0  0  0  0  0  0  0  0  0  0
   16.5523   22.0261    1.1390 C   0  0  0  0  0  0  0  0  0  0  0  0
   19.0088   24.2828    2.7297 C   0  0  0  0  0  0  0  0  0  0  0  0
   19.4644   25.6036    2.6496 C   0  0  0  0  0  0  0  0  0  0  0  0
   20.2452   26.1067    3.6353 C   0  0  0  0  0  0  0  0  0  0  0  0
   20.6459   25.3908    4.7333 C   0  0  0  0  0  0  0  0  0  0  0  0
   20.1956   24.0432    4.8259 C   0  0  0  0  0  0  0  0  0  0  0  0
   19.4077   23.5732    3.8329 C   0  0  0  0  0  0  0  0  0  0  0  0
    8.3993   22.6282   -1.0428 C   0  0  0  0  0  0  0  0  0  0  0  0
    7.2500   20.3384   -1.8320 C   0  0  0  0  0  0  0  0  0  0  0  0
    7.0785   20.7095   -0.3845 C   0  0  0  0  0  0  0  0  0  0  0  0
    6.4652   19.9082    0.5281 C   0  0  0  0  0  0  0  0  0  0  0  0
    6.2091   20.4392    1.7612 C   0  0  0  0  0  0  0  0  0  0  0  0
    6.5641   21.7195    2.0443 C   0  0  0  0  0  0  0  0  0  0  0  0
    7.1838   22.4937    1.1065 N   0  0  0  0  0  0  0  0  0  0  0  0
    7.4567   22.0255   -0.1068 C   0  0  0  0  0  0  0  0  0  0  0  0
 34 35  1  0  0  0
 35 36  2  0  0  0
 36 37  1  0  0  0
 37 38  2  0  0  0
 38 39  1  0  0  0
 39 40  2  0  0  0
 40 33  1  0  0  0
 33  1  1  0  0  0
  1  2  1  0  0  0
  2  3  1  0  0  0
  3  4  1  0  0  0
  4  5  1  0  0  0
  5  6  1  0  0  0
  4  7  1  0  0  0
  7  8  1  0  0  0
  8  9  2  0  0  0
  8 10  1  0  0  0
 10 11  1  0  0  0
 11 12  2  0  0  0
 10 21  1  0  0  0
 21 22  2  0  0  0
 22 23  1  0  0  0
 23 24  2  0  0  0
 24 25  1  0  0  0
 25 26  2  0  0  0
 24 27  1  0  0  0
 27 28  2  0  0  0
 28 29  1  0  0  0
 29 30  2  0  0  0
 30 31  1  0  0  0
 31 32  2  0  0  0
  7 13  1  0  0  0
 13 14  2  0  0  0
 14 15  1  0  0  0
 15 16  2  0  0  0
 15 17  1  0  0  0
 17 18  1  0  0  0
 18 19  2  0  0  0
 40 35  1  0  0  0
  6  1  1  0  0  0
 26 21  1  0  0  0
 32 27  1  0  0  0
 19 13  1  0  0  0
 11  4  1  0  0  0
 17 20  1  0  0  0
M  END
> <minimizedAffinity>
34.83061

> <CNNscore>
0.4081713855

> <CNNaffinity>
7.4261612892

> <CNN_VS>
3.0311465263

> <CNNaffinity_variance>
0.8182059526

$$$$
[H]c1nc(C([H])([H])N2C([H])([H])C([H])([H])C3(C(=O)N(c4c([H])c([H])c(-c5c([H])c([H])c([H])c([H])c5[H])c([H])c4[H])C(=O)N3c3nc([H])n([H])c(=O)c3[H])C([H])([H])C2([H])[H])c(C([H])([H])[H])c([H])c1[H]


 40 45  0  0  0  0  0  0  0  0999 V2000
   12.9754   25.7941   -2.2702 N   0  0  0  0  0  0  0  0  0  0  0  0
   13.5627   24.7947   -1.4772 C   0  0  0  0  0  0  0  0  0  0  0  0
   13.0031   24.6515   -0.1124 C   0  0  0  0  0  0  0  0  0  0  0  0
   11.4791   24.7962   -0.1077 C   0  0  0  0  0  0  0  0  0  0  0  0
   11.0529   25.9991   -0.8325 C   0  0  0  0  0  0  0  0  0  0  0  0
   11.6188   25.9623   -2.2624 C   0  0  0  0  0  0  0  0  0  0  0  0
   10.8335   23.6000   -0.4507 N   0  0  0  0  0  0  0  0  0  0  0  0
    9.7301   23.4305    0.5112 C   0  0  0  0  0  0  0  0  0  0  0  0
    8.7323   22.7056    0.3676 O   0  0  0  0  0  0  0  0  0  0  0  0
   10.0306   24.2468    1.6722 N   0  0  0  0  0  0  0  0  0  0  0  0
   11.1759   24.9277    1.4051 C   0  0  0  0  0  0  0  0  0  0  0  0
   11.9123   25.6076    2.1854 O   0  0  0  0  0  0  0  0  0  0  0  0
   11.0038   22.4689   -1.3347 C   0  0  0  0  0  0  0  0  0  0  0  0
   10.0365   22.0474   -2.1572 C   0  0  0  0  0  0  0  0  0  0  0  0
   10.0925   20.8021   -2.7422 C   0  0  0  0  0  0  0  0  0  0  0  0
    9.2392   20.3341   -3.5302 O   0  0  0  0  0  0  0  0  0  0  0  0
   11.1736   20.0342   -2.4490 N   0  0  0  0  0  0  0  0  0  0  0  0
   12.1238   20.4799   -1.6543 C   0  0  0  0  0  0  0  0  0  0  0  0
   12.0586   21.6745   -1.0928 N   0  0  0  0  0  0  0  0  0  0  0  0
   11.2316   19.0659   -2.8880 H   0  0  0  0  0  0  0  0  0  0  0  0
    9.3875   23.8073    2.9356 C   0  0  0  0  0  0  0  0  0  0  0  0
    8.1227   24.1442    3.2092 C   0  0  0  0  0  0  0  0  0  0  0  0
    7.3385   23.1778    3.9452 C   0  0  0  0  0  0  0  0  0  0  0  0
    7.8720   22.0367    4.3194 C   0  0  0  0  0  0  0  0  0  0  0  0
    9.2285   21.7049    4.0711 C   0  0  0  0  0  0  0  0  0  0  0  0
    9.9763   22.6432    3.3533 C   0  0  0  0  0  0  0  0  0  0  0  0
    6.9875   20.8954    4.6454 C   0  0  0  0  0  0  0  0  0  0  0  0
    5.5927   20.9838    4.7164 C   0  0  0  0  0  0  0  0  0  0  0  0
    4.8749   19.9329    5.1803 C   0  0  0  0  0  0  0  0  0  0  0  0
    5.4325   18.7575    5.6116 C   0  0  0  0  0  0  0  0  0  0  0  0
    6.8514   18.6548    5.5514 C   0  0  0  0  0  0  0  0  0  0  0  0
    7.5395   19.7154    5.0725 C   0  0  0  0  0  0  0  0  0  0  0  0
   13.7540   26.1285   -3.3572 C   0  0  0  0  0  0  0  0  0  0  0  0
   16.2237   26.4878   -2.3783 C   0  0  0  0  0  0  0  0  0  0  0  0
   15.9977   25.2371   -3.1827 C   0  0  0  0  0  0  0  0  0  0  0  0
   16.9399   24.2694   -3.3461 C   0  0  0  0  0  0  0  0  0  0  0  0
   16.6749   23.2783   -4.2492 C   0  0  0  0  0  0  0  0  0  0  0  0
   15.5079   23.2775   -4.9445 C   0  0  0  0  0  0  0  0  0  0  0  0
   14.5816   24.2612   -4.7511 N   0  0  0  0  0  0  0  0  0  0  0  0
   14.7895   25.2467   -3.8843 C   0  0  0  0  0  0  0  0  0  0  0  0
 34 35  1  0  0  0
 35 36  2  0  0  0
 36 37  1  0  0  0
 37 38  2  0  0  0
 38 39  1  0  0  0
 39 40  2  0  0  0
 40 33  1  0  0  0
 33  1  1  0  0  0
  1  2  1  0  0  0
  2  3  1  0  0  0
  3  4  1  0  0  0
  4  5  1  0  0  0
  5  6  1  0  0  0
  4  7  1  0  0  0
  7  8  1  0  0  0
  8  9  2  0  0  0
  8 10  1  0  0  0
 10 11  1  0  0  0
 11 12  2  0  0  0
 10 21  1  0  0  0
 21 22  2  0  0  0
 22 23  1  0  0  0
 23 24  2  0  0  0
 24 25  1  0  0  0
 25 26  2  0  0  0
 24 27  1  0  0  0
 27 28  2  0  0  0
 28 29  1  0  0  0
 29 30  2  0  0  0
 30 31  1  0  0  0
 31 32  2  0  0  0
  7 13  1  0  0  0
 13 14  2  0  0  0
 14 15  1  0  0  0
 15 16  2  0  0  0
 15 17  1  0  0  0
 17 18  1  0  0  0
 18 19  2  0  0  0
 40 35  1  0  0  0
  6  1  1  0  0  0
 26 21  1  0  0  0
 32 27  1  0  0  0
 19 13  1  0  0  0
 11  4  1  0  0  0
 17 20  1  0  0  0
M  END
> <minimizedAffinity>
10.40919

> <CNNscore>
0.4036523402

> <CNNaffinity>
7.3613510132

> <CNN_VS>
2.9714264870

> <CNNaffinity_variance>
1.3752938509

$$$$
[H]c1nc(C([H])([H])N2C([H])([H])C([H])([H])C3(C(=O)N(c4c([H])c([H])c(-c5c([H])c([H])c([H])c([H])c5[H])c([H])c4[H])C(=O)N3c3nc([H])n([H])c(=O)c3[H])C([H])([H])C2([H])[H])c(C([H])([H])[H])c([H])c1[H]


 40 45  0  0  0  0  0  0  0  0999 V2000
   15.1041   23.4164   -0.0487 N   0  0  0  0  0  0  0  0  0  0  0  0
   14.3840   22.6017   -0.9377 C   0  0  0  0  0  0  0  0  0  0  0  0
   13.1425   22.0035   -0.3926 C   0  0  0  0  0  0  0  0  0  0  0  0
   12.3749   22.9952    0.4855 C   0  0  0  0  0  0  0  0  0  0  0  0
   13.2536   23.6212    1.4806 C   0  0  0  0  0  0  0  0  0  0  0  0
   14.4402   24.2904    0.7663 C   0  0  0  0  0  0  0  0  0  0  0  0
   11.5735   23.8612   -0.2715 N   0  0  0  0  0  0  0  0  0  0  0  0
   10.2680   23.9237    0.4092 C   0  0  0  0  0  0  0  0  0  0  0  0
    9.4062   24.8067    0.2702 O   0  0  0  0  0  0  0  0  0  0  0  0
   10.1581   22.7512    1.2563 N   0  0  0  0  0  0  0  0  0  0  0  0
   11.3341   22.0756    1.1701 C   0  0  0  0  0  0  0  0  0  0  0  0
   11.6285   20.9104    1.5813 O   0  0  0  0  0  0  0  0  0  0  0  0
   11.5979   24.5666   -1.5331 C   0  0  0  0  0  0  0  0  0  0  0  0
   12.6253   25.3383   -1.9055 C   0  0  0  0  0  0  0  0  0  0  0  0
   12.4990   26.2424   -2.9364 C   0  0  0  0  0  0  0  0  0  0  0  0
   13.4094   26.9930   -3.3557 O   0  0  0  0  0  0  0  0  0  0  0  0
   11.2910   26.3045   -3.5538 N   0  0  0  0  0  0  0  0  0  0  0  0
   10.3016   25.5188   -3.1840 C   0  0  0  0  0  0  0  0  0  0  0  0
   10.4305   24.6580   -2.1896 N   0  0  0  0  0  0  0  0  0  0  0  0
   11.1729   27.0017   -4.3499 H   0  0  0  0  0  0  0  0  0  0  0  0
    8.7706   22.3286    1.5712 C   0  0  0  0  0  0  0  0  0  0  0  0
    8.1000   21.5210    0.7429 C   0  0  0  0  0  0  0  0  0  0  0  0
    7.1845   20.5821    1.3521 C   0  0  0  0  0  0  0  0  0  0  0  0
    7.0348   20.5525    2.6572 C   0  0  0  0  0  0  0  0  0  0  0  0
    7.7104   21.4452    3.5283 C   0  0  0  0  0  0  0  0  0  0  0  0
    8.5980   22.3446    2.9300 C   0  0  0  0  0  0  0  0  0  0  0  0
    6.4818   19.3371    3.2960 C   0  0  0  0  0  0  0  0  0  0  0  0
    5.7051   18.3864    2.6243 C   0  0  0  0  0  0  0  0  0  0  0  0
    5.1053   17.3929    3.3228 C   0  0  0  0  0  0  0  0  0  0  0  0
    5.1947   17.2536    4.6834 C   0  0  0  0  0  0  0  0  0  0  0  0
    5.9765   18.2172    5.3817 C   0  0  0  0  0  0  0  0  0  0  0  0
    6.5726   19.1896    4.6560 C   0  0  0  0  0  0  0  0  0  0  0  0
   16.3986   23.6364   -0.4676 C   0  0  0  0  0  0  0  0  0  0  0  0
   15.7297   22.8731   -2.9489 C   0  0  0  0  0  0  0  0  0  0  0  0
   16.1391   24.3103   -2.7780 C   0  0  0  0  0  0  0  0  0  0  0  0
   16.0927   25.2281   -3.7812 C   0  0  0  0  0  0  0  0  0  0  0  0
   16.6660   26.4466   -3.5470 C   0  0  0  0  0  0  0  0  0  0  0  0
   17.2519   26.7108   -2.3502 C   0  0  0  0  0  0  0  0  0  0  0  0
   17.2750   25.7682   -1.3632 N   0  0  0  0  0  0  0  0  0  0  0  0
   16.7311   24.5686   -1.5391 C   0  0  0  0  0  0  0  0  0  0  0  0
 34 35  1  0  0  0
 35 36  2  0  0  0
 36 37  1  0  0  0
 37 38  2  0  0  0
 38 39  1  0  0  0
 39 40  2  0  0  0
 40 33  1  0  0  0
 33  1  1  0  0  0
  1  2  1  0  0  0
  2  3  1  0  0  0
  3  4  1  0  0  0
  4  5  1  0  0  0
  5  6  1  0  0  0
  4  7  1  0  0  0
  7  8  1  0  0  0
  8  9  2  0  0  0
  8 10  1  0  0  0
 10 11  1  0  0  0
 11 12  2  0  0  0
 10 21  1  0  0  0
 21 22  2  0  0  0
 22 23  1  0  0  0
 23 24  2  0  0  0
 24 25  1  0  0  0
 25 26  2  0  0  0
 24 27  1  0  0  0
 27 28  2  0  0  0
 28 29  1  0  0  0
 29 30  2  0  0  0
 30 31  1  0  0  0
 31 32  2  0  0  0
  7 13  1  0  0  0
 13 14  2  0  0  0
 14 15  1  0  0  0
 15 16  2  0  0  0
 15 17  1  0  0  0
 17 18  1  0  0  0
 18 19  2  0  0  0
 40 35  1  0  0  0
  6  1  1  0  0  0
 26 21  1  0  0  0
 32 27  1  0  0  0
 19 13  1  0  0  0
 11  4  1  0  0  0
 17 20  1  0  0  0
M  END
> <minimizedAffinity>
7.15390

> <CNNscore>
0.4003016353

> <CNNaffinity>
7.5293755531

> <CNN_VS>
3.0140213966

> <CNNaffinity_variance>
1.4123275280

$$$$
[H]c1nc(C([H])([H])N2C([H])([H])C([H])([H])C3(C(=O)N(c4c([H])c([H])c(-c5c([H])c([H])c([H])c([H])c5[H])c([H])c4[H])C(=O)N3c3nc([H])n([H])c(=O)c3[H])C([H])([H])C2([H])[H])c(C([H])([H])[H])c([H])c1[H]


 40 45  0  0  0  0  0  0  0  0999 V2000
   14.9244   23.8091   -4.3481 N   0  0  0  0  0  0  0  0  0  0  0  0
   14.2053   24.6395   -3.4730 C   0  0  0  0  0  0  0  0  0  0  0  0
   13.2037   23.9549   -2.6217 C   0  0  0  0  0  0  0  0  0  0  0  0
   13.7250   22.6123   -2.1030 C   0  0  0  0  0  0  0  0  0  0  0  0
   14.2800   21.7970   -3.1899 C   0  0  0  0  0  0  0  0  0  0  0  0
   15.3767   22.5929   -3.9178 C   0  0  0  0  0  0  0  0  0  0  0  0
   14.5276   22.7615   -0.9632 N   0  0  0  0  0  0  0  0  0  0  0  0
   14.0953   21.7244   -0.0097 C   0  0  0  0  0  0  0  0  0  0  0  0
   14.7449   21.2966    0.9581 O   0  0  0  0  0  0  0  0  0  0  0  0
   12.7591   21.3075   -0.3906 N   0  0  0  0  0  0  0  0  0  0  0  0
   12.4370   21.9686   -1.5334 C   0  0  0  0  0  0  0  0  0  0  0  0
   11.3157   22.0657   -2.1221 O   0  0  0  0  0  0  0  0  0  0  0  0
   15.5083   23.6719   -0.4163 C   0  0  0  0  0  0  0  0  0  0  0  0
   15.9225   24.7616   -1.0726 C   0  0  0  0  0  0  0  0  0  0  0  0
   17.0672   25.4273   -0.6952 C   0  0  0  0  0  0  0  0  0  0  0  0
   17.5191   26.4578   -1.2448 O   0  0  0  0  0  0  0  0  0  0  0  0
   17.7437   24.9289    0.3717 N   0  0  0  0  0  0  0  0  0  0  0  0
   17.3041   23.8680    1.0153 C   0  0  0  0  0  0  0  0  0  0  0  0
   16.2072   23.2323    0.6423 N   0  0  0  0  0  0  0  0  0  0  0  0
   18.6344   25.4274    0.6748 H   0  0  0  0  0  0  0  0  0  0  0  0
   11.9433   20.7270    0.7050 C   0  0  0  0  0  0  0  0  0  0  0  0
   12.4237   20.6624    1.9512 C   0  0  0  0  0  0  0  0  0  0  0  0
   11.4686   20.8274    3.0242 C   0  0  0  0  0  0  0  0  0  0  0  0
   10.1970   21.0226    2.7569 C   0  0  0  0  0  0  0  0  0  0  0  0
    9.6839   21.0399    1.4346 C   0  0  0  0  0  0  0  0  0  0  0  0
   10.6164   20.8858    0.4042 C   0  0  0  0  0  0  0  0  0  0  0  0
    9.3257   21.6346    3.7852 C   0  0  0  0  0  0  0  0  0  0  0  0
    8.6743   20.9092    4.7892 C   0  0  0  0  0  0  0  0  0  0  0  0
    7.7692   21.5266    5.5854 C   0  0  0  0  0  0  0  0  0  0  0  0
    7.4233   22.8476    5.4679 C   0  0  0  0  0  0  0  0  0  0  0  0
    8.0729   23.5975    4.4466 C   0  0  0  0  0  0  0  0  0  0  0  0
    8.9803   22.9569    3.6758 C   0  0  0  0  0  0  0  0  0  0  0  0
   15.5533   24.5183   -5.3487 C   0  0  0  0  0  0  0  0  0  0  0  0
   13.7855   25.7072   -3.7214 C   0  0  0  0  0  0  0  0  0  0  0  0
   14.7155   26.6156   -4.4777 C   0  0  0  0  0  0  0  0  0  0  0  0
   14.7555   27.9641   -4.3013 C   0  0  0  0  0  0  0  0  0  0  0  0
   15.5086   28.6921   -5.1794 C   0  0  0  0  0  0  0  0  0  0  0  0
   16.1853   28.0724   -6.1811 C   0  0  0  0  0  0  0  0  0  0  0  0
   16.1277   26.7163   -6.3252 N   0  0  0  0  0  0  0  0  0  0  0  0
   15.4114   25.9623   -5.4980 C   0  0  0  0  0  0  0  0  0  0  0  0
 34 35  1  0  0  0
 35 36  2  0  0  0
 36 37  1  0  0  0
 37 38  2  0  0  0
 38 39  1  0  0  0
 39 40  2  0  0  0
 40 33  1  0  0  0
 33  1  1  0  0  0
  1  2  1  0  0  0
  2  3  1  0  0  0
  3  4  1  0  0  0
  4  5  1  0  0  0
  5  6  1  0  0  0
  4  7  1  0  0  0
  7  8  1  0  0  0
  8  9  2  0  0  0
  8 10  1  0  0  0
 10 11  1  0  0  0
 11 12  2  0  0  0
 10 21  1  0  0  0
 21 22  2  0  0  0
 22 23  1  0  0  0
 23 24  2  0  0  0
 24 25  1  0  0  0
 25 26  2  0  0  0
 24 27  1  0  0  0
 27 28  2  0  0  0
 28 29  1  0  0  0
 29 30  2  0  0  0
 30 31  1  0  0  0
 31 32  2  0  0  0
  7 13  1  0  0  0
 13 14  2  0  0  0
 14 15  1  0  0  0
 15 16  2  0  0  0
 15 17  1  0  0  0
 17 18  1  0  0  0
 18 19  2  0  0  0
 40 35  1  0  0  0
  6  1  1  0  0  0
 26 21  1  0  0  0
 32 27  1  0  0  0
 19 13  1  0  0  0
 11  4  1  0  0  0
 17 20  1  0  0  0
M  END
> <minimizedAffinity>
-1.23378

> <CNNscore>
0.3750949502

> <CNNaffinity>
8.0227537155

> <CNN_VS>
3.0092945099

> <CNNaffinity_variance>
0.3839783370

$$$$
[H]c1nc(C([H])([H])N2C([H])([H])C([H])([H])C3(C(=O)N(c4c([H])c([H])c(-c5c([H])c([H])c([H])c([H])c5[H])c([H])c4[H])C(=O)N3c3nc([H])n([H])c(=O)c3[H])C([H])([H])C2([H])[H])c(C([H])([H])[H])c([H])c1[H]


 40 45  0  0  0  0  0  0  0  0999 V2000
    8.4068   20.4584    0.3668 N   0  0  0  0  0  0  0  0  0  0  0  0
    9.5088   20.8932    1.1210 C   0  0  0  0  0  0  0  0  0  0  0  0
   10.6399   21.4457    0.3388 C   0  0  0  0  0  0  0  0  0  0  0  0
   10.1528   22.3145   -0.8238 C   0  0  0  0  0  0  0  0  0  0  0  0
    9.1266   21.6250   -1.6147 C   0  0  0  0  0  0  0  0  0  0  0  0
    7.9694   21.2019   -0.6937 C   0  0  0  0  0  0  0  0  0  0  0  0
    9.8524   23.6220   -0.4169 N   0  0  0  0  0  0  0  0  0  0  0  0
   10.4455   24.5193   -1.4242 C   0  0  0  0  0  0  0  0  0  0  0  0
   10.1384   25.7053   -1.6264 O   0  0  0  0  0  0  0  0  0  0  0  0
   11.4742   23.7739   -2.1246 N   0  0  0  0  0  0  0  0  0  0  0  0
   11.4505   22.5016   -1.6476 C   0  0  0  0  0  0  0  0  0  0  0  0
   12.2811   21.5570   -1.8240 O   0  0  0  0  0  0  0  0  0  0  0  0
    9.2834   24.3225    0.7125 C   0  0  0  0  0  0  0  0  0  0  0  0
   10.0328   24.8099    1.7079 C   0  0  0  0  0  0  0  0  0  0  0  0
    9.4685   25.1782    2.9087 C   0  0  0  0  0  0  0  0  0  0  0  0
   10.0921   25.6520    3.8858 O   0  0  0  0  0  0  0  0  0  0  0  0
    8.1238   25.0287    3.0265 N   0  0  0  0  0  0  0  0  0  0  0  0
    7.4046   24.5678    2.0249 C   0  0  0  0  0  0  0  0  0  0  0  0
    7.9558   24.2115    0.8779 N   0  0  0  0  0  0  0  0  0  0  0  0
    7.6704   25.3033    3.9499 H   0  0  0  0  0  0  0  0  0  0  0  0
   12.5387   24.6002   -2.7466 C   0  0  0  0  0  0  0  0  0  0  0  0
   12.8255   25.8151   -2.2671 C   0  0  0  0  0  0  0  0  0  0  0  0
   14.2088   26.2302   -2.3368 C   0  0  0  0  0  0  0  0  0  0  0  0
   15.1153   25.4342   -2.8575 C   0  0  0  0  0  0  0  0  0  0  0  0
   14.7984   24.1671   -3.4108 C   0  0  0  0  0  0  0  0  0  0  0  0
   13.4593   23.7725   -3.3327 C   0  0  0  0  0  0  0  0  0  0  0  0
   16.5419   25.6427   -2.5219 C   0  0  0  0  0  0  0  0  0  0  0  0
   17.1092   25.3145   -1.2854 C   0  0  0  0  0  0  0  0  0  0  0  0
   18.3810   25.6893   -1.0083 C   0  0  0  0  0  0  0  0  0  0  0  0
   19.1735   26.4003   -1.8715 C   0  0  0  0  0  0  0  0  0  0  0  0
   18.6079   26.7472   -3.1313 C   0  0  0  0  0  0  0  0  0  0  0  0
   17.3409   26.3488   -3.3837 C   0  0  0  0  0  0  0  0  0  0  0  0
    7.5676   19.6361    1.0874 C   0  0  0  0  0  0  0  0  0  0  0  0
    5.4657   18.2470    2.0035 C   0  0  0  0  0  0  0  0  0  0  0  0
    6.2317   19.0499    3.0189 C   0  0  0  0  0  0  0  0  0  0  0  0
    5.9652   19.0231    4.3528 C   0  0  0  0  0  0  0  0  0  0  0  0
    6.6073   19.9359    5.1419 C   0  0  0  0  0  0  0  0  0  0  0  0
    7.4762   20.8252    4.5947 C   0  0  0  0  0  0  0  0  0  0  0  0
    7.7248   20.8200    3.2526 N   0  0  0  0  0  0  0  0  0  0  0  0
    7.1280   19.9528    2.4417 C   0  0  0  0  0  0  0  0  0  0  0  0
 34 35  1  0  0  0
 35 36  2  0  0  0
 36 37  1  0  0  0
 37 38  2  0  0  0
 38 39  1  0  0  0
 39 40  2  0  0  0
 40 33  1  0  0  0
 33  1  1  0  0  0
  1  2  1  0  0  0
  2  3  1  0  0  0
  3  4  1  0  0  0
  4  5  1  0  0  0
  5  6  1  0  0  0
  4  7  1  0  0  0
  7  8  1  0  0  0
  8  9  2  0  0  0
  8 10  1  0  0  0
 10 11  1  0  0  0
 11 12  2  0  0  0
 10 21  1  0  0  0
 21 22  2  0  0  0
 22 23  1  0  0  0
 23 24  2  0  0  0
 24 25  1  0  0  0
 25 26  2  0  0  0
 24 27  1  0  0  0
 27 28  2  0  0  0
 28 29  1  0  0  0
 29 30  2  0  0  0
 30 31  1  0  0  0
 31 32  2  0  0  0
  7 13  1  0  0  0
 13 14  2  0  0  0
 14 15  1  0  0  0
 15 16  2  0  0  0
 15 17  1  0  0  0
 17 18  1  0  0  0
 18 19  2  0  0  0
 40 35  1  0  0  0
  6  1  1  0  0  0
 26 21  1  0  0  0
 32 27  1  0  0  0
 19 13  1  0  0  0
 11  4  1  0  0  0
 17 20  1  0  0  0
M  END
> <minimizedAffinity>
20.86928

> <CNNscore>
0.3635651469

> <CNNaffinity>
6.7941551208

> <CNN_VS>
2.4701180458

> <CNNaffinity_variance>
0.7583407164

$$$$
[H]c1nc(C([H])([H])N2C([H])([H])C([H])([H])C3(C(=O)N(c4c([H])c([H])c(-c5c([H])c([H])c([H])c([H])c5[H])c([H])c4[H])C(=O)N3c3nc([H])n([H])c(=O)c3[H])C([H])([H])C2([H])[H])c(C([H])([H])[H])c([H])c1[H]


 40 45  0  0  0  0  0  0  0  0999 V2000
   11.8013   24.2168   -0.8396 N   0  0  0  0  0  0  0  0  0  0  0  0
   12.2475   25.4643   -0.3735 C   0  0  0  0  0  0  0  0  0  0  0  0
   13.6579   25.7954   -0.6858 C   0  0  0  0  0  0  0  0  0  0  0  0
   14.0419   25.3566   -2.1013 C   0  0  0  0  0  0  0  0  0  0  0  0
   13.6593   23.9621   -2.3523 C   0  0  0  0  0  0  0  0  0  0  0  0
   12.1535   23.7894   -2.0895 C   0  0  0  0  0  0  0  0  0  0  0  0
   13.6532   26.2936   -3.0690 N   0  0  0  0  0  0  0  0  0  0  0  0
   14.7998   26.4520   -3.9809 C   0  0  0  0  0  0  0  0  0  0  0  0
   14.7667   26.9141   -5.1329 O   0  0  0  0  0  0  0  0  0  0  0  0
   15.9843   25.9922   -3.2808 N   0  0  0  0  0  0  0  0  0  0  0  0
   15.5826   25.5095   -2.0757 C   0  0  0  0  0  0  0  0  0  0  0  0
   16.2776   25.1810   -1.0645 O   0  0  0  0  0  0  0  0  0  0  0  0
   12.5689   27.2090   -3.3451 C   0  0  0  0  0  0  0  0  0  0  0  0
   11.6552   26.9757   -4.2940 C   0  0  0  0  0  0  0  0  0  0  0  0
   10.8386   27.9825   -4.7584 C   0  0  0  0  0  0  0  0  0  0  0  0
    9.9525   27.8496   -5.6332 O   0  0  0  0  0  0  0  0  0  0  0  0
   11.0029   29.2112   -4.2035 N   0  0  0  0  0  0  0  0  0  0  0  0
   11.8937   29.4110   -3.2551 C   0  0  0  0  0  0  0  0  0  0  0  0
   12.6770   28.4396   -2.8197 N   0  0  0  0  0  0  0  0  0  0  0  0
   10.3839   30.0035   -4.5539 H   0  0  0  0  0  0  0  0  0  0  0  0
   17.2649   26.5669   -3.7632 C   0  0  0  0  0  0  0  0  0  0  0  0
   17.4324   26.8680   -5.0552 C   0  0  0  0  0  0  0  0  0  0  0  0
   18.2558   28.0191   -5.3516 C   0  0  0  0  0  0  0  0  0  0  0  0
   18.8048   28.7108   -4.3787 C   0  0  0  0  0  0  0  0  0  0  0  0
   18.6658   28.3579   -3.0119 C   0  0  0  0  0  0  0  0  0  0  0  0
   17.8625   27.2473   -2.7356 C   0  0  0  0  0  0  0  0  0  0  0  0
   19.2415   30.1018   -4.6351 C   0  0  0  0  0  0  0  0  0  0  0  0
   18.9097   30.8248   -5.7864 C   0  0  0  0  0  0  0  0  0  0  0  0
   19.4857   32.0294   -6.0134 C   0  0  0  0  0  0  0  0  0  0  0  0
   20.4088   32.6045   -5.1792 C   0  0  0  0  0  0  0  0  0  0  0  0
   20.7614   31.8779   -4.0066 C   0  0  0  0  0  0  0  0  0  0  0  0
   20.1608   30.6842   -3.8013 C   0  0  0  0  0  0  0  0  0  0  0  0
   10.6395   23.8087   -0.2205 C   0  0  0  0  0  0  0  0  0  0  0  0
   11.2832   21.2929   -0.8864 C   0  0  0  0  0  0  0  0  0  0  0  0
   11.2275   21.6029    0.5843 C   0  0  0  0  0  0  0  0  0  0  0  0
   11.5722   20.7115    1.5527 C   0  0  0  0  0  0  0  0  0  0  0  0
   11.2998   21.0521    2.8480 C   0  0  0  0  0  0  0  0  0  0  0  0
   10.7094   22.2413    3.1354 C   0  0  0  0  0  0  0  0  0  0  0  0
   10.3823   23.1149    2.1390 N   0  0  0  0  0  0  0  0  0  0  0  0
   10.6266   22.8329    0.8636 C   0  0  0  0  0  0  0  0  0  0  0  0
 34 35  1  0  0  0
 35 36  2  0  0  0
 36 37  1  0  0  0
 37 38  2  0  0  0
 38 39  1  0  0  0
 39 40  2  0  0  0
 40 33  1  0  0  0
 33  1  1  0  0  0
  1  2  1  0  0  0
  2  3  1  0  0  0
  3  4  1  0  0  0
  4  5  1  0  0  0
  5  6  1  0  0  0
  4  7  1  0  0  0
  7  8  1  0  0  0
  8  9  2  0  0  0
  8 10  1  0  0  0
 10 11  1  0  0  0
 11 12  2  0  0  0
 10 21  1  0  0  0
 21 22  2  0  0  0
 22 23  1  0  0  0
 23 24  2  0  0  0
 24 25  1  0  0  0
 25 26  2  0  0  0
 24 27  1  0  0  0
 27 28  2  0  0  0
 28 29  1  0  0  0
 29 30  2  0  0  0
 30 31  1  0  0  0
 31 32  2  0  0  0
  7 13  1  0  0  0
 13 14  2  0  0  0
 14 15  1  0  0  0
 15 16  2  0  0  0
 15 17  1  0  0  0
 17 18  1  0  0  0
 18 19  2  0  0  0
 40 35  1  0  0  0
  6  1  1  0  0  0
 26 21  1  0  0  0
 32 27  1  0  0  0
 19 13  1  0  0  0
 11  4  1  0  0  0
 17 20  1  0  0  0
M  END
> <minimizedAffinity>
53.00238

> <CNNscore>
0.3615791500

> <CNNaffinity>
7.0860724449

> <CNN_VS>
2.5621759892

> <CNNaffinity_variance>
0.7096977234

$$$$
[H]c1nc(C([H])([H])N2C([H])([H])C([H])([H])C3(C(=O)N(c4c([H])c([H])c(-c5c([H])c([H])c([H])c([H])c5[H])c([H])c4[H])C(=O)N3c3nc([H])n([H])c(=O)c3[H])C([H])([H])C2([H])[H])c(C([H])([H])[H])c([H])c1[H]


 40 45  0  0  0  0  0  0  0  0999 V2000
    8.5694   24.6538   -0.1601 N   0  0  0  0  0  0  0  0  0  0  0  0
    8.9847   23.8178   -1.2095 C   0  0  0  0  0  0  0  0  0  0  0  0
   10.2880   24.1641   -1.8241 C   0  0  0  0  0  0  0  0  0  0  0  0
   11.3141   24.5915   -0.7715 C   0  0  0  0  0  0  0  0  0  0  0  0
   10.7626   25.6074    0.1328 C   0  0  0  0  0  0  0  0  0  0  0  0
    9.4723   25.0724    0.7771 C   0  0  0  0  0  0  0  0  0  0  0  0
   11.9405   23.4926   -0.1670 N   0  0  0  0  0  0  0  0  0  0  0  0
   13.3794   23.8068   -0.1187 C   0  0  0  0  0  0  0  0  0  0  0  0
   14.2256   23.2739    0.6172 O   0  0  0  0  0  0  0  0  0  0  0  0
   13.6369   24.8378   -1.1062 N   0  0  0  0  0  0  0  0  0  0  0  0
   12.4415   25.1885   -1.6492 C   0  0  0  0  0  0  0  0  0  0  0  0
   12.1965   25.9035   -2.6700 O   0  0  0  0  0  0  0  0  0  0  0  0
   11.6303   22.1514    0.2742 C   0  0  0  0  0  0  0  0  0  0  0  0
   10.9008   21.9052    1.3684 C   0  0  0  0  0  0  0  0  0  0  0  0
   10.8868   20.6563    1.9481 C   0  0  0  0  0  0  0  0  0  0  0  0
   10.2260   20.3373    2.9628 O   0  0  0  0  0  0  0  0  0  0  0  0
   11.6395   19.6950    1.3532 N   0  0  0  0  0  0  0  0  0  0  0  0
   12.3315   19.9557    0.2641 C   0  0  0  0  0  0  0  0  0  0  0  0
   12.3431   21.1591   -0.2820 N   0  0  0  0  0  0  0  0  0  0  0  0
   11.6454   18.7242    1.7906 H   0  0  0  0  0  0  0  0  0  0  0  0
   15.0314   24.8928   -1.6115 C   0  0  0  0  0  0  0  0  0  0  0  0
   15.3385   24.4039   -2.8176 C   0  0  0  0  0  0  0  0  0  0  0  0
   16.3790   25.0904   -3.5503 C   0  0  0  0  0  0  0  0  0  0  0  0
   16.9798   26.1356   -3.0277 C   0  0  0  0  0  0  0  0  0  0  0  0
   16.6861   26.6201   -1.7273 C   0  0  0  0  0  0  0  0  0  0  0  0
   15.6741   25.9533   -1.0298 C   0  0  0  0  0  0  0  0  0  0  0  0
   17.6829   27.0874   -3.9171 C   0  0  0  0  0  0  0  0  0  0  0  0
   18.6624   26.7126   -4.8436 C   0  0  0  0  0  0  0  0  0  0  0  0
   19.3684   27.6652   -5.4984 C   0  0  0  0  0  0  0  0  0  0  0  0
   19.1982   29.0113   -5.3044 C   0  0  0  0  0  0  0  0  0  0  0  0
   18.2095   29.4083   -4.3599 C   0  0  0  0  0  0  0  0  0  0  0  0
   17.5128   28.4351   -3.7312 C   0  0  0  0  0  0  0  0  0  0  0  0
    7.2257   24.5225    0.1170 C   0  0  0  0  0  0  0  0  0  0  0  0
    8.0669   22.2122   -0.9515 C   0  0  0  0  0  0  0  0  0  0  0  0
    7.2906   22.1124    0.3329 C   0  0  0  0  0  0  0  0  0  0  0  0
    7.0886   20.9433    0.9989 C   0  0  0  0  0  0  0  0  0  0  0  0
    6.2128   20.9593    2.0480 C   0  0  0  0  0  0  0  0  0  0  0  0
    5.5809   22.1100    2.3971 C   0  0  0  0  0  0  0  0  0  0  0  0
    5.8118   23.2669    1.7105 N   0  0  0  0  0  0  0  0  0  0  0  0
    6.6545   23.3059    0.6838 C   0  0  0  0  0  0  0  0  0  0  0  0
 34 35  1  0  0  0
 35 36  2  0  0  0
 36 37  1  0  0  0
 37 38  2  0  0  0
 38 39  1  0  0  0
 39 40  2  0  0  0
 40 33  1  0  0  0
 33  1  1  0  0  0
  1  2  1  0  0  0
  2  3  1  0  0  0
  3  4  1  0  0  0
  4  5  1  0  0  0
  5  6  1  0  0  0
  4  7  1  0  0  0
  7  8  1  0  0  0
  8  9  2  0  0  0
  8 10  1  0  0  0
 10 11  1  0  0  0
 11 12  2  0  0  0
 10 21  1  0  0  0
 21 22  2  0  0  0
 22 23  1  0  0  0
 23 24  2  0  0  0
 24 25  1  0  0  0
 25 26  2  0  0  0
 24 27  1  0  0  0
 27 28  2  0  0  0
 28 29  1  0  0  0
 29 30  2  0  0  0
 30 31  1  0  0  0
 31 32  2  0  0  0
  7 13  1  0  0  0
 13 14  2  0  0  0
 14 15  1  0  0  0
 15 16  2  0  0  0
 15 17  1  0  0  0
 17 18  1  0  0  0
 18 19  2  0  0  0
 40 35  1  0  0  0
  6  1  1  0  0  0
 26 21  1  0  0  0
 32 27  1  0  0  0
 19 13  1  0  0  0
 11  4  1  0  0  0
 17 20  1  0  0  0
M  END
> <minimizedAffinity>
38.42305

> <CNNscore>
0.3614321053

> <CNNaffinity>
7.0852036476

> <CNN_VS>
2.5608201027

> <CNNaffinity_variance>
0.8097721338

$$$$
[H]c1nc(C([H])([H])N2C([H])([H])C([H])([H])C3(C(=O)N(c4c([H])c([H])c(-c5c([H])c([H])c([H])c([H])c5[H])c([H])c4[H])C(=O)N3c3nc([H])n([H])c(=O)c3[H])C([H])([H])C2([H])[H])c(C([H])([H])[H])c([H])c1[H]


 40 45  0  0  0  0  0  0  0  0999 V2000
    6.6795   25.6666    2.4563 N   0  0  0  0  0  0  0  0  0  0  0  0
    6.5545   25.0826    1.1851 C   0  0  0  0  0  0  0  0  0  0  0  0
    7.8193   24.6154    0.5699 C   0  0  0  0  0  0  0  0  0  0  0  0
    8.7377   23.9518    1.5993 C   0  0  0  0  0  0  0  0  0  0  0  0
    8.8984   24.7901    2.7932 C   0  0  0  0  0  0  0  0  0  0  0  0
    7.5146   25.1094    3.3842 C   0  0  0  0  0  0  0  0  0  0  0  0
    8.4004   22.6092    1.8209 N   0  0  0  0  0  0  0  0  0  0  0  0
    9.6664   21.8550    1.8194 C   0  0  0  0  0  0  0  0  0  0  0  0
    9.8517   20.7255    2.3006 O   0  0  0  0  0  0  0  0  0  0  0  0
   10.6566   22.6609    1.1305 N   0  0  0  0  0  0  0  0  0  0  0  0
   10.0697   23.8458    0.8167 C   0  0  0  0  0  0  0  0  0  0  0  0
   10.4828   24.7757    0.0565 O   0  0  0  0  0  0  0  0  0  0  0  0
    7.2294   21.7659    1.9071 C   0  0  0  0  0  0  0  0  0  0  0  0
    6.8962   21.1105    3.0247 C   0  0  0  0  0  0  0  0  0  0  0  0
    5.9850   20.0784    2.9995 C   0  0  0  0  0  0  0  0  0  0  0  0
    5.6088   19.4212    3.9969 O   0  0  0  0  0  0  0  0  0  0  0  0
    5.4424   19.7679    1.7938 N   0  0  0  0  0  0  0  0  0  0  0  0
    5.7695   20.4421    0.7116 C   0  0  0  0  0  0  0  0  0  0  0  0
    6.6494   21.4277    0.7446 N   0  0  0  0  0  0  0  0  0  0  0  0
    4.7397   18.9689    1.7539 H   0  0  0  0  0  0  0  0  0  0  0  0
   11.7825   21.9012    0.5322 C   0  0  0  0  0  0  0  0  0  0  0  0
   12.3664   22.3231   -0.5943 C   0  0  0  0  0  0  0  0  0  0  0  0
   13.7860   22.0792   -0.7200 C   0  0  0  0  0  0  0  0  0  0  0  0
   14.4414   21.4646    0.2388 C   0  0  0  0  0  0  0  0  0  0  0  0
   13.8086   20.9739    1.4096 C   0  0  0  0  0  0  0  0  0  0  0  0
   12.4371   21.2204    1.5243 C   0  0  0  0  0  0  0  0  0  0  0  0
   15.9108   21.6210    0.3281 C   0  0  0  0  0  0  0  0  0  0  0  0
   16.7988   20.5572    0.5236 C   0  0  0  0  0  0  0  0  0  0  0  0
   18.1091   20.8091    0.7564 C   0  0  0  0  0  0  0  0  0  0  0  0
   18.6437   22.0690    0.8305 C   0  0  0  0  0  0  0  0  0  0  0  0
   17.7513   23.1620    0.6400 C   0  0  0  0  0  0  0  0  0  0  0  0
   16.4518   22.8788    0.3974 C   0  0  0  0  0  0  0  0  0  0  0  0
    5.5671   26.3992    2.8104 C   0  0  0  0  0  0  0  0  0  0  0  0
    5.0790   27.4729    5.2179 C   0  0  0  0  0  0  0  0  0  0  0  0
    5.6033   28.4070    4.1620 C   0  0  0  0  0  0  0  0  0  0  0  0
    5.9180   29.7089    4.4009 C   0  0  0  0  0  0  0  0  0  0  0  0
    6.2046   30.4960    3.3210 C   0  0  0  0  0  0  0  0  0  0  0  0
    6.1729   29.9773    2.0659 C   0  0  0  0  0  0  0  0  0  0  0  0
    5.8589   28.6645    1.8629 N   0  0  0  0  0  0  0  0  0  0  0  0
    5.5736   27.8562    2.8783 C   0  0  0  0  0  0  0  0  0  0  0  0
 34 35  1  0  0  0
 35 36  2  0  0  0
 36 37  1  0  0  0
 37 38  2  0  0  0
 38 39  1  0  0  0
 39 40  2  0  0  0
 40 33  1  0  0  0
 33  1  1  0  0  0
  1  2  1  0  0  0
  2  3  1  0  0  0
  3  4  1  0  0  0
  4  5  1  0  0  0
  5  6  1  0  0  0
  4  7  1  0  0  0
  7  8  1  0  0  0
  8  9  2  0  0  0
  8 10  1  0  0  0
 10 11  1  0  0  0
 11 12  2  0  0  0
 10 21  1  0  0  0
 21 22  2  0  0  0
 22 23  1  0  0  0
 23 24  2  0  0  0
 24 25  1  0  0  0
 25 26  2  0  0  0
 24 27  1  0  0  0
 27 28  2  0  0  0
 28 29  1  0  0  0
 29 30  2  0  0  0
 30 31  1  0  0  0
 31 32  2  0  0  0
  7 13  1  0  0  0
 13 14  2  0  0  0
 14 15  1  0  0  0
 15 16  2  0  0  0
 15 17  1  0  0  0
 17 18  1  0  0  0
 18 19  2  0  0  0
 40 35  1  0  0  0
  6  1  1  0  0  0
 26 21  1  0  0  0
 32 27  1  0  0  0
 19 13  1  0  0  0
 11  4  1  0  0  0
 17 20  1  0  0  0
M  END
> <minimizedAffinity>
16.69633

> <CNNscore>
0.3470158279

> <CNNaffinity>
6.4638085365

> <CNN_VS>
2.2430438995

> <CNNaffinity_variance>
0.6524696350

$$$$
[H]OC(=O)c1c([H])c([H])c(N2C(=O)N(c3c([H])c([H])c(-c4c([H])c([H])c([H])c([H])c4[H])c([H])c3[H])C3(C2=O)C([H])([H])C([H])([H])N(C([H])([H])c2nc([H])c([H])c([H])c2C([H])([H])[H])C([H])([H])C3([H])[H])c([H])c1[H]


 42 47  0  0  0  0  0  0  0  0999 V2000
   11.2731   22.9976   -0.8420 N   0  0  0  0  0  0  0  0  0  0  0  0
   11.8044   24.2932   -0.2787 C   0  0  0  0  0  0  0  0  0  0  0  0
   12.8327   24.8683   -1.1612 C   0  0  0  0  0  0  0  0  0  0  0  0
   14.0379   23.9241   -1.1822 C   0  0  0  0  0  0  0  0  0  0  0  0
   13.5564   22.5808   -1.5091 C   0  0  0  0  0  0  0  0  0  0  0  0
   12.3142   22.0983   -0.7731 C   0  0  0  0  0  0  0  0  0  0  0  0
   14.9573   24.4690   -2.0841 N   0  0  0  0  0  0  0  0  0  0  0  0
   16.2939   24.2182   -1.5005 C   0  0  0  0  0  0  0  0  0  0  0  0
   17.3267   24.2447   -2.1881 O   0  0  0  0  0  0  0  0  0  0  0  0
   16.1470   23.9695   -0.1155 N   0  0  0  0  0  0  0  0  0  0  0  0
   14.7513   24.0223    0.1300 C   0  0  0  0  0  0  0  0  0  0  0  0
   14.2933   24.1348    1.2864 O   0  0  0  0  0  0  0  0  0  0  0  0
   17.1828   23.8796    0.8721 C   0  0  0  0  0  0  0  0  0  0  0  0
   17.1821   22.9378    1.8508 C   0  0  0  0  0  0  0  0  0  0  0  0
   18.1819   23.0077    2.8270 C   0  0  0  0  0  0  0  0  0  0  0  0
   19.1528   23.9972    2.8063 C   0  0  0  0  0  0  0  0  0  0  0  0
   19.1534   24.9438    1.8167 C   0  0  0  0  0  0  0  0  0  0  0  0
   18.1528   24.8701    0.8654 C   0  0  0  0  0  0  0  0  0  0  0  0
   20.1664   24.1247    3.8723 C   0  0  0  0  0  0  0  0  0  0  0  0
   21.5147   24.0337    3.4656 O   0  0  0  0  0  0  0  0  0  0  0  0
   19.9246   24.3018    5.0600 O   0  0  0  0  0  0  0  0  0  0  0  0
   22.2439   23.7659    4.1245 H   0  0  0  0  0  0  0  0  0  0  0  0
   14.9523   25.2537   -3.2935 C   0  0  0  0  0  0  0  0  0  0  0  0
   15.0803   26.6452   -3.1242 C   0  0  0  0  0  0  0  0  0  0  0  0
   15.2851   27.5224   -4.1485 C   0  0  0  0  0  0  0  0  0  0  0  0
   15.3822   27.0495   -5.4127 C   0  0  0  0  0  0  0  0  0  0  0  0
   15.2565   25.6715   -5.6236 C   0  0  0  0  0  0  0  0  0  0  0  0
   15.0399   24.7937   -4.5486 C   0  0  0  0  0  0  0  0  0  0  0  0
   15.8590   27.9530   -6.4681 C   0  0  0  0  0  0  0  0  0  0  0  0
   16.3032   27.3050   -7.6392 C   0  0  0  0  0  0  0  0  0  0  0  0
   16.7261   28.1174   -8.7225 C   0  0  0  0  0  0  0  0  0  0  0  0
   16.7174   29.4812   -8.6448 C   0  0  0  0  0  0  0  0  0  0  0  0
   16.2698   30.0866   -7.4655 C   0  0  0  0  0  0  0  0  0  0  0  0
   15.8346   29.2935   -6.3752 C   0  0  0  0  0  0  0  0  0  0  0  0
   10.0567   22.8259   -0.1776 C   0  0  0  0  0  0  0  0  0  0  0  0
    7.6210   22.5317    1.2235 C   0  0  0  0  0  0  0  0  0  0  0  0
    7.9543   21.5402    0.1649 C   0  0  0  0  0  0  0  0  0  0  0  0
    7.1567   20.4584   -0.0757 C   0  0  0  0  0  0  0  0  0  0  0  0
    7.4631   19.5690   -1.0896 C   0  0  0  0  0  0  0  0  0  0  0  0
    8.6109   19.8656   -1.8278 C   0  0  0  0  0  0  0  0  0  0  0  0
    9.3541   20.9211   -1.5678 N   0  0  0  0  0  0  0  0  0  0  0  0
    9.1036   21.8080   -0.5896 C   0  0  0  0  0  0  0  0  0  0  0  0
 36 37  1  0  0  0
 37 38  2  0  0  0
 38 39  1  0  0  0
 39 40  2  0  0  0
 40 41  1  0  0  0
 41 42  2  0  0  0
 42 35  1  0  0  0
 35  1  1  0  0  0
  1  2  1  0  0  0
  2  3  1  0  0  0
  3  4  1  0  0  0
  4  5  1  0  0  0
  5  6  1  0  0  0
  4  7  1  0  0  0
  7  8  1  0  0  0
  8  9  2  0  0  0
  8 10  1  0  0  0
 10 11  1  0  0  0
 11 12  2  0  0  0
 10 13  1  0  0  0
 13 14  2  0  0  0
 14 15  1  0  0  0
 15 16  2  0  0  0
 16 17  1  0  0  0
 17 18  2  0  0  0
 16 19  1  0  0  0
 19 20  1  0  0  0
 19 21  2  0  0  0
  7 23  1  0  0  0
 23 24  2  0  0  0
 24 25  1  0  0  0
 25 26  2  0  0  0
 26 27  1  0  0  0
 27 28  2  0  0  0
 26 29  1  0  0  0
 29 30  2  0  0  0
 30 31  1  0  0  0
 31 32  2  0  0  0
 32 33  1  0  0  0
 33 34  2  0  0  0
 42 37  1  0  0  0
  6  1  1  0  0  0
 18 13  1  0  0  0
 28 23  1  0  0  0
 34 29  1  0  0  0
 11  4  1  0  0  0
 20 22  1  0  0  0
M  END
> <minimizedAffinity>
28.86298

> <CNNscore>
0.5912497044

> <CNNaffinity>
7.8422651291

> <CNN_VS>
4.6367368698

> <CNNaffinity_variance>
0.4030013978

$$$$
[H]OC(=O)c1c([H])c([H])c(N2C(=O)N(c3c([H])c([H])c(-c4c([H])c([H])c([H])c([H])c4[H])c([H])c3[H])C3(C2=O)C([H])([H])C([H])([H])N(C([H])([H])c2nc([H])c([H])c([H])c2C([H])([H])[H])C([H])([H])C3([H])[H])c([H])c1[H]


 42 47  0  0  0  0  0  0  0  0999 V2000
   16.2535   24.1287    1.3103 N   0  0  0  0  0  0  0  0  0  0  0  0
   15.7314   22.8620    0.6771 C   0  0  0  0  0  0  0  0  0  0  0  0
   15.0151   23.1561   -0.5749 C   0  0  0  0  0  0  0  0  0  0  0  0
   13.7645   23.9729   -0.2384 C   0  0  0  0  0  0  0  0  0  0  0  0
   14.1756   25.1170    0.5772 C   0  0  0  0  0  0  0  0  0  0  0  0
   15.1434   24.8350    1.7179 C   0  0  0  0  0  0  0  0  0  0  0  0
   13.1550   24.2911   -1.4562 N   0  0  0  0  0  0  0  0  0  0  0  0
   11.6976   24.2068   -1.2134 C   0  0  0  0  0  0  0  0  0  0  0  0
   10.8742   24.7633   -1.9568 O   0  0  0  0  0  0  0  0  0  0  0  0
   11.4728   23.4218   -0.0580 N   0  0  0  0  0  0  0  0  0  0  0  0
   12.7629   23.0746    0.4174 C   0  0  0  0  0  0  0  0  0  0  0  0
   12.9303   22.1545    1.2452 O   0  0  0  0  0  0  0  0  0  0  0  0
   10.2217   22.9142    0.4252 C   0  0  0  0  0  0  0  0  0  0  0  0
    9.6165   23.3983    1.5406 C   0  0  0  0  0  0  0  0  0  0  0  0
    8.4542   22.7583    1.9846 C   0  0  0  0  0  0  0  0  0  0  0  0
    7.9219   21.6673    1.3149 C   0  0  0  0  0  0  0  0  0  0  0  0
    8.5321   21.1829    0.1887 C   0  0  0  0  0  0  0  0  0  0  0  0
    9.6864   21.8172   -0.2320 C   0  0  0  0  0  0  0  0  0  0  0  0
    6.7398   20.9386    1.8167 C   0  0  0  0  0  0  0  0  0  0  0  0
    5.8002   21.6997    2.5446 O   0  0  0  0  0  0  0  0  0  0  0  0
    6.5208   19.7454    1.6481 O   0  0  0  0  0  0  0  0  0  0  0  0
    5.1636   21.2550    3.2038 H   0  0  0  0  0  0  0  0  0  0  0  0
   13.5363   24.5539   -2.8215 C   0  0  0  0  0  0  0  0  0  0  0  0
   13.3297   25.8703   -3.2751 C   0  0  0  0  0  0  0  0  0  0  0  0
   13.7997   26.3505   -4.4621 C   0  0  0  0  0  0  0  0  0  0  0  0
   14.5174   25.5328   -5.2669 C   0  0  0  0  0  0  0  0  0  0  0  0
   14.7417   24.2147   -4.8532 C   0  0  0  0  0  0  0  0  0  0  0  0
   14.2394   23.7475   -3.6275 C   0  0  0  0  0  0  0  0  0  0  0  0
   15.2365   26.1189   -6.4056 C   0  0  0  0  0  0  0  0  0  0  0  0
   15.7504   27.4114   -6.1731 C   0  0  0  0  0  0  0  0  0  0  0  0
   16.5049   28.0176   -7.2103 C   0  0  0  0  0  0  0  0  0  0  0  0
   16.7262   27.3868   -8.4016 C   0  0  0  0  0  0  0  0  0  0  0  0
   16.1992   26.1051   -8.5940 C   0  0  0  0  0  0  0  0  0  0  0  0
   15.4506   25.4783   -7.5675 C   0  0  0  0  0  0  0  0  0  0  0  0
   17.2451   23.6743    2.1826 C   0  0  0  0  0  0  0  0  0  0  0  0
   18.4315   24.0307   -0.3567 C   0  0  0  0  0  0  0  0  0  0  0  0
   19.2816   24.1996    0.8531 C   0  0  0  0  0  0  0  0  0  0  0  0
   20.6232   24.4336    0.7551 C   0  0  0  0  0  0  0  0  0  0  0  0
   21.3894   24.6261    1.8904 C   0  0  0  0  0  0  0  0  0  0  0  0
   20.6979   24.5733    3.1026 C   0  0  0  0  0  0  0  0  0  0  0  0
   19.4017   24.3481    3.1571 N   0  0  0  0  0  0  0  0  0  0  0  0
   18.6169   24.1465    2.0849 C   0  0  0  0  0  0  0  0  0  0  0  0
 36 37  1  0  0  0
 37 38  2  0  0  0
 38 39  1  0  0  0
 39 40  2  0  0  0
 40 41  1  0  0  0
 41 42  2  0  0  0
 42 35  1  0  0  0
 35  1  1  0  0  0
  1  2  1  0  0  0
  2  3  1  0  0  0
  3  4  1  0  0  0
  4  5  1  0  0  0
  5  6  1  0  0  0
  4  7  1  0  0  0
  7  8  1  0  0  0
  8  9  2  0  0  0
  8 10  1  0  0  0
 10 11  1  0  0  0
 11 12  2  0  0  0
 10 13  1  0  0  0
 13 14  2  0  0  0
 14 15  1  0  0  0
 15 16  2  0  0  0
 16 17  1  0  0  0
 17 18  2  0  0  0
 16 19  1  0  0  0
 19 20  1  0  0  0
 19 21  2  0  0  0
  7 23  1  0  0  0
 23 24  2  0  0  0
 24 25  1  0  0  0
 25 26  2  0  0  0
 26 27  1  0  0  0
 27 28  2  0  0  0
 26 29  1  0  0  0
 29 30  2  0  0  0
 30 31  1  0  0  0
 31 32  2  0  0  0
 32 33  1  0  0  0
 33 34  2  0  0  0
 42 37  1  0  0  0
  6  1  1  0  0  0
 18 13  1  0  0  0
 28 23  1  0  0  0
 34 29  1  0  0  0
 11  4  1  0  0  0
 20 22  1  0  0  0
M  END
> <minimizedAffinity>
21.25816

> <CNNscore>
0.5797159076

> <CNNaffinity>
7.7825255394

> <CNN_VS>
4.5116539001

> <CNNaffinity_variance>
0.4578358531

$$$$
[H]OC(=O)c1c([H])c([H])c(N2C(=O)N(c3c([H])c([H])c(-c4c([H])c([H])c([H])c([H])c4[H])c([H])c3[H])C3(C2=O)C([H])([H])C([H])([H])N(C([H])([H])c2nc([H])c([H])c([H])c2C([H])([H])[H])C([H])([H])C3([H])[H])c([H])c1[H]


 42 47  0  0  0  0  0  0  0  0999 V2000
   13.0201   26.4237   -4.2153 N   0  0  0  0  0  0  0  0  0  0  0  0
   13.8886   25.1893   -4.2047 C   0  0  0  0  0  0  0  0  0  0  0  0
   13.3956   24.2074   -3.2249 C   0  0  0  0  0  0  0  0  0  0  0  0
   13.5424   24.8048   -1.8228 C   0  0  0  0  0  0  0  0  0  0  0  0
   12.9052   26.1228   -1.8219 C   0  0  0  0  0  0  0  0  0  0  0  0
   13.2175   27.0375   -2.9981 C   0  0  0  0  0  0  0  0  0  0  0  0
   12.9984   23.8737   -0.9323 N   0  0  0  0  0  0  0  0  0  0  0  0
   13.8604   23.9122    0.2700 C   0  0  0  0  0  0  0  0  0  0  0  0
   13.4722   23.4901    1.3706 O   0  0  0  0  0  0  0  0  0  0  0  0
   15.1080   24.4791   -0.0817 N   0  0  0  0  0  0  0  0  0  0  0  0
   14.9929   24.8195   -1.4536 C   0  0  0  0  0  0  0  0  0  0  0  0
   15.9968   25.0711   -2.1526 O   0  0  0  0  0  0  0  0  0  0  0  0
   16.3028   24.5245    0.7099 C   0  0  0  0  0  0  0  0  0  0  0  0
   16.7605   25.6689    1.2804 C   0  0  0  0  0  0  0  0  0  0  0  0
   17.9933   25.6235    1.9406 C   0  0  0  0  0  0  0  0  0  0  0  0
   18.7330   24.4538    2.0233 C   0  0  0  0  0  0  0  0  0  0  0  0
   18.2680   23.3003    1.4500 C   0  0  0  0  0  0  0  0  0  0  0  0
   17.0544   23.3623    0.7904 C   0  0  0  0  0  0  0  0  0  0  0  0
   20.0685   24.4125    2.6516 C   0  0  0  0  0  0  0  0  0  0  0  0
   20.0943   24.4050    4.0627 O   0  0  0  0  0  0  0  0  0  0  0  0
   21.1334   24.3833    2.0472 O   0  0  0  0  0  0  0  0  0  0  0  0
   20.9175   24.7196    4.5734 H   0  0  0  0  0  0  0  0  0  0  0  0
   11.9600   22.8738   -0.9122 C   0  0  0  0  0  0  0  0  0  0  0  0
   10.8095   23.1971   -0.1685 C   0  0  0  0  0  0  0  0  0  0  0  0
    9.6579   22.4663   -0.1889 C   0  0  0  0  0  0  0  0  0  0  0  0
    9.5903   21.3632   -0.9698 C   0  0  0  0  0  0  0  0  0  0  0  0
   10.7150   21.0057   -1.7223 C   0  0  0  0  0  0  0  0  0  0  0  0
   11.8891   21.7753   -1.6756 C   0  0  0  0  0  0  0  0  0  0  0  0
    8.2809   20.7354   -1.1905 C   0  0  0  0  0  0  0  0  0  0  0  0
    7.3247   21.0045   -0.1895 C   0  0  0  0  0  0  0  0  0  0  0  0
    6.0199   20.4762   -0.3647 C   0  0  0  0  0  0  0  0  0  0  0  0
    5.6893   19.7236   -1.4558 C   0  0  0  0  0  0  0  0  0  0  0  0
    6.6662   19.4784   -2.4270 C   0  0  0  0  0  0  0  0  0  0  0  0
    7.9729   20.0045   -2.2754 C   0  0  0  0  0  0  0  0  0  0  0  0
   13.3172   27.0227   -5.4415 C   0  0  0  0  0  0  0  0  0  0  0  0
   15.8369   28.2331   -5.0309 C   0  0  0  0  0  0  0  0  0  0  0  0
   15.6864   27.2737   -6.1587 C   0  0  0  0  0  0  0  0  0  0  0  0
   16.7055   27.0397   -7.0369 C   0  0  0  0  0  0  0  0  0  0  0  0
   16.5592   26.1157   -8.0556 C   0  0  0  0  0  0  0  0  0  0  0  0
   15.3284   25.4574   -8.1027 C   0  0  0  0  0  0  0  0  0  0  0  0
   14.3697   25.7079   -7.2354 N   0  0  0  0  0  0  0  0  0  0  0  0
   14.4602   26.6012   -6.2354 C   0  0  0  0  0  0  0  0  0  0  0  0
 36 37  1  0  0  0
 37 38  2  0  0  0
 38 39  1  0  0  0
 39 40  2  0  0  0
 40 41  1  0  0  0
 41 42  2  0  0  0
 42 35  1  0  0  0
 35  1  1  0  0  0
  1  2  1  0  0  0
  2  3  1  0  0  0
  3  4  1  0  0  0
  4  5  1  0  0  0
  5  6  1  0  0  0
  4  7  1  0  0  0
  7  8  1  0  0  0
  8  9  2  0  0  0
  8 10  1  0  0  0
 10 11  1  0  0  0
 11 12  2  0  0  0
 10 13  1  0  0  0
 13 14  2  0  0  0
 14 15  1  0  0  0
 15 16  2  0  0  0
 16 17  1  0  0  0
 17 18  2  0  0  0
 16 19  1  0  0  0
 19 20  1  0  0  0
 19 21  2  0  0  0
  7 23  1  0  0  0
 23 24  2  0  0  0
 24 25  1  0  0  0
 25 26  2  0  0  0
 26 27  1  0  0  0
 27 28  2  0  0  0
 26 29  1  0  0  0
 29 30  2  0  0  0
 30 31  1  0  0  0
 31 32  2  0  0  0
 32 33  1  0  0  0
 33 34  2  0  0  0
 42 37  1  0  0  0
  6  1  1  0  0  0
 18 13  1  0  0  0
 28 23  1  0  0  0
 34 29  1  0  0  0
 11  4  1  0  0  0
 20 22  1  0  0  0
M  END
> <minimizedAffinity>
13.74142

> <CNNscore>
0.5770848393

> <CNNaffinity>
7.9103498459

> <CNN_VS>
4.5649428368

> <CNNaffinity_variance>
0.6806839705

$$$$
[H]OC(=O)c1c([H])c([H])c(N2C(=O)N(c3c([H])c([H])c(-c4c([H])c([H])c([H])c([H])c4[H])c([H])c3[H])C3(C2=O)C([H])([H])C([H])([H])N(C([H])([H])c2nc([H])c([H])c([H])c2C([H])([H])[H])C([H])([H])C3([H])[H])c([H])c1[H]


 42 47  0  0  0  0  0  0  0  0999 V2000
   13.1142   26.7507   -4.4207 N   0  0  0  0  0  0  0  0  0  0  0  0
   13.6898   25.3555   -4.4287 C   0  0  0  0  0  0  0  0  0  0  0  0
   13.0669   24.5233   -3.3863 C   0  0  0  0  0  0  0  0  0  0  0  0
   13.4432   25.0970   -2.0175 C   0  0  0  0  0  0  0  0  0  0  0  0
   13.1117   26.5230   -2.0165 C   0  0  0  0  0  0  0  0  0  0  0  0
   13.5297   27.3262   -3.2402 C   0  0  0  0  0  0  0  0  0  0  0  0
   12.7752   24.3241   -1.0625 N   0  0  0  0  0  0  0  0  0  0  0  0
   13.7103   24.1917    0.0769 C   0  0  0  0  0  0  0  0  0  0  0  0
   13.3208   23.8842    1.2144 O   0  0  0  0  0  0  0  0  0  0  0  0
   15.0226   24.4633   -0.3768 N   0  0  0  0  0  0  0  0  0  0  0  0
   14.8847   24.7975   -1.7480 C   0  0  0  0  0  0  0  0  0  0  0  0
   15.8654   24.8095   -2.5212 O   0  0  0  0  0  0  0  0  0  0  0  0
   16.2531   24.2572    0.3302 C   0  0  0  0  0  0  0  0  0  0  0  0
   16.4141   23.2685    1.2473 C   0  0  0  0  0  0  0  0  0  0  0  0
   17.6189   23.2245    1.9575 C   0  0  0  0  0  0  0  0  0  0  0  0
   18.6278   24.1500    1.7390 C   0  0  0  0  0  0  0  0  0  0  0  0
   18.4644   25.1441    0.8114 C   0  0  0  0  0  0  0  0  0  0  0  0
   17.2645   25.1832    0.1256 C   0  0  0  0  0  0  0  0  0  0  0  0
   19.8714   24.1580    2.5350 C   0  0  0  0  0  0  0  0  0  0  0  0
   19.7152   24.2273    3.9359 O   0  0  0  0  0  0  0  0  0  0  0  0
   21.0054   24.1083    2.0749 O   0  0  0  0  0  0  0  0  0  0  0  0
   20.4644   24.5786    4.5300 H   0  0  0  0  0  0  0  0  0  0  0  0
   11.5474   23.5785   -0.9395 C   0  0  0  0  0  0  0  0  0  0  0  0
   11.6845   22.2207   -0.5948 C   0  0  0  0  0  0  0  0  0  0  0  0
   10.6413   21.4121   -0.2508 C   0  0  0  0  0  0  0  0  0  0  0  0
    9.3894   21.9254   -0.2247 C   0  0  0  0  0  0  0  0  0  0  0  0
    9.2105   23.2713   -0.5648 C   0  0  0  0  0  0  0  0  0  0  0  0
   10.3043   24.0773   -0.9208 C   0  0  0  0  0  0  0  0  0  0  0  0
    8.3164   21.1345    0.3921 C   0  0  0  0  0  0  0  0  0  0  0  0
    7.9458   21.5559    1.6858 C   0  0  0  0  0  0  0  0  0  0  0  0
    6.8772   20.8727    2.3212 C   0  0  0  0  0  0  0  0  0  0  0  0
    6.2266   19.8348    1.7166 C   0  0  0  0  0  0  0  0  0  0  0  0
    6.6241   19.4461    0.4326 C   0  0  0  0  0  0  0  0  0  0  0  0
    7.6831   20.1213   -0.2231 C   0  0  0  0  0  0  0  0  0  0  0  0
   13.4447   27.2486   -5.6830 C   0  0  0  0  0  0  0  0  0  0  0  0
   16.0471   28.2734   -5.2836 C   0  0  0  0  0  0  0  0  0  0  0  0
   15.8339   27.2856   -6.3761 C   0  0  0  0  0  0  0  0  0  0  0  0
   16.8409   26.9387   -7.2305 C   0  0  0  0  0  0  0  0  0  0  0  0
   16.6336   25.9901   -8.2154 C   0  0  0  0  0  0  0  0  0  0  0  0
   15.3554   25.4286   -8.2546 C   0  0  0  0  0  0  0  0  0  0  0  0
   14.4100   25.7868   -7.4109 N   0  0  0  0  0  0  0  0  0  0  0  0
   14.5595   26.7085   -6.4443 C   0  0  0  0  0  0  0  0  0  0  0  0
 36 37  1  0  0  0
 37 38  2  0  0  0
 38 39  1  0  0  0
 39 40  2  0  0  0
 40 41  1  0  0  0
 41 42  2  0  0  0
 42 35  1  0  0  0
 35  1  1  0  0  0
  1  2  1  0  0  0
  2  3  1  0  0  0
  3  4  1  0  0  0
  4  5  1  0  0  0
  5  6  1  0  0  0
  4  7  1  0  0  0
  7  8  1  0  0  0
  8  9  2  0  0  0
  8 10  1  0  0  0
 10 11  1  0  0  0
 11 12  2  0  0  0
 10 13  1  0  0  0
 13 14  2  0  0  0
 14 15  1  0  0  0
 15 16  2  0  0  0
 16 17  1  0  0  0
 17 18  2  0  0  0
 16 19  1  0  0  0
 19 20  1  0  0  0
 19 21  2  0  0  0
  7 23  1  0  0  0
 23 24  2  0  0  0
 24 25  1  0  0  0
 25 26  2  0  0  0
 26 27  1  0  0  0
 27 28  2  0  0  0
 26 29  1  0  0  0
 29 30  2  0  0  0
 30 31  1  0  0  0
 31 32  2  0  0  0
 32 33  1  0  0  0
 33 34  2  0  0  0
 42 37  1  0  0  0
  6  1  1  0  0  0
 18 13  1  0  0  0
 28 23  1  0  0  0
 34 29  1  0  0  0
 11  4  1  0  0  0
 20 22  1  0  0  0
M  END
> <minimizedAffinity>
15.00688

> <CNNscore>
0.5438923240

> <CNNaffinity>
7.7022104263

> <CNN_VS>
4.1891732216

> <CNNaffinity_variance>
0.7351183891

$$$$
[H]OC(=O)c1c([H])c([H])c(N2C(=O)N(c3c([H])c([H])c(-c4c([H])c([H])c([H])c([H])c4[H])c([H])c3[H])C3(C2=O)C([H])([H])C([H])([H])N(C([H])([H])c2nc([H])c([H])c([H])c2C([H])([H])[H])C([H])([H])C3([H])[H])c([H])c1[H]


 42 47  0  0  0  0  0  0  0  0999 V2000
   11.8753   26.8688   -3.2589 N   0  0  0  0  0  0  0  0  0  0  0  0
   12.7476   25.7199   -3.7031 C   0  0  0  0  0  0  0  0  0  0  0  0
   12.4427   24.5007   -2.9366 C   0  0  0  0  0  0  0  0  0  0  0  0
   12.8217   24.7401   -1.4725 C   0  0  0  0  0  0  0  0  0  0  0  0
   12.1782   25.9798   -1.0340 C   0  0  0  0  0  0  0  0  0  0  0  0
   12.2720   27.1726   -1.9753 C   0  0  0  0  0  0  0  0  0  0  0  0
   12.4506   23.5893   -0.7699 N   0  0  0  0  0  0  0  0  0  0  0  0
   13.5063   23.3770    0.2452 C   0  0  0  0  0  0  0  0  0  0  0  0
   13.3188   22.6751    1.2514 O   0  0  0  0  0  0  0  0  0  0  0  0
   14.6677   24.0812   -0.1510 N   0  0  0  0  0  0  0  0  0  0  0  0
   14.3138   24.7431   -1.3541 C   0  0  0  0  0  0  0  0  0  0  0  0
   15.1791   25.2147   -2.1213 O   0  0  0  0  0  0  0  0  0  0  0  0
   15.9804   23.9954    0.4197 C   0  0  0  0  0  0  0  0  0  0  0  0
   16.3669   22.9653    1.2161 C   0  0  0  0  0  0  0  0  0  0  0  0
   17.6327   23.0353    1.8084 C   0  0  0  0  0  0  0  0  0  0  0  0
   18.4790   24.1124    1.5941 C   0  0  0  0  0  0  0  0  0  0  0  0
   18.0883   25.1483    0.7881 C   0  0  0  0  0  0  0  0  0  0  0  0
   16.8305   25.0720    0.2190 C   0  0  0  0  0  0  0  0  0  0  0  0
   19.7846   24.2319    2.2731 C   0  0  0  0  0  0  0  0  0  0  0  0
   20.9222   24.2586    1.4381 O   0  0  0  0  0  0  0  0  0  0  0  0
   19.9468   24.3093    3.4847 O   0  0  0  0  0  0  0  0  0  0  0  0
   21.8394   23.9942    1.7935 H   0  0  0  0  0  0  0  0  0  0  0  0
   11.4434   22.5597   -0.8337 C   0  0  0  0  0  0  0  0  0  0  0  0
   10.4634   22.5949    0.1760 C   0  0  0  0  0  0  0  0  0  0  0  0
    9.3356   21.8277    0.1713 C   0  0  0  0  0  0  0  0  0  0  0  0
    9.1196   20.9787   -0.8602 C   0  0  0  0  0  0  0  0  0  0  0  0
   10.0728   20.9114   -1.8828 C   0  0  0  0  0  0  0  0  0  0  0  0
   11.2277   21.7101   -1.8467 C   0  0  0  0  0  0  0  0  0  0  0  0
    7.7964   20.3554   -0.9942 C   0  0  0  0  0  0  0  0  0  0  0  0
    7.5199   19.8343   -2.2751 C   0  0  0  0  0  0  0  0  0  0  0  0
    6.2817   19.1680   -2.4630 C   0  0  0  0  0  0  0  0  0  0  0  0
    5.3750   19.0362   -1.4497 C   0  0  0  0  0  0  0  0  0  0  0  0
    5.6861   19.5672   -0.1931 C   0  0  0  0  0  0  0  0  0  0  0  0
    6.9212   20.2284    0.0178 C   0  0  0  0  0  0  0  0  0  0  0  0
   11.9494   27.7677   -4.3252 C   0  0  0  0  0  0  0  0  0  0  0  0
    9.4031   28.3469   -5.4038 C   0  0  0  0  0  0  0  0  0  0  0  0
   10.2180   29.4705   -4.8667 C   0  0  0  0  0  0  0  0  0  0  0  0
    9.7989   30.7663   -4.9653 C   0  0  0  0  0  0  0  0  0  0  0  0
   10.5522   31.7931   -4.4257 C   0  0  0  0  0  0  0  0  0  0  0  0
   11.7311   31.4060   -3.7849 C   0  0  0  0  0  0  0  0  0  0  0  0
   12.1011   30.1446   -3.7073 N   0  0  0  0  0  0  0  0  0  0  0  0
   11.4094   29.1138   -4.2224 C   0  0  0  0  0  0  0  0  0  0  0  0
 36 37  1  0  0  0
 37 38  2  0  0  0
 38 39  1  0  0  0
 39 40  2  0  0  0
 40 41  1  0  0  0
 41 42  2  0  0  0
 42 35  1  0  0  0
 35  1  1  0  0  0
  1  2  1  0  0  0
  2  3  1  0  0  0
  3  4  1  0  0  0
  4  5  1  0  0  0
  5  6  1  0  0  0
  4  7  1  0  0  0
  7  8  1  0  0  0
  8  9  2  0  0  0
  8 10  1  0  0  0
 10 11  1  0  0  0
 11 12  2  0  0  0
 10 13  1  0  0  0
 13 14  2  0  0  0
 14 15  1  0  0  0
 15 16  2  0  0  0
 16 17  1  0  0  0
 17 18  2  0  0  0
 16 19  1  0  0  0
 19 20  1  0  0  0
 19 21  2  0  0  0
  7 23  1  0  0  0
 23 24  2  0  0  0
 24 25  1  0  0  0
 25 26  2  0  0  0
 26 27  1  0  0  0
 27 28  2  0  0  0
 26 29  1  0  0  0
 29 30  2  0  0  0
 30 31  1  0  0  0
 31 32  2  0  0  0
 32 33  1  0  0  0
 33 34  2  0  0  0
 42 37  1  0  0  0
  6  1  1  0  0  0
 18 13  1  0  0  0
 28 23  1  0  0  0
 34 29  1  0  0  0
 11  4  1  0  0  0
 20 22  1  0  0  0
M  END
> <minimizedAffinity>
26.00101

> <CNNscore>
0.5425720811

> <CNNaffinity>
7.4415693283

> <CNN_VS>
4.0375876427

> <CNNaffinity_variance>
0.6655821204

$$$$
[H]OC(=O)c1c([H])c([H])c(N2C(=O)N(c3c([H])c([H])c(-c4c([H])c([H])c([H])c([H])c4[H])c([H])c3[H])C3(C2=O)C([H])([H])C([H])([H])N(C([H])([H])c2nc([H])c([H])c([H])c2C([H])([H])[H])C([H])([H])C3([H])[H])c([H])c1[H]


 42 47  0  0  0  0  0  0  0  0999 V2000
   16.0491   22.5728    1.4986 N   0  0  0  0  0  0  0  0  0  0  0  0
   15.8690   24.0608    1.3214 C   0  0  0  0  0  0  0  0  0  0  0  0
   14.4760   24.3845    0.9727 C   0  0  0  0  0  0  0  0  0  0  0  0
   14.1672   23.7837   -0.4014 C   0  0  0  0  0  0  0  0  0  0  0  0
   14.5329   22.3665   -0.3697 C   0  0  0  0  0  0  0  0  0  0  0  0
   15.8794   22.0183    0.2492 C   0  0  0  0  0  0  0  0  0  0  0  0
   12.8193   24.0509   -0.6611 N   0  0  0  0  0  0  0  0  0  0  0  0
   12.7373   24.3484   -2.1085 C   0  0  0  0  0  0  0  0  0  0  0  0
   11.6683   24.2760   -2.7347 O   0  0  0  0  0  0  0  0  0  0  0  0
   14.0251   24.7041   -2.5742 N   0  0  0  0  0  0  0  0  0  0  0  0
   14.8789   24.5822   -1.4485 C   0  0  0  0  0  0  0  0  0  0  0  0
   16.0179   25.0942   -1.4317 O   0  0  0  0  0  0  0  0  0  0  0  0
   14.3716   25.2596   -3.8500 C   0  0  0  0  0  0  0  0  0  0  0  0
   13.7052   26.3088   -4.3975 C   0  0  0  0  0  0  0  0  0  0  0  0
   14.0549   26.7014   -5.6942 C   0  0  0  0  0  0  0  0  0  0  0  0
   15.0516   26.0538   -6.4079 C   0  0  0  0  0  0  0  0  0  0  0  0
   15.7243   24.9981   -5.8525 C   0  0  0  0  0  0  0  0  0  0  0  0
   15.3605   24.6130   -4.5754 C   0  0  0  0  0  0  0  0  0  0  0  0
   15.3765   26.4112   -7.8031 C   0  0  0  0  0  0  0  0  0  0  0  0
   16.2152   27.5323   -7.9810 O   0  0  0  0  0  0  0  0  0  0  0  0
   14.9791   25.8149   -8.7964 O   0  0  0  0  0  0  0  0  0  0  0  0
   16.2148   28.0533   -8.8563 H   0  0  0  0  0  0  0  0  0  0  0  0
   11.5874   24.2124    0.0701 C   0  0  0  0  0  0  0  0  0  0  0  0
   10.6836   23.1357   -0.0023 C   0  0  0  0  0  0  0  0  0  0  0  0
    9.5633   23.0272    0.7681 C   0  0  0  0  0  0  0  0  0  0  0  0
    9.2862   23.9976    1.6698 C   0  0  0  0  0  0  0  0  0  0  0  0
   10.1587   25.0874    1.7699 C   0  0  0  0  0  0  0  0  0  0  0  0
   11.3016   25.1738    0.9581 C   0  0  0  0  0  0  0  0  0  0  0  0
    8.2370   23.7527    2.6682 C   0  0  0  0  0  0  0  0  0  0  0  0
    7.6908   22.4529    2.6390 C   0  0  0  0  0  0  0  0  0  0  0  0
    6.7110   22.1273    3.6118 C   0  0  0  0  0  0  0  0  0  0  0  0
    6.2947   23.0341    4.5448 C   0  0  0  0  0  0  0  0  0  0  0  0
    6.8605   24.3138    4.5407 C   0  0  0  0  0  0  0  0  0  0  0  0
    7.8471   24.6563    3.5834 C   0  0  0  0  0  0  0  0  0  0  0  0
   17.2305   22.4714    2.2366 C   0  0  0  0  0  0  0  0  0  0  0  0
   18.1044   23.3136   -0.3148 C   0  0  0  0  0  0  0  0  0  0  0  0
   18.8378   23.8043    0.8836 C   0  0  0  0  0  0  0  0  0  0  0  0
   19.9613   24.5715    0.7676 C   0  0  0  0  0  0  0  0  0  0  0  0
   20.6069   25.0500    1.8934 C   0  0  0  0  0  0  0  0  0  0  0  0
   20.0274   24.7033    3.1158 C   0  0  0  0  0  0  0  0  0  0  0  0
   18.9406   23.9632    3.1878 N   0  0  0  0  0  0  0  0  0  0  0  0
   18.2833   23.4681    2.1251 C   0  0  0  0  0  0  0  0  0  0  0  0
 36 37  1  0  0  0
 37 38  2  0  0  0
 38 39  1  0  0  0
 39 40  2  0  0  0
 40 41  1  0  0  0
 41 42  2  0  0  0
 42 35  1  0  0  0
 35  1  1  0  0  0
  1  2  1  0  0  0
  2  3  1  0  0  0
  3  4  1  0  0  0
  4  5  1  0  0  0
  5  6  1  0  0  0
  4  7  1  0  0  0
  7  8  1  0  0  0
  8  9  2  0  0  0
  8 10  1  0  0  0
 10 11  1  0  0  0
 11 12  2  0  0  0
 10 13  1  0  0  0
 13 14  2  0  0  0
 14 15  1  0  0  0
 15 16  2  0  0  0
 16 17  1  0  0  0
 17 18  2  0  0  0
 16 19  1  0  0  0
 19 20  1  0  0  0
 19 21  2  0  0  0
  7 23  1  0  0  0
 23 24  2  0  0  0
 24 25  1  0  0  0
 25 26  2  0  0  0
 26 27  1  0  0  0
 27 28  2  0  0  0
 26 29  1  0  0  0
 29 30  2  0  0  0
 30 31  1  0  0  0
 31 32  2  0  0  0
 32 33  1  0  0  0
 33 34  2  0  0  0
 42 37  1  0  0  0
  6  1  1  0  0  0
 18 13  1  0  0  0
 28 23  1  0  0  0
 34 29  1  0  0  0
 11  4  1  0  0  0
 20 22  1  0  0  0
M  END
> <minimizedAffinity>
18.37546

> <CNNscore>
0.5417477489

> <CNNaffinity>
7.5968408585

> <CNN_VS>
4.1155714989

> <CNNaffinity_variance>
0.5230712891

$$$$
[H]OC(=O)c1c([H])c([H])c(N2C(=O)N(c3c([H])c([H])c(-c4c([H])c([H])c([H])c([H])c4[H])c([H])c3[H])C3(C2=O)C([H])([H])C([H])([H])N(C([H])([H])c2nc([H])c([H])c([H])c2C([H])([H])[H])C([H])([H])C3([H])[H])c([H])c1[H]


 42 47  0  0  0  0  0  0  0  0999 V2000
   10.6159   28.5475   -4.3012 N   0  0  0  0  0  0  0  0  0  0  0  0
   11.3158   27.3873   -4.9662 C   0  0  0  0  0  0  0  0  0  0  0  0
   11.6999   26.3673   -3.9768 C   0  0  0  0  0  0  0  0  0  0  0  0
   12.7462   26.9723   -3.0367 C   0  0  0  0  0  0  0  0  0  0  0  0
   12.2152   28.2345   -2.5189 C   0  0  0  0  0  0  0  0  0  0  0  0
   11.5688   29.1733   -3.5281 C   0  0  0  0  0  0  0  0  0  0  0  0
   13.0287   25.9990   -2.0732 N   0  0  0  0  0  0  0  0  0  0  0  0
   14.4801   26.1051   -1.8044 C   0  0  0  0  0  0  0  0  0  0  0  0
   14.9915   25.6512   -0.7687 O   0  0  0  0  0  0  0  0  0  0  0  0
   15.0970   26.7715   -2.8893 N   0  0  0  0  0  0  0  0  0  0  0  0
   14.0411   27.1036   -3.7758 C   0  0  0  0  0  0  0  0  0  0  0  0
   14.2598   27.4366   -4.9595 O   0  0  0  0  0  0  0  0  0  0  0  0
   16.5008   26.9121   -3.1460 C   0  0  0  0  0  0  0  0  0  0  0  0
   17.4417   26.1851   -2.4896 C   0  0  0  0  0  0  0  0  0  0  0  0
   18.7869   26.4787   -2.7387 C   0  0  0  0  0  0  0  0  0  0  0  0
   19.1631   27.4731   -3.6285 C   0  0  0  0  0  0  0  0  0  0  0  0
   18.2125   28.2026   -4.2916 C   0  0  0  0  0  0  0  0  0  0  0  0
   16.8873   27.9103   -4.0270 C   0  0  0  0  0  0  0  0  0  0  0  0
   20.5768   27.8416   -3.8420 C   0  0  0  0  0  0  0  0  0  0  0  0
   21.5370   26.8820   -3.4558 O   0  0  0  0  0  0  0  0  0  0  0  0
   20.9671   28.8988   -4.3219 O   0  0  0  0  0  0  0  0  0  0  0  0
   22.4938   27.1560   -3.2388 H   0  0  0  0  0  0  0  0  0  0  0  0
   12.3558   24.9184   -1.3964 C   0  0  0  0  0  0  0  0  0  0  0  0
   11.9484   25.1796   -0.0746 C   0  0  0  0  0  0  0  0  0  0  0  0
   11.1389   24.3557    0.6509 C   0  0  0  0  0  0  0  0  0  0  0  0
   10.6805   23.2152    0.0846 C   0  0  0  0  0  0  0  0  0  0  0  0
   11.0660   22.9173   -1.2275 C   0  0  0  0  0  0  0  0  0  0  0  0
   11.9060   23.7831   -1.9471 C   0  0  0  0  0  0  0  0  0  0  0  0
    9.6119   22.4713    0.7643 C   0  0  0  0  0  0  0  0  0  0  0  0
    9.3731   22.8714    2.0953 C   0  0  0  0  0  0  0  0  0  0  0  0
    8.3173   22.2340    2.7963 C   0  0  0  0  0  0  0  0  0  0  0  0
    7.5558   21.2586    2.2177 C   0  0  0  0  0  0  0  0  0  0  0  0
    7.8241   20.8892    0.8951 C   0  0  0  0  0  0  0  0  0  0  0  0
    8.8684   21.5198    0.1745 C   0  0  0  0  0  0  0  0  0  0  0  0
    9.9419   29.1705   -5.3539 C   0  0  0  0  0  0  0  0  0  0  0  0
    8.2404   30.4984   -3.5308 C   0  0  0  0  0  0  0  0  0  0  0  0
    7.6291   29.5889   -4.5378 C   0  0  0  0  0  0  0  0  0  0  0  0
    6.2899   29.3223   -4.5381 C   0  0  0  0  0  0  0  0  0  0  0  0
    5.7347   28.5048   -5.5058 C   0  0  0  0  0  0  0  0  0  0  0  0
    6.6260   28.0008   -6.4555 C   0  0  0  0  0  0  0  0  0  0  0  0
    7.9119   28.2829   -6.4243 N   0  0  0  0  0  0  0  0  0  0  0  0
    8.4993   29.0632   -5.5012 C   0  0  0  0  0  0  0  0  0  0  0  0
 36 37  1  0  0  0
 37 38  2  0  0  0
 38 39  1  0  0  0
 39 40  2  0  0  0
 40 41  1  0  0  0
 41 42  2  0  0  0
 42 35  1  0  0  0
 35  1  1  0  0  0
  1  2  1  0  0  0
  2  3  1  0  0  0
  3  4  1  0  0  0
  4  5  1  0  0  0
  5  6  1  0  0  0
  4  7  1  0  0  0
  7  8  1  0  0  0
  8  9  2  0  0  0
  8 10  1  0  0  0
 10 11  1  0  0  0
 11 12  2  0  0  0
 10 13  1  0  0  0
 13 14  2  0  0  0
 14 15  1  0  0  0
 15 16  2  0  0  0
 16 17  1  0  0  0
 17 18  2  0  0  0
 16 19  1  0  0  0
 19 20  1  0  0  0
 19 21  2  0  0  0
  7 23  1  0  0  0
 23 24  2  0  0  0
 24 25  1  0  0  0
 25 26  2  0  0  0
 26 27  1  0  0  0
 27 28  2  0  0  0
 26 29  1  0  0  0
 29 30  2  0  0  0
 30 31  1  0  0  0
 31 32  2  0  0  0
 32 33  1  0  0  0
 33 34  2  0  0  0
 42 37  1  0  0  0
  6  1  1  0  0  0
 18 13  1  0  0  0
 28 23  1  0  0  0
 34 29  1  0  0  0
 11  4  1  0  0  0
 20 22  1  0  0  0
M  END
> <minimizedAffinity>
30.42403

> <CNNscore>
0.5405377150

> <CNNaffinity>
7.1709465981

> <CNN_VS>
3.8761670589

> <CNNaffinity_variance>
0.6181995273

$$$$
[H]OC(=O)c1c([H])c([H])c(N2C(=O)N(c3c([H])c([H])c(-c4c([H])c([H])c([H])c([H])c4[H])c([H])c3[H])C3(C2=O)C([H])([H])C([H])([H])N(C([H])([H])c2nc([H])c([H])c([H])c2C([H])([H])[H])C([H])([H])C3([H])[H])c([H])c1[H]


 42 47  0  0  0  0  0  0  0  0999 V2000
   15.0378   24.0560   -4.4673 N   0  0  0  0  0  0  0  0  0  0  0  0
   14.3033   25.0425   -3.5925 C   0  0  0  0  0  0  0  0  0  0  0  0
   14.6280   24.8302   -2.1724 C   0  0  0  0  0  0  0  0  0  0  0  0
   14.0949   23.4577   -1.7523 C   0  0  0  0  0  0  0  0  0  0  0  0
   14.5959   22.4652   -2.7048 C   0  0  0  0  0  0  0  0  0  0  0  0
   14.4992   22.8208   -4.1819 C   0  0  0  0  0  0  0  0  0  0  0  0
   14.4861   23.2662   -0.4234 N   0  0  0  0  0  0  0  0  0  0  0  0
   13.3589   22.5679    0.2336 C   0  0  0  0  0  0  0  0  0  0  0  0
   13.5044   21.9361    1.2919 O   0  0  0  0  0  0  0  0  0  0  0  0
   12.1890   22.7655   -0.5371 N   0  0  0  0  0  0  0  0  0  0  0  0
   12.6026   23.5269   -1.6597 C   0  0  0  0  0  0  0  0  0  0  0  0
   11.7797   24.1210   -2.3875 O   0  0  0  0  0  0  0  0  0  0  0  0
   10.8389   22.4440   -0.1764 C   0  0  0  0  0  0  0  0  0  0  0  0
   10.0718   23.2603    0.5917 C   0  0  0  0  0  0  0  0  0  0  0  0
    8.8070   22.8003    0.9745 C   0  0  0  0  0  0  0  0  0  0  0  0
    8.3355   21.5560    0.5852 C   0  0  0  0  0  0  0  0  0  0  0  0
    9.1095   20.7361   -0.1920 C   0  0  0  0  0  0  0  0  0  0  0  0
   10.3617   21.1980   -0.5529 C   0  0  0  0  0  0  0  0  0  0  0  0
    7.0346   21.0306    1.0453 C   0  0  0  0  0  0  0  0  0  0  0  0
    6.2326   21.9181    1.7943 O   0  0  0  0  0  0  0  0  0  0  0  0
    6.6104   19.9026    0.8260 O   0  0  0  0  0  0  0  0  0  0  0  0
    5.5162   21.5688    2.4285 H   0  0  0  0  0  0  0  0  0  0  0  0
   15.5717   23.6375    0.4496 C   0  0  0  0  0  0  0  0  0  0  0  0
   16.3480   22.5759    0.9512 C   0  0  0  0  0  0  0  0  0  0  0  0
   17.5191   22.7420    1.6305 C   0  0  0  0  0  0  0  0  0  0  0  0
   17.9877   23.9939    1.8413 C   0  0  0  0  0  0  0  0  0  0  0  0
   17.2427   25.0772    1.3613 C   0  0  0  0  0  0  0  0  0  0  0  0
   16.0368   24.8742    0.6702 C   0  0  0  0  0  0  0  0  0  0  0  0
   19.3614   24.1582    2.3347 C   0  0  0  0  0  0  0  0  0  0  0  0
   19.4837   24.1641    3.7396 C   0  0  0  0  0  0  0  0  0  0  0  0
   20.7884   24.2632    4.2876 C   0  0  0  0  0  0  0  0  0  0  0  0
   21.8963   24.3593    3.4941 C   0  0  0  0  0  0  0  0  0  0  0  0
   21.7333   24.3504    2.1045 C   0  0  0  0  0  0  0  0  0  0  0  0
   20.4396   24.2431    1.5370 C   0  0  0  0  0  0  0  0  0  0  0  0
   14.9953   24.6454   -5.7328 C   0  0  0  0  0  0  0  0  0  0  0  0
   15.7549   25.5967   -8.2823 C   0  0  0  0  0  0  0  0  0  0  0  0
   15.7941   26.5409   -7.1325 C   0  0  0  0  0  0  0  0  0  0  0  0
   16.2672   27.8142   -7.2710 C   0  0  0  0  0  0  0  0  0  0  0  0
   16.2596   28.6889   -6.1997 C   0  0  0  0  0  0  0  0  0  0  0  0
   15.7359   28.1814   -5.0086 C   0  0  0  0  0  0  0  0  0  0  0  0
   15.2857   26.9476   -4.9142 N   0  0  0  0  0  0  0  0  0  0  0  0
   15.2800   26.0586   -5.9222 C   0  0  0  0  0  0  0  0  0  0  0  0
 36 37  1  0  0  0
 37 38  2  0  0  0
 38 39  1  0  0  0
 39 40  2  0  0  0
 40 41  1  0  0  0
 41 42  2  0  0  0
 42 35  1  0  0  0
 35  1  1  0  0  0
  1  2  1  0  0  0
  2  3  1  0  0  0
  3  4  1  0  0  0
  4  5  1  0  0  0
  5  6  1  0  0  0
  4  7  1  0  0  0
  7  8  1  0  0  0
  8  9  2  0  0  0
  8 10  1  0  0  0
 10 11  1  0  0  0
 11 12  2  0  0  0
 10 13  1  0  0  0
 13 14  2  0  0  0
 14 15  1  0  0  0
 15 16  2  0  0  0
 16 17  1  0  0  0
 17 18  2  0  0  0
 16 19  1  0  0  0
 19 20  1  0  0  0
 19 21  2  0  0  0
  7 23  1  0  0  0
 23 24  2  0  0  0
 24 25  1  0  0  0
 25 26  2  0  0  0
 26 27  1  0  0  0
 27 28  2  0  0  0
 26 29  1  0  0  0
 29 30  2  0  0  0
 30 31  1  0  0  0
 31 32  2  0  0  0
 32 33  1  0  0  0
 33 34  2  0  0  0
 42 37  1  0  0  0
  6  1  1  0  0  0
 18 13  1  0  0  0
 28 23  1  0  0  0
 34 29  1  0  0  0
 11  4  1  0  0  0
 20 22  1  0  0  0
M  END
> <minimizedAffinity>
21.89944

> <CNNscore>
0.5364112854

> <CNNaffinity>
8.1207447052

> <CNN_VS>
4.3560590744

> <CNNaffinity_variance>
0.6274868846

$$$$
[H]OC(=O)c1c([H])c([H])c(N2C(=O)N(c3c([H])c([H])c(-c4c([H])c([H])c([H])c([H])c4[H])c([H])c3[H])C3(C2=O)C([H])([H])C([H])([H])N(C([H])([H])c2nc([H])c([H])c([H])c2C([H])([H])[H])C([H])([H])C3([H])[H])c([H])c1[H]


 42 47  0  0  0  0  0  0  0  0999 V2000
   11.5418   22.1629   -0.1021 N   0  0  0  0  0  0  0  0  0  0  0  0
   11.9624   23.5100    0.4332 C   0  0  0  0  0  0  0  0  0  0  0  0
   12.9172   24.1633   -0.4771 C   0  0  0  0  0  0  0  0  0  0  0  0
   14.2032   23.3330   -0.5095 C   0  0  0  0  0  0  0  0  0  0  0  0
   13.8409   21.9465   -0.8089 C   0  0  0  0  0  0  0  0  0  0  0  0
   12.6620   21.3637   -0.0419 C   0  0  0  0  0  0  0  0  0  0  0  0
   15.0519   23.9459   -1.4367 N   0  0  0  0  0  0  0  0  0  0  0  0
   16.4165   23.8271   -0.8765 C   0  0  0  0  0  0  0  0  0  0  0  0
   17.4295   23.9376   -1.5848 O   0  0  0  0  0  0  0  0  0  0  0  0
   16.3188   23.5870    0.5144 N   0  0  0  0  0  0  0  0  0  0  0  0
   14.9289   23.5158    0.7868 C   0  0  0  0  0  0  0  0  0  0  0  0
   14.4841   23.6034    1.9505 O   0  0  0  0  0  0  0  0  0  0  0  0
   17.3766   23.6071    1.4823 C   0  0  0  0  0  0  0  0  0  0  0  0
   17.3550   22.8458    2.6069 C   0  0  0  0  0  0  0  0  0  0  0  0
   18.3850   23.0232    3.5371 C   0  0  0  0  0  0  0  0  0  0  0  0
   19.4052   23.9387    3.3290 C   0  0  0  0  0  0  0  0  0  0  0  0
   19.4266   24.7029    2.1928 C   0  0  0  0  0  0  0  0  0  0  0  0
   18.3963   24.5260    1.2879 C   0  0  0  0  0  0  0  0  0  0  0  0
   20.4545   24.1872    4.3376 C   0  0  0  0  0  0  0  0  0  0  0  0
   21.7519   23.7368    4.0125 O   0  0  0  0  0  0  0  0  0  0  0  0
   20.2823   24.7465    5.4137 O   0  0  0  0  0  0  0  0  0  0  0  0
   22.4383   23.5465    4.7406 H   0  0  0  0  0  0  0  0  0  0  0  0
   14.9525   24.7085   -2.6562 C   0  0  0  0  0  0  0  0  0  0  0  0
   15.9721   25.6539   -2.8750 C   0  0  0  0  0  0  0  0  0  0  0  0
   16.1496   26.3264   -4.0484 C   0  0  0  0  0  0  0  0  0  0  0  0
   15.3117   26.0814   -5.0824 C   0  0  0  0  0  0  0  0  0  0  0  0
   14.2820   25.1504   -4.9037 C   0  0  0  0  0  0  0  0  0  0  0  0
   14.1211   24.4781   -3.6809 C   0  0  0  0  0  0  0  0  0  0  0  0
   15.6601   26.6037   -6.4103 C   0  0  0  0  0  0  0  0  0  0  0  0
   15.6226   25.6471   -7.4457 C   0  0  0  0  0  0  0  0  0  0  0  0
   15.8938   26.0923   -8.7651 C   0  0  0  0  0  0  0  0  0  0  0  0
   16.1913   27.3977   -9.0367 C   0  0  0  0  0  0  0  0  0  0  0  0
   16.2189   28.3165   -7.9819 C   0  0  0  0  0  0  0  0  0  0  0  0
   15.9422   27.8941   -6.6583 C   0  0  0  0  0  0  0  0  0  0  0  0
   10.3588   21.8908    0.5886 C   0  0  0  0  0  0  0  0  0  0  0  0
   12.4923   20.3902    1.6741 C   0  0  0  0  0  0  0  0  0  0  0  0
   11.3292   20.7037    2.5480 C   0  0  0  0  0  0  0  0  0  0  0  0
   11.2382   20.2111    3.8182 C   0  0  0  0  0  0  0  0  0  0  0  0
   10.1681   20.5452    4.6283 C   0  0  0  0  0  0  0  0  0  0  0  0
    9.2266   21.4069    4.0614 C   0  0  0  0  0  0  0  0  0  0  0  0
    9.3501   21.8642    2.8328 N   0  0  0  0  0  0  0  0  0  0  0  0
   10.3649   21.5622    2.0050 C   0  0  0  0  0  0  0  0  0  0  0  0
 36 37  1  0  0  0
 37 38  2  0  0  0
 38 39  1  0  0  0
 39 40  2  0  0  0
 40 41  1  0  0  0
 41 42  2  0  0  0
 42 35  1  0  0  0
 35  1  1  0  0  0
  1  2  1  0  0  0
  2  3  1  0  0  0
  3  4  1  0  0  0
  4  5  1  0  0  0
  5  6  1  0  0  0
  4  7  1  0  0  0
  7  8  1  0  0  0
  8  9  2  0  0  0
  8 10  1  0  0  0
 10 11  1  0  0  0
 11 12  2  0  0  0
 10 13  1  0  0  0
 13 14  2  0  0  0
 14 15  1  0  0  0
 15 16  2  0  0  0
 16 17  1  0  0  0
 17 18  2  0  0  0
 16 19  1  0  0  0
 19 20  1  0  0  0
 19 21  2  0  0  0
  7 23  1  0  0  0
 23 24  2  0  0  0
 24 25  1  0  0  0
 25 26  2  0  0  0
 26 27  1  0  0  0
 27 28  2  0  0  0
 26 29  1  0  0  0
 29 30  2  0  0  0
 30 31  1  0  0  0
 31 32  2  0  0  0
 32 33  1  0  0  0
 33 34  2  0  0  0
 42 37  1  0  0  0
  6  1  1  0  0  0
 18 13  1  0  0  0
 28 23  1  0  0  0
 34 29  1  0  0  0
 11  4  1  0  0  0
 20 22  1  0  0  0
M  END
> <minimizedAffinity>
33.13493

> <CNNscore>
0.5278506875

> <CNNaffinity>
7.7679443359

> <CNN_VS>
4.1003146172

> <CNNaffinity_variance>
0.5763096213

$$$$
[H]OC(=O)c1c([H])c([H])nc(N2C(=O)N(c3c([H])c([H])c(-c4c([H])c([H])c([H])c([H])c4[H])c([H])c3[H])C(=O)C23C([H])([H])C([H])([H])N(C([H])([H])c2nc([H])c([H])c([H])c2C([H])([H])[H])C([H])([H])C3([H])[H])c1[H]


 42 47  0  0  0  0  0  0  0  0999 V2000
   12.4375   20.6270    1.6374 N   0  0  0  0  0  0  0  0  0  0  0  0
   12.7918   21.7996    2.4712 C   0  0  0  0  0  0  0  0  0  0  0  0
   11.7395   22.8499    2.2705 C   0  0  0  0  0  0  0  0  0  0  0  0
   11.5476   23.1475    0.8244 C   0  0  0  0  0  0  0  0  0  0  0  0
   11.4348   21.9212   -0.0615 C   0  0  0  0  0  0  0  0  0  0  0  0
   12.6266   21.0419    0.2407 C   0  0  0  0  0  0  0  0  0  0  0  0
   10.3796   23.9899    0.5821 N   0  0  0  0  0  0  0  0  0  0  0  0
   10.6544   24.6445   -0.6531 C   0  0  0  0  0  0  0  0  0  0  0  0
    9.7539   25.1325   -1.4179 O   0  0  0  0  0  0  0  0  0  0  0  0
   12.0613   24.6509   -0.8624 N   0  0  0  0  0  0  0  0  0  0  0  0
   12.6314   23.9927    0.2597 C   0  0  0  0  0  0  0  0  0  0  0  0
   13.8293   24.1051    0.6932 O   0  0  0  0  0  0  0  0  0  0  0  0
   12.7580   25.2070   -1.9648 C   0  0  0  0  0  0  0  0  0  0  0  0
   12.3410   26.4105   -2.5161 C   0  0  0  0  0  0  0  0  0  0  0  0
   13.0346   26.9278   -3.5850 C   0  0  0  0  0  0  0  0  0  0  0  0
   14.1502   26.2946   -4.1485 C   0  0  0  0  0  0  0  0  0  0  0  0
   14.5446   25.1036   -3.5853 C   0  0  0  0  0  0  0  0  0  0  0  0
   13.8481   24.5809   -2.5102 C   0  0  0  0  0  0  0  0  0  0  0  0
   14.8271   26.8993   -5.2723 C   0  0  0  0  0  0  0  0  0  0  0  0
   15.0270   26.1823   -6.4227 C   0  0  0  0  0  0  0  0  0  0  0  0
   15.6834   26.7640   -7.5190 C   0  0  0  0  0  0  0  0  0  0  0  0
   16.1163   28.0624   -7.4063 C   0  0  0  0  0  0  0  0  0  0  0  0
   15.9284   28.8066   -6.2613 C   0  0  0  0  0  0  0  0  0  0  0  0
   15.2742   28.1896   -5.2021 C   0  0  0  0  0  0  0  0  0  0  0  0
    9.2024   24.1556    1.3685 C   0  0  0  0  0  0  0  0  0  0  0  0
    8.4315   23.0886    1.7761 C   0  0  0  0  0  0  0  0  0  0  0  0
    7.2818   23.2358    2.5422 C   0  0  0  0  0  0  0  0  0  0  0  0
    6.9081   24.5332    2.9032 C   0  0  0  0  0  0  0  0  0  0  0  0
    7.6907   25.5888    2.4860 C   0  0  0  0  0  0  0  0  0  0  0  0
    8.7804   25.3891    1.7560 N   0  0  0  0  0  0  0  0  0  0  0  0
    6.4792   22.1155    2.9669 C   0  0  0  0  0  0  0  0  0  0  0  0
    5.7779   22.1770    4.1503 O   0  0  0  0  0  0  0  0  0  0  0  0
    6.4141   21.0855    2.2654 O   0  0  0  0  0  0  0  0  0  0  0  0
    4.7474   22.2385    4.1310 H   0  0  0  0  0  0  0  0  0  0  0  0
   13.2403   19.5118    2.0138 C   0  0  0  0  0  0  0  0  0  0  0  0
   13.5772   19.5301   -0.8596 C   0  0  0  0  0  0  0  0  0  0  0  0
   14.7570   19.6491    0.0453 C   0  0  0  0  0  0  0  0  0  0  0  0
   16.0147   19.7837   -0.5068 C   0  0  0  0  0  0  0  0  0  0  0  0
   17.1271   19.9001    0.2946 C   0  0  0  0  0  0  0  0  0  0  0  0
   16.9504   19.8784    1.6532 C   0  0  0  0  0  0  0  0  0  0  0  0
   15.7215   19.7467    2.1390 N   0  0  0  0  0  0  0  0  0  0  0  0
   14.5969   19.6290    1.4419 C   0  0  0  0  0  0  0  0  0  0  0  0
 36 37  1  0  0  0
 37 38  2  0  0  0
 38 39  1  0  0  0
 39 40  2  0  0  0
 40 41  1  0  0  0
 41 42  2  0  0  0
 42 35  1  0  0  0
 35  1  1  0  0  0
  1  2  1  0  0  0
  2  3  1  0  0  0
  3  4  1  0  0  0
  4  5  1  0  0  0
  5  6  1  0  0  0
  4  7  1  0  0  0
  7  8  1  0  0  0
  8  9  2  0  0  0
  8 10  1  0  0  0
 10 11  1  0  0  0
 11 12  2  0  0  0
 10 13  1  0  0  0
 13 14  2  0  0  0
 14 15  1  0  0  0
 15 16  2  0  0  0
 16 17  1  0  0  0
 17 18  2  0  0  0
 16 19  1  0  0  0
 19 20  2  0  0  0
 20 21  1  0  0  0
 21 22  2  0  0  0
 22 23  1  0  0  0
 23 24  2  0  0  0
  7 25  1  0  0  0
 25 26  2  0  0  0
 26 27  1  0  0  0
 27 28  2  0  0  0
 28 29  1  0  0  0
 29 30  2  0  0  0
 27 31  1  0  0  0
 31 32  1  0  0  0
 31 33  2  0  0  0
 42 37  1  0  0  0
  6  1  1  0  0  0
 18 13  1  0  0  0
 24 19  1  0  0  0
 30 25  1  0  0  0
 11  4  1  0  0  0
 32 34  1  0  0  0
M  END
> <minimizedAffinity>
18.51120

> <CNNscore>
0.6006082892

> <CNNaffinity>
7.5574693680

> <CNN_VS>
4.5390787125

> <CNNaffinity_variance>
1.0088281631

$$$$
[H]OC(=O)c1c([H])c([H])nc(N2C(=O)N(c3c([H])c([H])c(-c4c([H])c([H])c([H])c([H])c4[H])c([H])c3[H])C(=O)C23C([H])([H])C([H])([H])N(C([H])([H])c2nc([H])c([H])c([H])c2C([H])([H])[H])C([H])([H])C3([H])[H])c1[H]


 42 47  0  0  0  0  0  0  0  0999 V2000
    7.5893   25.0819    2.2291 N   0  0  0  0  0  0  0  0  0  0  0  0
    7.4095   23.8054    1.4984 C   0  0  0  0  0  0  0  0  0  0  0  0
    8.5665   22.9102    1.8313 C   0  0  0  0  0  0  0  0  0  0  0  0
    9.8643   23.5955    1.5807 C   0  0  0  0  0  0  0  0  0  0  0  0
    9.9452   25.0096    2.1239 C   0  0  0  0  0  0  0  0  0  0  0  0
    8.7367   25.7557    1.6062 C   0  0  0  0  0  0  0  0  0  0  0  0
   10.9993   22.8427    2.1076 N   0  0  0  0  0  0  0  0  0  0  0  0
   12.1106   23.2650    1.3224 C   0  0  0  0  0  0  0  0  0  0  0  0
   13.3278   23.1771    1.7028 O   0  0  0  0  0  0  0  0  0  0  0  0
   11.6269   23.7802    0.0879 N   0  0  0  0  0  0  0  0  0  0  0  0
   10.2122   23.6643    0.1377 C   0  0  0  0  0  0  0  0  0  0  0  0
    9.4061   23.6268   -0.8543 O   0  0  0  0  0  0  0  0  0  0  0  0
   12.3990   24.2996   -0.9816 C   0  0  0  0  0  0  0  0  0  0  0  0
   12.1495   25.5769   -1.4639 C   0  0  0  0  0  0  0  0  0  0  0  0
   12.9132   26.0563   -2.5022 C   0  0  0  0  0  0  0  0  0  0  0  0
   13.9386   25.3129   -3.1012 C   0  0  0  0  0  0  0  0  0  0  0  0
   14.1672   24.0503   -2.6064 C   0  0  0  0  0  0  0  0  0  0  0  0
   13.4000   23.5656   -1.5621 C   0  0  0  0  0  0  0  0  0  0  0  0
   14.6977   25.8841   -4.1895 C   0  0  0  0  0  0  0  0  0  0  0  0
   15.3134   27.0986   -4.0364 C   0  0  0  0  0  0  0  0  0  0  0  0
   16.0534   27.6593   -5.0896 C   0  0  0  0  0  0  0  0  0  0  0  0
   16.1418   26.9610   -6.2688 C   0  0  0  0  0  0  0  0  0  0  0  0
   15.5328   25.7376   -6.4499 C   0  0  0  0  0  0  0  0  0  0  0  0
   14.8111   25.2220   -5.3805 C   0  0  0  0  0  0  0  0  0  0  0  0
   11.0425   21.8907    3.1674 C   0  0  0  0  0  0  0  0  0  0  0  0
   11.5520   20.6215    2.9984 C   0  0  0  0  0  0  0  0  0  0  0  0
   11.5996   19.6836    4.0224 C   0  0  0  0  0  0  0  0  0  0  0  0
   11.1019   20.0652    5.2713 C   0  0  0  0  0  0  0  0  0  0  0  0
   10.5953   21.3386    5.4221 C   0  0  0  0  0  0  0  0  0  0  0  0
   10.5760   22.1943    4.4083 N   0  0  0  0  0  0  0  0  0  0  0  0
   12.1349   18.3569    3.8403 C   0  0  0  0  0  0  0  0  0  0  0  0
   13.3872   18.0451    4.3205 O   0  0  0  0  0  0  0  0  0  0  0  0
   11.4675   17.4843    3.2485 O   0  0  0  0  0  0  0  0  0  0  0  0
   13.4809   17.4069    5.1267 H   0  0  0  0  0  0  0  0  0  0  0  0
    6.3842   25.8398    2.1723 C   0  0  0  0  0  0  0  0  0  0  0  0
    6.1817   28.5945    1.3115 C   0  0  0  0  0  0  0  0  0  0  0  0
    6.2889   28.2563    2.7603 C   0  0  0  0  0  0  0  0  0  0  0  0
    6.2750   29.2764    3.6898 C   0  0  0  0  0  0  0  0  0  0  0  0
    6.3678   29.0045    5.0355 C   0  0  0  0  0  0  0  0  0  0  0  0
    6.4741   27.6951    5.4248 C   0  0  0  0  0  0  0  0  0  0  0  0
    6.4837   26.7472    4.4948 N   0  0  0  0  0  0  0  0  0  0  0  0
    6.3989   26.9191    3.1802 C   0  0  0  0  0  0  0  0  0  0  0  0
 36 37  1  0  0  0
 37 38  2  0  0  0
 38 39  1  0  0  0
 39 40  2  0  0  0
 40 41  1  0  0  0
 41 42  2  0  0  0
 42 35  1  0  0  0
 35  1  1  0  0  0
  1  2  1  0  0  0
  2  3  1  0  0  0
  3  4  1  0  0  0
  4  5  1  0  0  0
  5  6  1  0  0  0
  4  7  1  0  0  0
  7  8  1  0  0  0
  8  9  2  0  0  0
  8 10  1  0  0  0
 10 11  1  0  0  0
 11 12  2  0  0  0
 10 13  1  0  0  0
 13 14  2  0  0  0
 14 15  1  0  0  0
 15 16  2  0  0  0
 16 17  1  0  0  0
 17 18  2  0  0  0
 16 19  1  0  0  0
 19 20  2  0  0  0
 20 21  1  0  0  0
 21 22  2  0  0  0
 22 23  1  0  0  0
 23 24  2  0  0  0
  7 25  1  0  0  0
 25 26  2  0  0  0
 26 27  1  0  0  0
 27 28  2  0  0  0
 28 29  1  0  0  0
 29 30  2  0  0  0
 27 31  1  0  0  0
 31 32  1  0  0  0
 31 33  2  0  0  0
 42 37  1  0  0  0
  6  1  1  0  0  0
 18 13  1  0  0  0
 24 19  1  0  0  0
 30 25  1  0  0  0
 11  4  1  0  0  0
 32 34  1  0  0  0
M  END
> <minimizedAffinity>
-1.79384

> <CNNscore>
0.5224668384

> <CNNaffinity>
7.3311853409

> <CNN_VS>
3.8303012848

> <CNNaffinity_variance>
0.3334186971

$$$$
[H]OC(=O)c1c([H])c([H])nc(N2C(=O)N(c3c([H])c([H])c(-c4c([H])c([H])c([H])c([H])c4[H])c([H])c3[H])C(=O)C23C([H])([H])C([H])([H])N(C([H])([H])c2nc([H])c([H])c([H])c2C([H])([H])[H])C([H])([H])C3([H])[H])c1[H]


 42 47  0  0  0  0  0  0  0  0999 V2000
   14.1610   25.8363   -3.6080 N   0  0  0  0  0  0  0  0  0  0  0  0
   14.2714   26.7733   -2.4653 C   0  0  0  0  0  0  0  0  0  0  0  0
   15.0554   26.0956   -1.3803 C   0  0  0  0  0  0  0  0  0  0  0  0
   14.4701   24.7683   -1.0449 C   0  0  0  0  0  0  0  0  0  0  0  0
   14.1267   23.9092   -2.2472 C   0  0  0  0  0  0  0  0  0  0  0  0
   13.2733   24.7516   -3.1676 C   0  0  0  0  0  0  0  0  0  0  0  0
   15.3346   23.9883   -0.1634 N   0  0  0  0  0  0  0  0  0  0  0  0
   14.4535   23.0942    0.5104 C   0  0  0  0  0  0  0  0  0  0  0  0
   14.8241   21.9922    1.0417 O   0  0  0  0  0  0  0  0  0  0  0  0
   13.1401   23.6395    0.4802 N   0  0  0  0  0  0  0  0  0  0  0  0
   13.2390   24.8716   -0.2193 C   0  0  0  0  0  0  0  0  0  0  0  0
   12.4347   25.8636   -0.1519 O   0  0  0  0  0  0  0  0  0  0  0  0
   11.9674   23.0730    1.0404 C   0  0  0  0  0  0  0  0  0  0  0  0
   11.0034   23.8920    1.6115 C   0  0  0  0  0  0  0  0  0  0  0  0
    9.8753   23.3166    2.1478 C   0  0  0  0  0  0  0  0  0  0  0  0
    9.6499   21.9337    2.1453 C   0  0  0  0  0  0  0  0  0  0  0  0
   10.6190   21.1428    1.5739 C   0  0  0  0  0  0  0  0  0  0  0  0
   11.7550   21.7193    1.0341 C   0  0  0  0  0  0  0  0  0  0  0  0
    8.4400   21.4027    2.7293 C   0  0  0  0  0  0  0  0  0  0  0  0
    7.3225   21.2262    1.9565 C   0  0  0  0  0  0  0  0  0  0  0  0
    6.1434   20.7099    2.5174 C   0  0  0  0  0  0  0  0  0  0  0  0
    6.1423   20.3892    3.8527 C   0  0  0  0  0  0  0  0  0  0  0  0
    7.2521   20.5563    4.6531 C   0  0  0  0  0  0  0  0  0  0  0  0
    8.3959   21.0704    4.0550 C   0  0  0  0  0  0  0  0  0  0  0  0
   16.7463   24.0615    0.0190 C   0  0  0  0  0  0  0  0  0  0  0  0
   17.3169   24.4202    1.2209 C   0  0  0  0  0  0  0  0  0  0  0  0
   18.6910   24.4961    1.4125 C   0  0  0  0  0  0  0  0  0  0  0  0
   19.5125   24.1921    0.3236 C   0  0  0  0  0  0  0  0  0  0  0  0
   18.9244   23.8357   -0.8714 C   0  0  0  0  0  0  0  0  0  0  0  0
   17.6049   23.7786   -0.9970 N   0  0  0  0  0  0  0  0  0  0  0  0
   19.2829   24.8712    2.6729 C   0  0  0  0  0  0  0  0  0  0  0  0
   19.6277   23.9034    3.5897 O   0  0  0  0  0  0  0  0  0  0  0  0
   19.4872   26.0729    2.9400 O   0  0  0  0  0  0  0  0  0  0  0  0
   20.6242   23.7071    3.7751 H   0  0  0  0  0  0  0  0  0  0  0  0
   13.6824   26.5338   -4.7544 C   0  0  0  0  0  0  0  0  0  0  0  0
   15.7747   28.5030   -5.0934 C   0  0  0  0  0  0  0  0  0  0  0  0
   15.6530   27.3527   -6.0351 C   0  0  0  0  0  0  0  0  0  0  0  0
   16.5633   27.2303   -7.0653 C   0  0  0  0  0  0  0  0  0  0  0  0
   16.4866   26.1811   -7.9522 C   0  0  0  0  0  0  0  0  0  0  0  0
   15.4828   25.2639   -7.7834 C   0  0  0  0  0  0  0  0  0  0  0  0
   14.6298   25.4227   -6.7781 N   0  0  0  0  0  0  0  0  0  0  0  0
   14.6302   26.4009   -5.8792 C   0  0  0  0  0  0  0  0  0  0  0  0
 36 37  1  0  0  0
 37 38  2  0  0  0
 38 39  1  0  0  0
 39 40  2  0  0  0
 40 41  1  0  0  0
 41 42  2  0  0  0
 42 35  1  0  0  0
 35  1  1  0  0  0
  1  2  1  0  0  0
  2  3  1  0  0  0
  3  4  1  0  0  0
  4  5  1  0  0  0
  5  6  1  0  0  0
  4  7  1  0  0  0
  7  8  1  0  0  0
  8  9  2  0  0  0
  8 10  1  0  0  0
 10 11  1  0  0  0
 11 12  2  0  0  0
 10 13  1  0  0  0
 13 14  2  0  0  0
 14 15  1  0  0  0
 15 16  2  0  0  0
 16 17  1  0  0  0
 17 18  2  0  0  0
 16 19  1  0  0  0
 19 20  2  0  0  0
 20 21  1  0  0  0
 21 22  2  0  0  0
 22 23  1  0  0  0
 23 24  2  0  0  0
  7 25  1  0  0  0
 25 26  2  0  0  0
 26 27  1  0  0  0
 27 28  2  0  0  0
 28 29  1  0  0  0
 29 30  2  0  0  0
 27 31  1  0  0  0
 31 32  1  0  0  0
 31 33  2  0  0  0
 42 37  1  0  0  0
  6  1  1  0  0  0
 18 13  1  0  0  0
 24 19  1  0  0  0
 30 25  1  0  0  0
 11  4  1  0  0  0
 32 34  1  0  0  0
M  END
> <minimizedAffinity>
12.34772

> <CNNscore>
0.5053862929

> <CNNaffinity>
7.6350145340

> <CNN_VS>
3.8586316109

> <CNNaffinity_variance>
0.7725986242

$$$$
[H]OC(=O)c1c([H])c([H])nc(N2C(=O)N(c3c([H])c([H])c(-c4c([H])c([H])c([H])c([H])c4[H])c([H])c3[H])C(=O)C23C([H])([H])C([H])([H])N(C([H])([H])c2nc([H])c([H])c([H])c2C([H])([H])[H])C([H])([H])C3([H])[H])c1[H]


 42 47  0  0  0  0  0  0  0  0999 V2000
   13.0527   23.1195   -2.0525 N   0  0  0  0  0  0  0  0  0  0  0  0
   13.8281   23.1980   -0.7922 C   0  0  0  0  0  0  0  0  0  0  0  0
   13.1060   22.3966    0.2505 C   0  0  0  0  0  0  0  0  0  0  0  0
   11.6840   22.8226    0.3649 C   0  0  0  0  0  0  0  0  0  0  0  0
   10.9653   22.9815   -0.9616 C   0  0  0  0  0  0  0  0  0  0  0  0
   11.8179   23.8826   -1.8253 C   0  0  0  0  0  0  0  0  0  0  0  0
   10.8993   21.9164    1.1991 N   0  0  0  0  0  0  0  0  0  0  0  0
    9.8203   22.7113    1.6825 C   0  0  0  0  0  0  0  0  0  0  0  0
    8.7081   22.2318    2.0914 O   0  0  0  0  0  0  0  0  0  0  0  0
   10.2015   24.0805    1.6257 N   0  0  0  0  0  0  0  0  0  0  0  0
   11.5218   24.1023    1.1024 C   0  0  0  0  0  0  0  0  0  0  0  0
   12.3900   25.0314    1.2386 O   0  0  0  0  0  0  0  0  0  0  0  0
    9.4250   25.1999    2.0176 C   0  0  0  0  0  0  0  0  0  0  0  0
    8.2069   25.4518    1.4021 C   0  0  0  0  0  0  0  0  0  0  0  0
    7.4737   26.5446    1.8014 C   0  0  0  0  0  0  0  0  0  0  0  0
    7.8995   27.4224    2.8069 C   0  0  0  0  0  0  0  0  0  0  0  0
    9.1094   27.1524    3.4021 C   0  0  0  0  0  0  0  0  0  0  0  0
    9.8491   26.0539    3.0019 C   0  0  0  0  0  0  0  0  0  0  0  0
    7.0743   28.5508    3.1714 C   0  0  0  0  0  0  0  0  0  0  0  0
    6.6502   29.4320    2.2117 C   0  0  0  0  0  0  0  0  0  0  0  0
    5.8474   30.5303    2.5589 C   0  0  0  0  0  0  0  0  0  0  0  0
    5.5019   30.6949    3.8778 C   0  0  0  0  0  0  0  0  0  0  0  0
    5.9142   29.8237    4.8633 C   0  0  0  0  0  0  0  0  0  0  0  0
    6.7073   28.7517    4.4732 C   0  0  0  0  0  0  0  0  0  0  0  0
   11.1167   20.5392    1.4946 C   0  0  0  0  0  0  0  0  0  0  0  0
   11.5559   20.1100    2.7283 C   0  0  0  0  0  0  0  0  0  0  0  0
   11.7724   18.7711    3.0297 C   0  0  0  0  0  0  0  0  0  0  0  0
   11.5287   17.8346    2.0214 C   0  0  0  0  0  0  0  0  0  0  0  0
   11.0903   18.2819    0.7932 C   0  0  0  0  0  0  0  0  0  0  0  0
   10.8993   19.5742    0.5613 N   0  0  0  0  0  0  0  0  0  0  0  0
   12.2313   18.3274    4.3229 C   0  0  0  0  0  0  0  0  0  0  0  0
   11.3327   18.1475    5.3507 O   0  0  0  0  0  0  0  0  0  0  0  0
   13.4431   18.1029    4.5182 O   0  0  0  0  0  0  0  0  0  0  0  0
   11.1171   17.1928    5.6796 H   0  0  0  0  0  0  0  0  0  0  0  0
   13.8397   23.6178   -3.1305 C   0  0  0  0  0  0  0  0  0  0  0  0
   14.7083   25.8644   -4.7334 C   0  0  0  0  0  0  0  0  0  0  0  0
   15.3280   25.5938   -3.4039 C   0  0  0  0  0  0  0  0  0  0  0  0
   16.3142   26.4401   -2.9391 C   0  0  0  0  0  0  0  0  0  0  0  0
   16.9073   26.2261   -1.7161 C   0  0  0  0  0  0  0  0  0  0  0  0
   16.4916   25.1512   -0.9751 C   0  0  0  0  0  0  0  0  0  0  0  0
   15.5399   24.3640   -1.4632 N   0  0  0  0  0  0  0  0  0  0  0  0
   14.9157   24.4961   -2.6284 C   0  0  0  0  0  0  0  0  0  0  0  0
 36 37  1  0  0  0
 37 38  2  0  0  0
 38 39  1  0  0  0
 39 40  2  0  0  0
 40 41  1  0  0  0
 41 42  2  0  0  0
 42 35  1  0  0  0
 35  1  1  0  0  0
  1  2  1  0  0  0
  2  3  1  0  0  0
  3  4  1  0  0  0
  4  5  1  0  0  0
  5  6  1  0  0  0
  4  7  1  0  0  0
  7  8  1  0  0  0
  8  9  2  0  0  0
  8 10  1  0  0  0
 10 11  1  0  0  0
 11 12  2  0  0  0
 10 13  1  0  0  0
 13 14  2  0  0  0
 14 15  1  0  0  0
 15 16  2  0  0  0
 16 17  1  0  0  0
 17 18  2  0  0  0
 16 19  1  0  0  0
 19 20  2  0  0  0
 20 21  1  0  0  0
 21 22  2  0  0  0
 22 23  1  0  0  0
 23 24  2  0  0  0
  7 25  1  0  0  0
 25 26  2  0  0  0
 26 27  1  0  0  0
 27 28  2  0  0  0
 28 29  1  0  0  0
 29 30  2  0  0  0
 27 31  1  0  0  0
 31 32  1  0  0  0
 31 33  2  0  0  0
 42 37  1  0  0  0
  6  1  1  0  0  0
 18 13  1  0  0  0
 24 19  1  0  0  0
 30 25  1  0  0  0
 11  4  1  0  0  0
 32 34  1  0  0  0
M  END
> <minimizedAffinity>
10.32654

> <CNNscore>
0.5024093986

> <CNNaffinity>
7.2786636353

> <CNN_VS>
3.6568689346

> <CNNaffinity_variance>
0.6336493492

$$$$
[H]OC(=O)c1c([H])c([H])nc(N2C(=O)N(c3c([H])c([H])c(-c4c([H])c([H])c([H])c([H])c4[H])c([H])c3[H])C(=O)C23C([H])([H])C([H])([H])N(C([H])([H])c2nc([H])c([H])c([H])c2C([H])([H])[H])C([H])([H])C3([H])[H])c1[H]


 42 47  0  0  0  0  0  0  0  0999 V2000
   15.9171   25.0381    0.7335 N   0  0  0  0  0  0  0  0  0  0  0  0
   16.0730   23.9521   -0.2626 C   0  0  0  0  0  0  0  0  0  0  0  0
   15.1400   24.2289   -1.4044 C   0  0  0  0  0  0  0  0  0  0  0  0
   13.7473   24.4370   -0.9207 C   0  0  0  0  0  0  0  0  0  0  0  0
   13.6270   25.3673    0.2715 C   0  0  0  0  0  0  0  0  0  0  0  0
   14.5846   24.8646    1.3276 C   0  0  0  0  0  0  0  0  0  0  0  0
   12.8636   24.9324   -1.9724 N   0  0  0  0  0  0  0  0  0  0  0  0
   11.5582   24.5277   -1.5698 C   0  0  0  0  0  0  0  0  0  0  0  0
   10.4820   25.0916   -1.9669 O   0  0  0  0  0  0  0  0  0  0  0  0
   11.6772   23.4239   -0.6806 N   0  0  0  0  0  0  0  0  0  0  0  0
   13.0683   23.1680   -0.5512 C   0  0  0  0  0  0  0  0  0  0  0  0
   13.6207   22.0721   -0.1914 O   0  0  0  0  0  0  0  0  0  0  0  0
   10.6217   22.7154   -0.0530 C   0  0  0  0  0  0  0  0  0  0  0  0
   10.2928   22.9834    1.2684 C   0  0  0  0  0  0  0  0  0  0  0  0
    9.2647   22.2816    1.8529 C   0  0  0  0  0  0  0  0  0  0  0  0
    8.5275   21.3022    1.1744 C   0  0  0  0  0  0  0  0  0  0  0  0
    8.8718   21.0542   -0.1337 C   0  0  0  0  0  0  0  0  0  0  0  0
    9.9060   21.7586   -0.7238 C   0  0  0  0  0  0  0  0  0  0  0  0
    7.4614   20.6055    1.8563 C   0  0  0  0  0  0  0  0  0  0  0  0
    6.5576   19.8629    1.1429 C   0  0  0  0  0  0  0  0  0  0  0  0
    5.5194   19.1826    1.7993 C   0  0  0  0  0  0  0  0  0  0  0  0
    5.4363   19.2821    3.1664 C   0  0  0  0  0  0  0  0  0  0  0  0
    6.3319   20.0218    3.9087 C   0  0  0  0  0  0  0  0  0  0  0  0
    7.3423   20.6780    3.2166 C   0  0  0  0  0  0  0  0  0  0  0  0
   13.1813   25.6632   -3.1541 C   0  0  0  0  0  0  0  0  0  0  0  0
   14.1376   25.2370   -4.0501 C   0  0  0  0  0  0  0  0  0  0  0  0
   14.4576   25.9396   -5.2053 C   0  0  0  0  0  0  0  0  0  0  0  0
   13.7674   27.1301   -5.4491 C   0  0  0  0  0  0  0  0  0  0  0  0
   12.8145   27.5417   -4.5416 C   0  0  0  0  0  0  0  0  0  0  0  0
   12.5489   26.8292   -3.4543 N   0  0  0  0  0  0  0  0  0  0  0  0
   15.4586   25.4883   -6.1402 C   0  0  0  0  0  0  0  0  0  0  0  0
   15.5554   26.0713   -7.3839 O   0  0  0  0  0  0  0  0  0  0  0  0
   16.2429   24.5692   -5.8283 O   0  0  0  0  0  0  0  0  0  0  0  0
   16.3669   26.6697   -7.6060 H   0  0  0  0  0  0  0  0  0  0  0  0
   16.9770   24.9721    1.6833 C   0  0  0  0  0  0  0  0  0  0  0  0
   19.4394   24.9955    3.2020 C   0  0  0  0  0  0  0  0  0  0  0  0
   19.4304   24.5634    1.7744 C   0  0  0  0  0  0  0  0  0  0  0  0
   20.6128   24.1590    1.1887 C   0  0  0  0  0  0  0  0  0  0  0  0
   20.6446   23.7497   -0.1247 C   0  0  0  0  0  0  0  0  0  0  0  0
   19.4713   23.7554   -0.8322 C   0  0  0  0  0  0  0  0  0  0  0  0
   18.3581   24.1531   -0.2270 N   0  0  0  0  0  0  0  0  0  0  0  0
   18.2371   24.5621    1.0311 C   0  0  0  0  0  0  0  0  0  0  0  0
 36 37  1  0  0  0
 37 38  2  0  0  0
 38 39  1  0  0  0
 39 40  2  0  0  0
 40 41  1  0  0  0
 41 42  2  0  0  0
 42 35  1  0  0  0
 35  1  1  0  0  0
  1  2  1  0  0  0
  2  3  1  0  0  0
  3  4  1  0  0  0
  4  5  1  0  0  0
  5  6  1  0  0  0
  4  7  1  0  0  0
  7  8  1  0  0  0
  8  9  2  0  0  0
  8 10  1  0  0  0
 10 11  1  0  0  0
 11 12  2  0  0  0
 10 13  1  0  0  0
 13 14  2  0  0  0
 14 15  1  0  0  0
 15 16  2  0  0  0
 16 17  1  0  0  0
 17 18  2  0  0  0
 16 19  1  0  0  0
 19 20  2  0  0  0
 20 21  1  0  0  0
 21 22  2  0  0  0
 22 23  1  0  0  0
 23 24  2  0  0  0
  7 25  1  0  0  0
 25 26  2  0  0  0
 26 27  1  0  0  0
 27 28  2  0  0  0
 28 29  1  0  0  0
 29 30  2  0  0  0
 27 31  1  0  0  0
 31 32  1  0  0  0
 31 33  2  0  0  0
 42 37  1  0  0  0
  6  1  1  0  0  0
 18 13  1  0  0  0
 24 19  1  0  0  0
 30 25  1  0  0  0
 11  4  1  0  0  0
 32 34  1  0  0  0
M  END
> <minimizedAffinity>
16.88653

> <CNNscore>
0.4863943160

> <CNNaffinity>
7.7175455093

> <CNN_VS>
3.7537703514

> <CNNaffinity_variance>
1.1811808348

$$$$
[H]OC(=O)c1c([H])c([H])nc(N2C(=O)N(c3c([H])c([H])c(-c4c([H])c([H])c([H])c([H])c4[H])c([H])c3[H])C(=O)C23C([H])([H])C([H])([H])N(C([H])([H])c2nc([H])c([H])c([H])c2C([H])([H])[H])C([H])([H])C3([H])[H])c1[H]


 42 47  0  0  0  0  0  0  0  0999 V2000
   13.4657   23.0469   -2.3771 N   0  0  0  0  0  0  0  0  0  0  0  0
   14.4131   23.4581   -1.3146 C   0  0  0  0  0  0  0  0  0  0  0  0
   14.0124   22.7729   -0.0414 C   0  0  0  0  0  0  0  0  0  0  0  0
   12.5779   23.0193    0.2718 C   0  0  0  0  0  0  0  0  0  0  0  0
   11.6359   22.8346   -0.9029 C   0  0  0  0  0  0  0  0  0  0  0  0
   12.1764   23.6672   -2.0429 C   0  0  0  0  0  0  0  0  0  0  0  0
   12.0995   22.1854    1.3711 N   0  0  0  0  0  0  0  0  0  0  0  0
   10.9984   22.9045    1.9192 C   0  0  0  0  0  0  0  0  0  0  0  0
   10.0619   22.3644    2.6013 O   0  0  0  0  0  0  0  0  0  0  0  0
   11.1355   24.2783    1.5771 N   0  0  0  0  0  0  0  0  0  0  0  0
   12.3308   24.3795    0.8166 C   0  0  0  0  0  0  0  0  0  0  0  0
   13.0454   25.4250    0.6384 O   0  0  0  0  0  0  0  0  0  0  0  0
   10.2606   25.3371    1.9284 C   0  0  0  0  0  0  0  0  0  0  0  0
    9.1671   25.6315    1.1260 C   0  0  0  0  0  0  0  0  0  0  0  0
    8.3344   26.6637    1.4898 C   0  0  0  0  0  0  0  0  0  0  0  0
    8.5374   27.4382    2.6396 C   0  0  0  0  0  0  0  0  0  0  0  0
    9.6272   27.1277    3.4187 C   0  0  0  0  0  0  0  0  0  0  0  0
   10.4667   26.0900    3.0546 C   0  0  0  0  0  0  0  0  0  0  0  0
    7.6194   28.5078    2.9558 C   0  0  0  0  0  0  0  0  0  0  0  0
    6.3640   28.2216    3.4243 C   0  0  0  0  0  0  0  0  0  0  0  0
    5.4670   29.2563    3.7343 C   0  0  0  0  0  0  0  0  0  0  0  0
    5.8806   30.5536    3.5559 C   0  0  0  0  0  0  0  0  0  0  0  0
    7.1375   30.8699    3.0865 C   0  0  0  0  0  0  0  0  0  0  0  0
    7.9910   29.8136    2.7927 C   0  0  0  0  0  0  0  0  0  0  0  0
   12.5851   20.9274    1.8325 C   0  0  0  0  0  0  0  0  0  0  0  0
   11.8755   20.1415    2.7144 C   0  0  0  0  0  0  0  0  0  0  0  0
   12.3370   18.9137    3.1727 C   0  0  0  0  0  0  0  0  0  0  0  0
   13.5797   18.4761    2.7065 C   0  0  0  0  0  0  0  0  0  0  0  0
   14.2761   19.2755    1.8251 C   0  0  0  0  0  0  0  0  0  0  0  0
   13.7857   20.4398    1.4198 N   0  0  0  0  0  0  0  0  0  0  0  0
   11.5898   18.0947    4.0950 C   0  0  0  0  0  0  0  0  0  0  0  0
   11.5055   18.4500    5.4227 O   0  0  0  0  0  0  0  0  0  0  0  0
   11.0148   17.0614    3.6965 O   0  0  0  0  0  0  0  0  0  0  0  0
   10.6073   18.7853    5.8059 H   0  0  0  0  0  0  0  0  0  0  0  0
   13.9735   23.4390   -3.6492 C   0  0  0  0  0  0  0  0  0  0  0  0
   15.3690   24.5522   -5.9260 C   0  0  0  0  0  0  0  0  0  0  0  0
   15.0238   25.4068   -4.7533 C   0  0  0  0  0  0  0  0  0  0  0  0
   15.3661   26.7436   -4.7739 C   0  0  0  0  0  0  0  0  0  0  0  0
   15.0614   27.5653   -3.7130 C   0  0  0  0  0  0  0  0  0  0  0  0
   14.4102   27.0191   -2.6384 C   0  0  0  0  0  0  0  0  0  0  0  0
   14.1013   25.7278   -2.6629 N   0  0  0  0  0  0  0  0  0  0  0  0
   14.3559   24.8655   -3.6409 C   0  0  0  0  0  0  0  0  0  0  0  0
 36 37  1  0  0  0
 37 38  2  0  0  0
 38 39  1  0  0  0
 39 40  2  0  0  0
 40 41  1  0  0  0
 41 42  2  0  0  0
 42 35  1  0  0  0
 35  1  1  0  0  0
  1  2  1  0  0  0
  2  3  1  0  0  0
  3  4  1  0  0  0
  4  5  1  0  0  0
  5  6  1  0  0  0
  4  7  1  0  0  0
  7  8  1  0  0  0
  8  9  2  0  0  0
  8 10  1  0  0  0
 10 11  1  0  0  0
 11 12  2  0  0  0
 10 13  1  0  0  0
 13 14  2  0  0  0
 14 15  1  0  0  0
 15 16  2  0  0  0
 16 17  1  0  0  0
 17 18  2  0  0  0
 16 19  1  0  0  0
 19 20  2  0  0  0
 20 21  1  0  0  0
 21 22  2  0  0  0
 22 23  1  0  0  0
 23 24  2  0  0  0
  7 25  1  0  0  0
 25 26  2  0  0  0
 26 27  1  0  0  0
 27 28  2  0  0  0
 28 29  1  0  0  0
 29 30  2  0  0  0
 27 31  1  0  0  0
 31 32  1  0  0  0
 31 33  2  0  0  0
 42 37  1  0  0  0
  6  1  1  0  0  0
 18 13  1  0  0  0
 24 19  1  0  0  0
 30 25  1  0  0  0
 11  4  1  0  0  0
 32 34  1  0  0  0
M  END
> <minimizedAffinity>
25.78115

> <CNNscore>
0.4836654067

> <CNNaffinity>
6.9239816666

> <CNN_VS>
3.3488903046

> <CNNaffinity_variance>
1.0028741360

$$$$
[H]OC(=O)c1c([H])c([H])nc(N2C(=O)N(c3c([H])c([H])c(-c4c([H])c([H])c([H])c([H])c4[H])c([H])c3[H])C(=O)C23C([H])([H])C([H])([H])N(C([H])([H])c2nc([H])c([H])c([H])c2C([H])([H])[H])C([H])([H])C3([H])[H])c1[H]


 42 47  0  0  0  0  0  0  0  0999 V2000
   14.0332   25.3337   -3.5976 N   0  0  0  0  0  0  0  0  0  0  0  0
   14.0187   26.3462   -2.5157 C   0  0  0  0  0  0  0  0  0  0  0  0
   14.7041   25.7584   -1.3174 C   0  0  0  0  0  0  0  0  0  0  0  0
   14.1090   24.4440   -0.9503 C   0  0  0  0  0  0  0  0  0  0  0  0
   13.8962   23.5004   -2.1189 C   0  0  0  0  0  0  0  0  0  0  0  0
   13.1233   24.2617   -3.1715 C   0  0  0  0  0  0  0  0  0  0  0  0
   14.8958   23.7424    0.0605 N   0  0  0  0  0  0  0  0  0  0  0  0
   13.9670   22.8762    0.7061 C   0  0  0  0  0  0  0  0  0  0  0  0
   14.3009   21.8198    1.3437 O   0  0  0  0  0  0  0  0  0  0  0  0
   12.6547   23.3902    0.5139 N   0  0  0  0  0  0  0  0  0  0  0  0
   12.8025   24.5753   -0.2549 C   0  0  0  0  0  0  0  0  0  0  0  0
   11.9807   25.5521   -0.3318 O   0  0  0  0  0  0  0  0  0  0  0  0
   11.4419   22.8370    0.9966 C   0  0  0  0  0  0  0  0  0  0  0  0
   10.7432   23.4728    2.0134 C   0  0  0  0  0  0  0  0  0  0  0  0
    9.5695   22.9147    2.4631 C   0  0  0  0  0  0  0  0  0  0  0  0
    9.0406   21.7271    1.9408 C   0  0  0  0  0  0  0  0  0  0  0  0
    9.7505   21.1155    0.9342 C   0  0  0  0  0  0  0  0  0  0  0  0
   10.9318   21.6747    0.4804 C   0  0  0  0  0  0  0  0  0  0  0  0
    7.8019   21.2011    2.4659 C   0  0  0  0  0  0  0  0  0  0  0  0
    7.6800   20.9332    3.8041 C   0  0  0  0  0  0  0  0  0  0  0  0
    6.4788   20.4226    4.3213 C   0  0  0  0  0  0  0  0  0  0  0  0
    5.4372   20.2009    3.4542 C   0  0  0  0  0  0  0  0  0  0  0  0
    5.5323   20.4617    2.1039 C   0  0  0  0  0  0  0  0  0  0  0  0
    6.7400   20.9658    1.6372 C   0  0  0  0  0  0  0  0  0  0  0  0
   16.2819   23.8576    0.3714 C   0  0  0  0  0  0  0  0  0  0  0  0
   17.2482   23.9845   -0.6027 C   0  0  0  0  0  0  0  0  0  0  0  0
   18.6026   24.0971   -0.3138 C   0  0  0  0  0  0  0  0  0  0  0  0
   18.9797   24.0771    1.0317 C   0  0  0  0  0  0  0  0  0  0  0  0
   17.9996   23.9487    1.9930 C   0  0  0  0  0  0  0  0  0  0  0  0
   16.7197   23.8460    1.6590 N   0  0  0  0  0  0  0  0  0  0  0  0
   19.6097   24.2307   -1.3374 C   0  0  0  0  0  0  0  0  0  0  0  0
   19.9520   25.4774   -1.8115 O   0  0  0  0  0  0  0  0  0  0  0  0
   20.1772   23.2195   -1.7984 O   0  0  0  0  0  0  0  0  0  0  0  0
   20.8769   25.8750   -1.5823 H   0  0  0  0  0  0  0  0  0  0  0  0
   13.6573   25.9437   -4.8290 C   0  0  0  0  0  0  0  0  0  0  0  0
   15.0234   25.2726   -7.2895 C   0  0  0  0  0  0  0  0  0  0  0  0
   15.3891   26.5015   -6.5272 C   0  0  0  0  0  0  0  0  0  0  0  0
   16.3806   27.3257   -7.0196 C   0  0  0  0  0  0  0  0  0  0  0  0
   16.7436   28.4702   -6.3474 C   0  0  0  0  0  0  0  0  0  0  0  0
   16.0939   28.7669   -5.1781 C   0  0  0  0  0  0  0  0  0  0  0  0
   15.1467   27.9441   -4.7429 N   0  0  0  0  0  0  0  0  0  0  0  0
   14.7345   26.8236   -5.3255 C   0  0  0  0  0  0  0  0  0  0  0  0
 36 37  1  0  0  0
 37 38  2  0  0  0
 38 39  1  0  0  0
 39 40  2  0  0  0
 40 41  1  0  0  0
 41 42  2  0  0  0
 42 35  1  0  0  0
 35  1  1  0  0  0
  1  2  1  0  0  0
  2  3  1  0  0  0
  3  4  1  0  0  0
  4  5  1  0  0  0
  5  6  1  0  0  0
  4  7  1  0  0  0
  7  8  1  0  0  0
  8  9  2  0  0  0
  8 10  1  0  0  0
 10 11  1  0  0  0
 11 12  2  0  0  0
 10 13  1  0  0  0
 13 14  2  0  0  0
 14 15  1  0  0  0
 15 16  2  0  0  0
 16 17  1  0  0  0
 17 18  2  0  0  0
 16 19  1  0  0  0
 19 20  2  0  0  0
 20 21  1  0  0  0
 21 22  2  0  0  0
 22 23  1  0  0  0
 23 24  2  0  0  0
  7 25  1  0  0  0
 25 26  2  0  0  0
 26 27  1  0  0  0
 27 28  2  0  0  0
 28 29  1  0  0  0
 29 30  2  0  0  0
 27 31  1  0  0  0
 31 32  1  0  0  0
 31 33  2  0  0  0
 42 37  1  0  0  0
  6  1  1  0  0  0
 18 13  1  0  0  0
 24 19  1  0  0  0
 30 25  1  0  0  0
 11  4  1  0  0  0
 32 34  1  0  0  0
M  END
> <minimizedAffinity>
16.45739

> <CNNscore>
0.4800881743

> <CNNaffinity>
7.6037650108

> <CNN_VS>
3.6504776478

> <CNNaffinity_variance>
0.6307792068

$$$$
[H]OC(=O)c1c([H])c([H])nc(N2C(=O)N(c3c([H])c([H])c(-c4c([H])c([H])c([H])c([H])c4[H])c([H])c3[H])C(=O)C23C([H])([H])C([H])([H])N(C([H])([H])c2nc([H])c([H])c([H])c2C([H])([H])[H])C([H])([H])C3([H])[H])c1[H]


 42 47  0  0  0  0  0  0  0  0999 V2000
   16.6061   24.4822    0.4574 N   0  0  0  0  0  0  0  0  0  0  0  0
   16.8025   23.5407   -0.6698 C   0  0  0  0  0  0  0  0  0  0  0  0
   16.0510   24.0696   -1.8558 C   0  0  0  0  0  0  0  0  0  0  0  0
   14.6285   24.3426   -1.5112 C   0  0  0  0  0  0  0  0  0  0  0  0
   14.4293   25.0992   -0.2115 C   0  0  0  0  0  0  0  0  0  0  0  0
   15.1981   24.3578    0.8582 C   0  0  0  0  0  0  0  0  0  0  0  0
   13.9316   25.0691   -2.5692 N   0  0  0  0  0  0  0  0  0  0  0  0
   12.5568   24.7417   -2.3889 C   0  0  0  0  0  0  0  0  0  0  0  0
   11.5901   25.4605   -2.8165 O   0  0  0  0  0  0  0  0  0  0  0  0
   12.4702   23.5153   -1.6737 N   0  0  0  0  0  0  0  0  0  0  0  0
   13.8076   23.1071   -1.4244 C   0  0  0  0  0  0  0  0  0  0  0  0
   14.2188   21.9217   -1.1768 O   0  0  0  0  0  0  0  0  0  0  0  0
   11.2887   22.8318   -1.2907 C   0  0  0  0  0  0  0  0  0  0  0  0
   10.9751   21.6082   -1.8658 C   0  0  0  0  0  0  0  0  0  0  0  0
    9.8229   20.9664   -1.4764 C   0  0  0  0  0  0  0  0  0  0  0  0
    8.9437   21.4913   -0.5201 C   0  0  0  0  0  0  0  0  0  0  0  0
    9.2755   22.7047    0.0357 C   0  0  0  0  0  0  0  0  0  0  0  0
   10.4339   23.3525   -0.3548 C   0  0  0  0  0  0  0  0  0  0  0  0
    7.7509   20.7587   -0.1630 C   0  0  0  0  0  0  0  0  0  0  0  0
    6.8627   21.2861    0.7372 C   0  0  0  0  0  0  0  0  0  0  0  0
    5.7011   20.5798    1.0881 C   0  0  0  0  0  0  0  0  0  0  0  0
    5.4822   19.3545    0.5079 C   0  0  0  0  0  0  0  0  0  0  0  0
    6.3587   18.8006   -0.4005 C   0  0  0  0  0  0  0  0  0  0  0  0
    7.4947   19.5353   -0.7174 C   0  0  0  0  0  0  0  0  0  0  0  0
   14.4579   25.9271   -3.5782 C   0  0  0  0  0  0  0  0  0  0  0  0
   14.7143   25.4885   -4.8592 C   0  0  0  0  0  0  0  0  0  0  0  0
   15.2276   26.3138   -5.8521 C   0  0  0  0  0  0  0  0  0  0  0  0
   15.4896   27.6443   -5.5144 C   0  0  0  0  0  0  0  0  0  0  0  0
   15.2277   28.0657   -4.2280 C   0  0  0  0  0  0  0  0  0  0  0  0
   14.7358   27.2331   -3.3197 N   0  0  0  0  0  0  0  0  0  0  0  0
   15.4932   25.8497   -7.1915 C   0  0  0  0  0  0  0  0  0  0  0  0
   14.7327   24.8392   -7.7362 O   0  0  0  0  0  0  0  0  0  0  0  0
   16.4112   26.3608   -7.8647 O   0  0  0  0  0  0  0  0  0  0  0  0
   14.0723   25.0521   -8.5008 H   0  0  0  0  0  0  0  0  0  0  0  0
   17.5247   24.1759    1.5025 C   0  0  0  0  0  0  0  0  0  0  0  0
   19.5947   24.6964    3.4556 C   0  0  0  0  0  0  0  0  0  0  0  0
   19.9219   24.6213    2.0023 C   0  0  0  0  0  0  0  0  0  0  0  0
   21.2315   24.7887    1.6003 C   0  0  0  0  0  0  0  0  0  0  0  0
   21.5737   24.7226    0.2691 C   0  0  0  0  0  0  0  0  0  0  0  0
   20.5791   24.4864   -0.6432 C   0  0  0  0  0  0  0  0  0  0  0  0
   19.3334   24.3320   -0.2098 N   0  0  0  0  0  0  0  0  0  0  0  0
   18.9159   24.3799    1.0504 C   0  0  0  0  0  0  0  0  0  0  0  0
 36 37  1  0  0  0
 37 38  2  0  0  0
 38 39  1  0  0  0
 39 40  2  0  0  0
 40 41  1  0  0  0
 41 42  2  0  0  0
 42 35  1  0  0  0
 35  1  1  0  0  0
  1  2  1  0  0  0
  2  3  1  0  0  0
  3  4  1  0  0  0
  4  5  1  0  0  0
  5  6  1  0  0  0
  4  7  1  0  0  0
  7  8  1  0  0  0
  8  9  2  0  0  0
  8 10  1  0  0  0
 10 11  1  0  0  0
 11 12  2  0  0  0
 10 13  1  0  0  0
 13 14  2  0  0  0
 14 15  1  0  0  0
 15 16  2  0  0  0
 16 17  1  0  0  0
 17 18  2  0  0  0
 16 19  1  0  0  0
 19 20  2  0  0  0
 20 21  1  0  0  0
 21 22  2  0  0  0
 22 23  1  0  0  0
 23 24  2  0  0  0
  7 25  1  0  0  0
 25 26  2  0  0  0
 26 27  1  0  0  0
 27 28  2  0  0  0
 28 29  1  0  0  0
 29 30  2  0  0  0
 27 31  1  0  0  0
 31 32  1  0  0  0
 31 33  2  0  0  0
 42 37  1  0  0  0
  6  1  1  0  0  0
 18 13  1  0  0  0
 24 19  1  0  0  0
 30 25  1  0  0  0
 11  4  1  0  0  0
 32 34  1  0  0  0
M  END
> <minimizedAffinity>
19.59392

> <CNNscore>
0.4779288173

> <CNNaffinity>
7.6670331955

> <CNN_VS>
3.6642961502

> <CNNaffinity_variance>
0.4524556994

$$$$
[H]OC(=O)c1c([H])c([H])nc(N2C(=O)N(c3c([H])c([H])c(-c4c([H])c([H])c([H])c([H])c4[H])c([H])c3[H])C(=O)C23C([H])([H])C([H])([H])N(C([H])([H])c2nc([H])c([H])c([H])c2C([H])([H])[H])C([H])([H])C3([H])[H])c1[H]


 42 47  0  0  0  0  0  0  0  0999 V2000
   14.3206   25.7866   -2.6211 N   0  0  0  0  0  0  0  0  0  0  0  0
   15.0768   25.5413   -1.3706 C   0  0  0  0  0  0  0  0  0  0  0  0
   14.5907   24.2522   -0.7767 C   0  0  0  0  0  0  0  0  0  0  0  0
   13.1102   24.2585   -0.6198 C   0  0  0  0  0  0  0  0  0  0  0  0
   12.3500   24.7542   -1.8355 C   0  0  0  0  0  0  0  0  0  0  0  0
   12.9417   26.0920   -2.2161 C   0  0  0  0  0  0  0  0  0  0  0  0
   12.5851   22.9433   -0.2629 N   0  0  0  0  0  0  0  0  0  0  0  0
   11.3542   23.2125    0.4022 C   0  0  0  0  0  0  0  0  0  0  0  0
   10.3998   22.3685    0.5062 O   0  0  0  0  0  0  0  0  0  0  0  0
   11.3899   24.5420    0.9065 N   0  0  0  0  0  0  0  0  0  0  0  0
   12.6552   25.0714    0.5378 C   0  0  0  0  0  0  0  0  0  0  0  0
   13.2738   26.0457    1.0887 O   0  0  0  0  0  0  0  0  0  0  0  0
   10.3718   25.2060    1.6362 C   0  0  0  0  0  0  0  0  0  0  0  0
   10.6967   26.2482    2.4931 C   0  0  0  0  0  0  0  0  0  0  0  0
    9.6897   26.8751    3.1891 C   0  0  0  0  0  0  0  0  0  0  0  0
    8.3419   26.5104    3.0740 C   0  0  0  0  0  0  0  0  0  0  0  0
    8.0444   25.4752    2.2190 C   0  0  0  0  0  0  0  0  0  0  0  0
    9.0558   24.8427    1.5181 C   0  0  0  0  0  0  0  0  0  0  0  0
    7.3397   27.2157    3.8390 C   0  0  0  0  0  0  0  0  0  0  0  0
    6.5030   26.5273    4.6778 C   0  0  0  0  0  0  0  0  0  0  0  0
    5.5274   27.2065    5.4247 C   0  0  0  0  0  0  0  0  0  0  0  0
    5.4362   28.5703    5.2918 C   0  0  0  0  0  0  0  0  0  0  0  0
    6.2649   29.2877    4.4558 C   0  0  0  0  0  0  0  0  0  0  0  0
    7.2150   28.5735    3.7363 C   0  0  0  0  0  0  0  0  0  0  0  0
   13.1363   21.6511   -0.5035 C   0  0  0  0  0  0  0  0  0  0  0  0
   14.3536   21.2611    0.0113 C   0  0  0  0  0  0  0  0  0  0  0  0
   14.9029   20.0052   -0.2156 C   0  0  0  0  0  0  0  0  0  0  0  0
   14.1716   19.1138   -1.0054 C   0  0  0  0  0  0  0  0  0  0  0  0
   12.9561   19.5211   -1.5127 C   0  0  0  0  0  0  0  0  0  0  0  0
   12.4791   20.7336   -1.2623 N   0  0  0  0  0  0  0  0  0  0  0  0
   16.1769   19.6019    0.3265 C   0  0  0  0  0  0  0  0  0  0  0  0
   16.8805   20.4557    1.1463 O   0  0  0  0  0  0  0  0  0  0  0  0
   16.6485   18.4783    0.0577 O   0  0  0  0  0  0  0  0  0  0  0  0
   16.9727   20.2385    2.1515 H   0  0  0  0  0  0  0  0  0  0  0  0
   14.9427   26.8347   -3.3589 C   0  0  0  0  0  0  0  0  0  0  0  0
   15.7810   28.7957   -5.3139 C   0  0  0  0  0  0  0  0  0  0  0  0
   15.6245   27.3618   -5.6938 C   0  0  0  0  0  0  0  0  0  0  0  0
   15.8999   26.9778   -6.9905 C   0  0  0  0  0  0  0  0  0  0  0  0
   15.7711   25.6639   -7.3785 C   0  0  0  0  0  0  0  0  0  0  0  0
   15.3625   24.7505   -6.4426 C   0  0  0  0  0  0  0  0  0  0  0  0
   15.1085   25.1663   -5.2073 N   0  0  0  0  0  0  0  0  0  0  0  0
   15.2062   26.4091   -4.7484 C   0  0  0  0  0  0  0  0  0  0  0  0
 36 37  1  0  0  0
 37 38  2  0  0  0
 38 39  1  0  0  0
 39 40  2  0  0  0
 40 41  1  0  0  0
 41 42  2  0  0  0
 42 35  1  0  0  0
 35  1  1  0  0  0
  1  2  1  0  0  0
  2  3  1  0  0  0
  3  4  1  0  0  0
  4  5  1  0  0  0
  5  6  1  0  0  0
  4  7  1  0  0  0
  7  8  1  0  0  0
  8  9  2  0  0  0
  8 10  1  0  0  0
 10 11  1  0  0  0
 11 12  2  0  0  0
 10 13  1  0  0  0
 13 14  2  0  0  0
 14 15  1  0  0  0
 15 16  2  0  0  0
 16 17  1  0  0  0
 17 18  2  0  0  0
 16 19  1  0  0  0
 19 20  2  0  0  0
 20 21  1  0  0  0
 21 22  2  0  0  0
 22 23  1  0  0  0
 23 24  2  0  0  0
  7 25  1  0  0  0
 25 26  2  0  0  0
 26 27  1  0  0  0
 27 28  2  0  0  0
 28 29  1  0  0  0
 29 30  2  0  0  0
 27 31  1  0  0  0
 31 32  1  0  0  0
 31 33  2  0  0  0
 42 37  1  0  0  0
  6  1  1  0  0  0
 18 13  1  0  0  0
 24 19  1  0  0  0
 30 25  1  0  0  0
 11  4  1  0  0  0
 32 34  1  0  0  0
M  END
> <minimizedAffinity>
7.10902

> <CNNscore>
0.4555254579

> <CNNaffinity>
7.4854063988

> <CNN_VS>
3.4097931385

> <CNNaffinity_variance>
0.8170658350

$$$$
[H]OC(=O)c1c([H])c([H])c(N2C(=O)N(c3c([H])c([H])c(C#N)c([H])c3[H])C(=O)C23C([H])([H])C([H])([H])N(C([H])([H])c2nc([H])c([H])c([H])c2C([H])([H])[H])C([H])([H])C3([H])[H])c([H])c1[H]


 38 42  0  0  0  0  0  0  0  0999 V2000
   12.4675   26.4970   -3.4587 N   0  0  0  0  0  0  0  0  0  0  0  0
   11.5053   25.5205   -3.4192 C   0  0  0  0  0  0  0  0  0  0  0  0
   12.0241   24.1864   -2.8827 C   0  0  0  0  0  0  0  0  0  0  0  0
   12.6224   24.3018   -1.5560 C   0  0  0  0  0  0  0  0  0  0  0  0
   12.9016   25.7392   -1.1850 C   0  0  0  0  0  0  0  0  0  0  0  0
   13.4468   26.4155   -2.3980 C   0  0  0  0  0  0  0  0  0  0  0  0
   12.0205   23.5405   -0.4900 N   0  0  0  0  0  0  0  0  0  0  0  0
   13.0540   23.6357    0.5529 C   0  0  0  0  0  0  0  0  0  0  0  0
   12.8511   23.6464    1.7754 O   0  0  0  0  0  0  0  0  0  0  0  0
   14.3294   23.7030   -0.0904 N   0  0  0  0  0  0  0  0  0  0  0  0
   14.0244   23.6604   -1.5142 C   0  0  0  0  0  0  0  0  0  0  0  0
   14.7120   23.2331   -2.3981 O   0  0  0  0  0  0  0  0  0  0  0  0
   15.6086   23.7792    0.5148 C   0  0  0  0  0  0  0  0  0  0  0  0
   16.1386   22.7142    1.2335 C   0  0  0  0  0  0  0  0  0  0  0  0
   17.4107   22.8263    1.8508 C   0  0  0  0  0  0  0  0  0  0  0  0
   18.1321   23.9882    1.7489 C   0  0  0  0  0  0  0  0  0  0  0  0
   17.6019   25.0221    1.0422 C   0  0  0  0  0  0  0  0  0  0  0  0
   16.3567   24.9163    0.4394 C   0  0  0  0  0  0  0  0  0  0  0  0
   19.4111   24.1509    2.3910 C   0  0  0  0  0  0  0  0  0  0  0  0
   20.4382   24.3077    2.8967 N   0  0  0  0  0  0  0  0  0  0  0  0
   10.8661   22.8332   -0.2792 C   0  0  0  0  0  0  0  0  0  0  0  0
   10.6410   21.5037   -0.5809 C   0  0  0  0  0  0  0  0  0  0  0  0
    9.4875   20.8051   -0.3716 C   0  0  0  0  0  0  0  0  0  0  0  0
    8.4061   21.4776    0.2035 C   0  0  0  0  0  0  0  0  0  0  0  0
    8.5967   22.7897    0.5189 C   0  0  0  0  0  0  0  0  0  0  0  0
    9.7327   23.4938    0.3167 C   0  0  0  0  0  0  0  0  0  0  0  0
    7.1599   20.7874    0.4300 C   0  0  0  0  0  0  0  0  0  0  0  0
    6.0575   21.4710    0.9751 O   0  0  0  0  0  0  0  0  0  0  0  0
    7.0087   19.5799    0.1605 O   0  0  0  0  0  0  0  0  0  0  0  0
    6.2414   21.8525    1.9239 H   0  0  0  0  0  0  0  0  0  0  0  0
   12.9327   27.0481   -4.6306 C   0  0  0  0  0  0  0  0  0  0  0  0
   13.9935   26.2521   -7.1444 C   0  0  0  0  0  0  0  0  0  0  0  0
   14.8425   26.9494   -6.1701 C   0  0  0  0  0  0  0  0  0  0  0  0
   16.1954   27.2917   -6.4356 C   0  0  0  0  0  0  0  0  0  0  0  0
   16.9343   27.8504   -5.4424 C   0  0  0  0  0  0  0  0  0  0  0  0
   16.4649   28.1040   -4.2000 C   0  0  0  0  0  0  0  0  0  0  0  0
   15.1650   27.7690   -3.9638 N   0  0  0  0  0  0  0  0  0  0  0  0
   14.3595   27.2024   -4.9276 C   0  0  0  0  0  0  0  0  0  0  0  0
 32 33  1  0  0  0
 33 34  2  0  0  0
 34 35  1  0  0  0
 35 36  2  0  0  0
 36 37  1  0  0  0
 37 38  2  0  0  0
 38 31  1  0  0  0
 31  1  1  0  0  0
  1  2  1  0  0  0
  2  3  1  0  0  0
  3  4  1  0  0  0
  4  5  1  0  0  0
  5  6  1  0  0  0
  4  7  1  0  0  0
  7  8  1  0  0  0
  8  9  2  0  0  0
  8 10  1  0  0  0
 10 11  1  0  0  0
 11 12  2  0  0  0
 10 13  1  0  0  0
 13 14  2  0  0  0
 14 15  1  0  0  0
 15 16  2  0  0  0
 16 17  1  0  0  0
 17 18  2  0  0  0
 16 19  1  0  0  0
 19 20  3  0  0  0
  7 21  1  0  0  0
 21 22  2  0  0  0
 22 23  1  0  0  0
 23 24  2  0  0  0
 24 25  1  0  0  0
 25 26  2  0  0  0
 24 27  1  0  0  0
 27 28  1  0  0  0
 27 29  2  0  0  0
 38 33  1  0  0  0
  6  1  1  0  0  0
 18 13  1  0  0  0
 26 21  1  0  0  0
 11  4  1  0  0  0
 28 30  1  0  0  0
M  END
> <minimizedAffinity>
10.95586

> <CNNscore>
0.6508983970

> <CNNaffinity>
7.8319029808

> <CNN_VS>
5.0977730751

> <CNNaffinity_variance>
1.0335609913

$$$$
[H]OC(=O)c1c([H])c([H])c(N2C(=O)N(c3c([H])c([H])c(C#N)c([H])c3[H])C(=O)C23C([H])([H])C([H])([H])N(C([H])([H])c2nc([H])c([H])c([H])c2C([H])([H])[H])C([H])([H])C3([H])[H])c([H])c1[H]


 38 42  0  0  0  0  0  0  0  0999 V2000
   13.1744   20.5329    0.6945 N   0  0  0  0  0  0  0  0  0  0  0  0
   12.3628   21.0806    1.6550 C   0  0  0  0  0  0  0  0  0  0  0  0
   12.3717   22.6093    1.6496 C   0  0  0  0  0  0  0  0  0  0  0  0
   12.0046   23.1748    0.3546 C   0  0  0  0  0  0  0  0  0  0  0  0
   12.0470   22.1412   -0.7460 C   0  0  0  0  0  0  0  0  0  0  0  0
   13.2621   21.3039   -0.5256 C   0  0  0  0  0  0  0  0  0  0  0  0
   10.8347   24.0158    0.3074 N   0  0  0  0  0  0  0  0  0  0  0  0
   10.9830   24.6439   -1.0148 C   0  0  0  0  0  0  0  0  0  0  0  0
   10.0559   24.9976   -1.7572 O   0  0  0  0  0  0  0  0  0  0  0  0
   12.3801   24.7831   -1.2863 N   0  0  0  0  0  0  0  0  0  0  0  0
   13.0388   24.2174   -0.1167 C   0  0  0  0  0  0  0  0  0  0  0  0
   14.1112   24.5087    0.3325 O   0  0  0  0  0  0  0  0  0  0  0  0
   12.9940   25.3555   -2.4281 C   0  0  0  0  0  0  0  0  0  0  0  0
   12.5072   26.5204   -3.0094 C   0  0  0  0  0  0  0  0  0  0  0  0
   13.1253   27.0580   -4.1673 C   0  0  0  0  0  0  0  0  0  0  0  0
   14.2090   26.4333   -4.7297 C   0  0  0  0  0  0  0  0  0  0  0  0
   14.6751   25.2947   -4.1504 C   0  0  0  0  0  0  0  0  0  0  0  0
   14.0711   24.7651   -3.0192 C   0  0  0  0  0  0  0  0  0  0  0  0
   14.8408   26.9303   -5.9248 C   0  0  0  0  0  0  0  0  0  0  0  0
   15.3695   27.3375   -6.8682 N   0  0  0  0  0  0  0  0  0  0  0  0
    9.7773   24.3243    1.1224 C   0  0  0  0  0  0  0  0  0  0  0  0
    8.4841   23.8482    1.0195 C   0  0  0  0  0  0  0  0  0  0  0  0
    7.4338   24.1617    1.8325 C   0  0  0  0  0  0  0  0  0  0  0  0
    7.6590   25.0541    2.8838 C   0  0  0  0  0  0  0  0  0  0  0  0
    8.9261   25.5383    3.0172 C   0  0  0  0  0  0  0  0  0  0  0  0
    9.9748   25.2371    2.2194 C   0  0  0  0  0  0  0  0  0  0  0  0
    6.5773   25.4296    3.7611 C   0  0  0  0  0  0  0  0  0  0  0  0
    6.0012   24.4808    4.6257 O   0  0  0  0  0  0  0  0  0  0  0  0
    6.1138   26.5863    3.7897 O   0  0  0  0  0  0  0  0  0  0  0  0
    5.5725   23.6780    4.1245 H   0  0  0  0  0  0  0  0  0  0  0  0
   14.2963   19.7931    0.9899 C   0  0  0  0  0  0  0  0  0  0  0  0
   16.5105   18.3876   -0.1056 C   0  0  0  0  0  0  0  0  0  0  0  0
   16.6754   19.7618    0.3851 C   0  0  0  0  0  0  0  0  0  0  0  0
   17.9084   20.4629    0.3070 C   0  0  0  0  0  0  0  0  0  0  0  0
   17.9953   21.6951    0.8716 C   0  0  0  0  0  0  0  0  0  0  0  0
   16.9756   22.3076    1.5143 C   0  0  0  0  0  0  0  0  0  0  0  0
   15.8006   21.6198    1.5791 N   0  0  0  0  0  0  0  0  0  0  0  0
   15.6439   20.3680    1.0249 C   0  0  0  0  0  0  0  0  0  0  0  0
 32 33  1  0  0  0
 33 34  2  0  0  0
 34 35  1  0  0  0
 35 36  2  0  0  0
 36 37  1  0  0  0
 37 38  2  0  0  0
 38 31  1  0  0  0
 31  1  1  0  0  0
  1  2  1  0  0  0
  2  3  1  0  0  0
  3  4  1  0  0  0
  4  5  1  0  0  0
  5  6  1  0  0  0
  4  7  1  0  0  0
  7  8  1  0  0  0
  8  9  2  0  0  0
  8 10  1  0  0  0
 10 11  1  0  0  0
 11 12  2  0  0  0
 10 13  1  0  0  0
 13 14  2  0  0  0
 14 15  1  0  0  0
 15 16  2  0  0  0
 16 17  1  0  0  0
 17 18  2  0  0  0
 16 19  1  0  0  0
 19 20  3  0  0  0
  7 21  1  0  0  0
 21 22  2  0  0  0
 22 23  1  0  0  0
 23 24  2  0  0  0
 24 25  1  0  0  0
 25 26  2  0  0  0
 24 27  1  0  0  0
 27 28  1  0  0  0
 27 29  2  0  0  0
 38 33  1  0  0  0
  6  1  1  0  0  0
 18 13  1  0  0  0
 26 21  1  0  0  0
 11  4  1  0  0  0
 28 30  1  0  0  0
M  END
> <minimizedAffinity>
10.55507

> <CNNscore>
0.6407606006

> <CNNaffinity>
7.5849051476

> <CNN_VS>
4.8601083755

> <CNNaffinity_variance>
0.7556082606

$$$$
[H]OC(=O)c1c([H])c([H])c(N2C(=O)N(c3c([H])c([H])c(C#N)c([H])c3[H])C(=O)C23C([H])([H])C([H])([H])N(C([H])([H])c2nc([H])c([H])c([H])c2C([H])([H])[H])C([H])([H])C3([H])[H])c([H])c1[H]


 38 42  0  0  0  0  0  0  0  0999 V2000
   11.7107   22.8087   -0.4678 N   0  0  0  0  0  0  0  0  0  0  0  0
   11.7016   23.5903   -1.5948 C   0  0  0  0  0  0  0  0  0  0  0  0
   12.7431   24.7088   -1.5594 C   0  0  0  0  0  0  0  0  0  0  0  0
   14.1006   24.2143   -1.3488 C   0  0  0  0  0  0  0  0  0  0  0  0
   14.1124   22.7811   -0.8721 C   0  0  0  0  0  0  0  0  0  0  0  0
   13.0161   22.6345    0.1292 C   0  0  0  0  0  0  0  0  0  0  0  0
   15.0707   24.4839   -2.3805 N   0  0  0  0  0  0  0  0  0  0  0  0
   16.3273   24.1577   -1.6885 C   0  0  0  0  0  0  0  0  0  0  0  0
   17.3500   23.7019   -2.2197 O   0  0  0  0  0  0  0  0  0  0  0  0
   16.1645   24.4682   -0.3020 N   0  0  0  0  0  0  0  0  0  0  0  0
   14.7987   24.9631   -0.1953 C   0  0  0  0  0  0  0  0  0  0  0  0
   14.3639   25.7474    0.6000 O   0  0  0  0  0  0  0  0  0  0  0  0
   17.1182   24.3399    0.7383 C   0  0  0  0  0  0  0  0  0  0  0  0
   17.1374   23.2307    1.5756 C   0  0  0  0  0  0  0  0  0  0  0  0
   18.0868   23.1395    2.6255 C   0  0  0  0  0  0  0  0  0  0  0  0
   18.9956   24.1461    2.8295 C   0  0  0  0  0  0  0  0  0  0  0  0
   18.9659   25.2253    2.0025 C   0  0  0  0  0  0  0  0  0  0  0  0
   18.0369   25.3185    0.9763 C   0  0  0  0  0  0  0  0  0  0  0  0
   19.9513   24.1044    3.9062 C   0  0  0  0  0  0  0  0  0  0  0  0
   20.6976   24.0631    4.7875 N   0  0  0  0  0  0  0  0  0  0  0  0
   15.0720   24.9329   -3.6751 C   0  0  0  0  0  0  0  0  0  0  0  0
   14.6158   26.1556   -4.1294 C   0  0  0  0  0  0  0  0  0  0  0  0
   14.6167   26.5963   -5.4211 C   0  0  0  0  0  0  0  0  0  0  0  0
   15.1230   25.7448   -6.4065 C   0  0  0  0  0  0  0  0  0  0  0  0
   15.5870   24.5325   -5.9910 C   0  0  0  0  0  0  0  0  0  0  0  0
   15.5916   24.0832   -4.7162 C   0  0  0  0  0  0  0  0  0  0  0  0
   15.1308   26.1581   -7.7884 C   0  0  0  0  0  0  0  0  0  0  0  0
   14.2682   25.5482   -8.7178 O   0  0  0  0  0  0  0  0  0  0  0  0
   15.8876   27.0535   -8.2116 O   0  0  0  0  0  0  0  0  0  0  0  0
   14.4342   24.5278   -8.8212 H   0  0  0  0  0  0  0  0  0  0  0  0
   10.6601   22.7551    0.4193 C   0  0  0  0  0  0  0  0  0  0  0  0
    8.1910   23.3405    1.6995 C   0  0  0  0  0  0  0  0  0  0  0  0
    8.2748   22.2549    0.7142 C   0  0  0  0  0  0  0  0  0  0  0  0
    7.1487   21.4811    0.3257 C   0  0  0  0  0  0  0  0  0  0  0  0
    7.3360   20.4352   -0.5203 C   0  0  0  0  0  0  0  0  0  0  0  0
    8.5378   20.0732   -1.0229 C   0  0  0  0  0  0  0  0  0  0  0  0
    9.6066   20.8273   -0.6392 N   0  0  0  0  0  0  0  0  0  0  0  0
    9.4857   21.9030    0.2134 C   0  0  0  0  0  0  0  0  0  0  0  0
 32 33  1  0  0  0
 33 34  2  0  0  0
 34 35  1  0  0  0
 35 36  2  0  0  0
 36 37  1  0  0  0
 37 38  2  0  0  0
 38 31  1  0  0  0
 31  1  1  0  0  0
  1  2  1  0  0  0
  2  3  1  0  0  0
  3  4  1  0  0  0
  4  5  1  0  0  0
  5  6  1  0  0  0
  4  7  1  0  0  0
  7  8  1  0  0  0
  8  9  2  0  0  0
  8 10  1  0  0  0
 10 11  1  0  0  0
 11 12  2  0  0  0
 10 13  1  0  0  0
 13 14  2  0  0  0
 14 15  1  0  0  0
 15 16  2  0  0  0
 16 17  1  0  0  0
 17 18  2  0  0  0
 16 19  1  0  0  0
 19 20  3  0  0  0
  7 21  1  0  0  0
 21 22  2  0  0  0
 22 23  1  0  0  0
 23 24  2  0  0  0
 24 25  1  0  0  0
 25 26  2  0  0  0
 24 27  1  0  0  0
 27 28  1  0  0  0
 27 29  2  0  0  0
 38 33  1  0  0  0
  6  1  1  0  0  0
 18 13  1  0  0  0
 26 21  1  0  0  0
 11  4  1  0  0  0
 28 30  1  0  0  0
M  END
> <minimizedAffinity>
16.50724

> <CNNscore>
0.6312346458

> <CNNaffinity>
7.9504036903

> <CNN_VS>
5.0185704231

> <CNNaffinity_variance>
1.0033136606

$$$$
[H]OC(=O)c1c([H])c([H])c(N2C(=O)N(c3c([H])c([H])c(C#N)c([H])c3[H])C(=O)C23C([H])([H])C([H])([H])N(C([H])([H])c2nc([H])c([H])c([H])c2C([H])([H])[H])C([H])([H])C3([H])[H])c([H])c1[H]


 38 42  0  0  0  0  0  0  0  0999 V2000
   12.1191   21.9184   -0.7940 N   0  0  0  0  0  0  0  0  0  0  0  0
   12.0388   22.7695   -1.8665 C   0  0  0  0  0  0  0  0  0  0  0  0
   12.8993   24.0227   -1.7054 C   0  0  0  0  0  0  0  0  0  0  0  0
   14.3058   23.7181   -1.4593 C   0  0  0  0  0  0  0  0  0  0  0  0
   14.5123   22.2715   -1.0773 C   0  0  0  0  0  0  0  0  0  0  0  0
   13.4107   21.8943   -0.1445 C   0  0  0  0  0  0  0  0  0  0  0  0
   15.2656   24.2005   -2.4208 N   0  0  0  0  0  0  0  0  0  0  0  0
   16.5279   24.0125   -1.6889 C   0  0  0  0  0  0  0  0  0  0  0  0
   17.6278   23.7506   -2.1963 O   0  0  0  0  0  0  0  0  0  0  0  0
   16.2648   24.1950   -0.2951 N   0  0  0  0  0  0  0  0  0  0  0  0
   14.8371   24.4758   -0.2254 C   0  0  0  0  0  0  0  0  0  0  0  0
   14.2584   25.1286    0.5964 O   0  0  0  0  0  0  0  0  0  0  0  0
   17.1842   24.1327    0.7815 C   0  0  0  0  0  0  0  0  0  0  0  0
   17.1318   23.1141    1.7257 C   0  0  0  0  0  0  0  0  0  0  0  0
   18.0483   23.0900    2.8080 C   0  0  0  0  0  0  0  0  0  0  0  0
   18.9956   24.0731    2.9380 C   0  0  0  0  0  0  0  0  0  0  0  0
   19.0359   25.0634    2.0068 C   0  0  0  0  0  0  0  0  0  0  0  0
   18.1391   25.0911    0.9485 C   0  0  0  0  0  0  0  0  0  0  0  0
   19.9199   24.1007    4.0422 C   0  0  0  0  0  0  0  0  0  0  0  0
   20.6403   24.1175    4.9456 N   0  0  0  0  0  0  0  0  0  0  0  0
   15.2520   24.7371   -3.6814 C   0  0  0  0  0  0  0  0  0  0  0  0
   14.8748   26.0190   -4.0333 C   0  0  0  0  0  0  0  0  0  0  0  0
   14.8602   26.5472   -5.2916 C   0  0  0  0  0  0  0  0  0  0  0  0
   15.2609   25.7309   -6.3525 C   0  0  0  0  0  0  0  0  0  0  0  0
   15.6453   24.4614   -6.0390 C   0  0  0  0  0  0  0  0  0  0  0  0
   15.6639   23.9254   -4.7983 C   0  0  0  0  0  0  0  0  0  0  0  0
   15.2477   26.2376   -7.7030 C   0  0  0  0  0  0  0  0  0  0  0  0
   14.6488   25.4931   -8.7358 O   0  0  0  0  0  0  0  0  0  0  0  0
   15.7574   27.3333   -8.0083 O   0  0  0  0  0  0  0  0  0  0  0  0
   15.0941   24.5659   -8.8826 H   0  0  0  0  0  0  0  0  0  0  0  0
   11.0535   21.6479    0.0334 C   0  0  0  0  0  0  0  0  0  0  0  0
   10.5387   23.7587    1.8658 C   0  0  0  0  0  0  0  0  0  0  0  0
   10.8236   22.4047    2.3575 C   0  0  0  0  0  0  0  0  0  0  0  0
   10.8201   22.0720    3.7385 C   0  0  0  0  0  0  0  0  0  0  0  0
   11.1881   20.8181    4.1087 C   0  0  0  0  0  0  0  0  0  0  0  0
   11.5655   19.8522    3.2411 C   0  0  0  0  0  0  0  0  0  0  0  0
   11.5626   20.1896    1.9205 N   0  0  0  0  0  0  0  0  0  0  0  0
   11.1975   21.4422    1.4772 C   0  0  0  0  0  0  0  0  0  0  0  0
 32 33  1  0  0  0
 33 34  2  0  0  0
 34 35  1  0  0  0
 35 36  2  0  0  0
 36 37  1  0  0  0
 37 38  2  0  0  0
 38 31  1  0  0  0
 31  1  1  0  0  0
  1  2  1  0  0  0
  2  3  1  0  0  0
  3  4  1  0  0  0
  4  5  1  0  0  0
  5  6  1  0  0  0
  4  7  1  0  0  0
  7  8  1  0  0  0
  8  9  2  0  0  0
  8 10  1  0  0  0
 10 11  1  0  0  0
 11 12  2  0  0  0
 10 13  1  0  0  0
 13 14  2  0  0  0
 14 15  1  0  0  0
 15 16  2  0  0  0
 16 17  1  0  0  0
 17 18  2  0  0  0
 16 19  1  0  0  0
 19 20  3  0  0  0
  7 21  1  0  0  0
 21 22  2  0  0  0
 22 23  1  0  0  0
 23 24  2  0  0  0
 24 25  1  0  0  0
 25 26  2  0  0  0
 24 27  1  0  0  0
 27 28  1  0  0  0
 27 29  2  0  0  0
 38 33  1  0  0  0
  6  1  1  0  0  0
 18 13  1  0  0  0
 26 21  1  0  0  0
 11  4  1  0  0  0
 28 30  1  0  0  0
M  END
> <minimizedAffinity>
16.80662

> <CNNscore>
0.6174035072

> <CNNaffinity>
8.0145874023

> <CNN_VS>
4.9482345581

> <CNNaffinity_variance>
0.8885774612

$$$$
[H]OC(=O)c1c([H])c([H])c(N2C(=O)N(c3c([H])c([H])c(C#N)c([H])c3[H])C(=O)C23C([H])([H])C([H])([H])N(C([H])([H])c2nc([H])c([H])c([H])c2C([H])([H])[H])C([H])([H])C3([H])[H])c([H])c1[H]


 38 42  0  0  0  0  0  0  0  0999 V2000
   11.0577   22.4635   -1.6598 N   0  0  0  0  0  0  0  0  0  0  0  0
   10.4316   23.6551   -1.9227 C   0  0  0  0  0  0  0  0  0  0  0  0
   11.1603   24.8610   -1.3297 C   0  0  0  0  0  0  0  0  0  0  0  0
   12.5485   24.9592   -1.7713 C   0  0  0  0  0  0  0  0  0  0  0  0
   13.0293   23.6791   -2.4131 C   0  0  0  0  0  0  0  0  0  0  0  0
   12.5001   22.5457   -1.5999 C   0  0  0  0  0  0  0  0  0  0  0  0
   12.9295   26.1441   -2.4986 N   0  0  0  0  0  0  0  0  0  0  0  0
   14.3970   26.0444   -2.4659 C   0  0  0  0  0  0  0  0  0  0  0  0
   15.1709   26.4530   -3.3434 O   0  0  0  0  0  0  0  0  0  0  0  0
   14.7717   25.4047   -1.2430 N   0  0  0  0  0  0  0  0  0  0  0  0
   13.5083   25.1223   -0.5751 C   0  0  0  0  0  0  0  0  0  0  0  0
   13.3050   25.0410    0.6033 O   0  0  0  0  0  0  0  0  0  0  0  0
   16.0777   25.1193   -0.7725 C   0  0  0  0  0  0  0  0  0  0  0  0
   17.1800   25.1541   -1.6183 C   0  0  0  0  0  0  0  0  0  0  0  0
   18.4727   24.8391   -1.1268 C   0  0  0  0  0  0  0  0  0  0  0  0
   18.6506   24.4933    0.1883 C   0  0  0  0  0  0  0  0  0  0  0  0
   17.5635   24.4639    1.0048 C   0  0  0  0  0  0  0  0  0  0  0  0
   16.2974   24.7690    0.5265 C   0  0  0  0  0  0  0  0  0  0  0  0
   19.9422   24.1337    0.7146 C   0  0  0  0  0  0  0  0  0  0  0  0
   20.9666   23.8234    1.1501 N   0  0  0  0  0  0  0  0  0  0  0  0
   12.3058   27.2006   -3.1086 C   0  0  0  0  0  0  0  0  0  0  0  0
   11.6208   27.1792   -4.3085 C   0  0  0  0  0  0  0  0  0  0  0  0
   11.0041   28.2359   -4.9131 C   0  0  0  0  0  0  0  0  0  0  0  0
   11.0556   29.4793   -4.2778 C   0  0  0  0  0  0  0  0  0  0  0  0
   11.7190   29.5339   -3.0885 C   0  0  0  0  0  0  0  0  0  0  0  0
   12.3345   28.4963   -2.4790 C   0  0  0  0  0  0  0  0  0  0  0  0
   10.4331   30.6304   -4.8845 C   0  0  0  0  0  0  0  0  0  0  0  0
    9.2480   30.4878   -5.6295 O   0  0  0  0  0  0  0  0  0  0  0  0
   10.9088   31.7777   -4.7796 O   0  0  0  0  0  0  0  0  0  0  0  0
    9.3573   29.8695   -6.4573 H   0  0  0  0  0  0  0  0  0  0  0  0
   10.5040   21.4801   -0.8726 C   0  0  0  0  0  0  0  0  0  0  0  0
    8.7177   20.2117   -2.6833 C   0  0  0  0  0  0  0  0  0  0  0  0
    8.2375   20.6836   -1.3783 C   0  0  0  0  0  0  0  0  0  0  0  0
    6.8979   20.5035   -0.9414 C   0  0  0  0  0  0  0  0  0  0  0  0
    6.5167   21.0558    0.2394 C   0  0  0  0  0  0  0  0  0  0  0  0
    7.3353   21.7777    1.0374 C   0  0  0  0  0  0  0  0  0  0  0  0
    8.6168   21.9399    0.6020 N   0  0  0  0  0  0  0  0  0  0  0  0
    9.0691   21.4037   -0.5840 C   0  0  0  0  0  0  0  0  0  0  0  0
 32 33  1  0  0  0
 33 34  2  0  0  0
 34 35  1  0  0  0
 35 36  2  0  0  0
 36 37  1  0  0  0
 37 38  2  0  0  0
 38 31  1  0  0  0
 31  1  1  0  0  0
  1  2  1  0  0  0
  2  3  1  0  0  0
  3  4  1  0  0  0
  4  5  1  0  0  0
  5  6  1  0  0  0
  4  7  1  0  0  0
  7  8  1  0  0  0
  8  9  2  0  0  0
  8 10  1  0  0  0
 10 11  1  0  0  0
 11 12  2  0  0  0
 10 13  1  0  0  0
 13 14  2  0  0  0
 14 15  1  0  0  0
 15 16  2  0  0  0
 16 17  1  0  0  0
 17 18  2  0  0  0
 16 19  1  0  0  0
 19 20  3  0  0  0
  7 21  1  0  0  0
 21 22  2  0  0  0
 22 23  1  0  0  0
 23 24  2  0  0  0
 24 25  1  0  0  0
 25 26  2  0  0  0
 24 27  1  0  0  0
 27 28  1  0  0  0
 27 29  2  0  0  0
 38 33  1  0  0  0
  6  1  1  0  0  0
 18 13  1  0  0  0
 26 21  1  0  0  0
 11  4  1  0  0  0
 28 30  1  0  0  0
M  END
> <minimizedAffinity>
26.55161

> <CNNscore>
0.6106147766

> <CNNaffinity>
7.3144593239

> <CNN_VS>
4.4663171768

> <CNNaffinity_variance>
1.2256910801

$$$$
[H]OC(=O)c1c([H])c([H])c(N2C(=O)N(c3c([H])c([H])c(C#N)c([H])c3[H])C(=O)C23C([H])([H])C([H])([H])N(C([H])([H])c2nc([H])c([H])c([H])c2C([H])([H])[H])C([H])([H])C3([H])[H])c([H])c1[H]


 38 42  0  0  0  0  0  0  0  0999 V2000
   12.1420   25.7085   -2.1784 N   0  0  0  0  0  0  0  0  0  0  0  0
   10.9425   25.1525   -1.8134 C   0  0  0  0  0  0  0  0  0  0  0  0
   11.0340   23.6513   -1.5400 C   0  0  0  0  0  0  0  0  0  0  0  0
   12.0278   23.3186   -0.5235 C   0  0  0  0  0  0  0  0  0  0  0  0
   12.9590   24.4745   -0.2439 C   0  0  0  0  0  0  0  0  0  0  0  0
   13.2971   25.1026   -1.5543 C   0  0  0  0  0  0  0  0  0  0  0  0
   11.5593   22.6576    0.6689 N   0  0  0  0  0  0  0  0  0  0  0  0
   12.8250   22.1974    1.2609 C   0  0  0  0  0  0  0  0  0  0  0  0
   13.0562   22.0747    2.4723 O   0  0  0  0  0  0  0  0  0  0  0  0
   13.7343   21.9077    0.1958 N   0  0  0  0  0  0  0  0  0  0  0  0
   12.9891   22.2179   -1.0167 C   0  0  0  0  0  0  0  0  0  0  0  0
   13.1193   21.7267   -2.1023 O   0  0  0  0  0  0  0  0  0  0  0  0
   15.0597   21.4150    0.2903 C   0  0  0  0  0  0  0  0  0  0  0  0
   16.0601   22.1351    0.9327 C   0  0  0  0  0  0  0  0  0  0  0  0
   17.3844   21.6304    0.9904 C   0  0  0  0  0  0  0  0  0  0  0  0
   17.6950   20.4271    0.4104 C   0  0  0  0  0  0  0  0  0  0  0  0
   16.7064   19.7328   -0.2143 C   0  0  0  0  0  0  0  0  0  0  0  0
   15.4107   20.2251   -0.2746 C   0  0  0  0  0  0  0  0  0  0  0  0
   19.0352   19.8995    0.4188 C   0  0  0  0  0  0  0  0  0  0  0  0
   20.1025   19.4569    0.4068 N   0  0  0  0  0  0  0  0  0  0  0  0
   10.3580   22.3891    1.2708 C   0  0  0  0  0  0  0  0  0  0  0  0
    9.4917   21.3556    0.9692 C   0  0  0  0  0  0  0  0  0  0  0  0
    8.2945   21.0950    1.5702 C   0  0  0  0  0  0  0  0  0  0  0  0
    7.8751   21.9443    2.5974 C   0  0  0  0  0  0  0  0  0  0  0  0
    8.7097   22.9712    2.9240 C   0  0  0  0  0  0  0  0  0  0  0  0
    9.8970   23.2413    2.3371 C   0  0  0  0  0  0  0  0  0  0  0  0
    6.6099   21.7205    3.2529 C   0  0  0  0  0  0  0  0  0  0  0  0
    5.9985   20.4541    3.2048 O   0  0  0  0  0  0  0  0  0  0  0  0
    6.0140   22.6207    3.8758 O   0  0  0  0  0  0  0  0  0  0  0  0
    5.7719   20.1459    2.2388 H   0  0  0  0  0  0  0  0  0  0  0  0
   12.3753   26.2436   -3.4244 C   0  0  0  0  0  0  0  0  0  0  0  0
   14.2694   24.1787   -3.9007 C   0  0  0  0  0  0  0  0  0  0  0  0
   14.5764   25.5653   -4.2742 C   0  0  0  0  0  0  0  0  0  0  0  0
   15.7888   25.9386   -4.9133 C   0  0  0  0  0  0  0  0  0  0  0  0
   16.0302   27.2564   -5.1363 C   0  0  0  0  0  0  0  0  0  0  0  0
   15.1852   28.2515   -4.7842 C   0  0  0  0  0  0  0  0  0  0  0  0
   14.0271   27.8743   -4.1723 N   0  0  0  0  0  0  0  0  0  0  0  0
   13.7190   26.5553   -3.9193 C   0  0  0  0  0  0  0  0  0  0  0  0
 32 33  1  0  0  0
 33 34  2  0  0  0
 34 35  1  0  0  0
 35 36  2  0  0  0
 36 37  1  0  0  0
 37 38  2  0  0  0
 38 31  1  0  0  0
 31  1  1  0  0  0
  1  2  1  0  0  0
  2  3  1  0  0  0
  3  4  1  0  0  0
  4  5  1  0  0  0
  5  6  1  0  0  0
  4  7  1  0  0  0
  7  8  1  0  0  0
  8  9  2  0  0  0
  8 10  1  0  0  0
 10 11  1  0  0  0
 11 12  2  0  0  0
 10 13  1  0  0  0
 13 14  2  0  0  0
 14 15  1  0  0  0
 15 16  2  0  0  0
 16 17  1  0  0  0
 17 18  2  0  0  0
 16 19  1  0  0  0
 19 20  3  0  0  0
  7 21  1  0  0  0
 21 22  2  0  0  0
 22 23  1  0  0  0
 23 24  2  0  0  0
 24 25  1  0  0  0
 25 26  2  0  0  0
 24 27  1  0  0  0
 27 28  1  0  0  0
 27 29  2  0  0  0
 38 33  1  0  0  0
  6  1  1  0  0  0
 18 13  1  0  0  0
 26 21  1  0  0  0
 11  4  1  0  0  0
 28 30  1  0  0  0
M  END
> <minimizedAffinity>
13.88139

> <CNNscore>
0.5819469690

> <CNNaffinity>
7.5994176865

> <CNN_VS>
4.4224581718

> <CNNaffinity_variance>
0.4373284280

$$$$
[H]OC(=O)c1c([H])c([H])c(N2C(=O)N(c3c([H])c([H])c(C#N)c([H])c3[H])C(=O)C23C([H])([H])C([H])([H])N(C([H])([H])c2nc([H])c([H])c([H])c2C([H])([H])[H])C([H])([H])C3([H])[H])c([H])c1[H]


 38 42  0  0  0  0  0  0  0  0999 V2000
   10.0721   23.7504   -0.9658 N   0  0  0  0  0  0  0  0  0  0  0  0
   10.5067   24.6296   -1.9246 C   0  0  0  0  0  0  0  0  0  0  0  0
   11.9200   25.1514   -1.6658 C   0  0  0  0  0  0  0  0  0  0  0  0
   12.9055   24.0819   -1.5364 C   0  0  0  0  0  0  0  0  0  0  0  0
   12.2537   22.7336   -1.3393 C   0  0  0  0  0  0  0  0  0  0  0  0
   11.1125   22.9228   -0.3970 C   0  0  0  0  0  0  0  0  0  0  0  0
   13.9892   24.0619   -2.4868 N   0  0  0  0  0  0  0  0  0  0  0  0
   14.9115   23.1061   -1.8540 C   0  0  0  0  0  0  0  0  0  0  0  0
   15.6828   22.3405   -2.4496 O   0  0  0  0  0  0  0  0  0  0  0  0
   14.7689   23.2236   -0.4359 N   0  0  0  0  0  0  0  0  0  0  0  0
   13.7463   24.2449   -0.2538 C   0  0  0  0  0  0  0  0  0  0  0  0
   13.6194   24.9976    0.6703 O   0  0  0  0  0  0  0  0  0  0  0  0
   15.4718   22.5186    0.5727 C   0  0  0  0  0  0  0  0  0  0  0  0
   15.1311   21.2176    0.9237 C   0  0  0  0  0  0  0  0  0  0  0  0
   15.8348   20.5440    1.9546 C   0  0  0  0  0  0  0  0  0  0  0  0
   16.8581   21.1691    2.6202 C   0  0  0  0  0  0  0  0  0  0  0  0
   17.1812   22.4418    2.2663 C   0  0  0  0  0  0  0  0  0  0  0  0
   16.4931   23.1042    1.2599 C   0  0  0  0  0  0  0  0  0  0  0  0
   17.5719   20.5296    3.6954 C   0  0  0  0  0  0  0  0  0  0  0  0
   18.1636   20.0372    4.5572 N   0  0  0  0  0  0  0  0  0  0  0  0
   14.3056   24.6707   -3.6729 C   0  0  0  0  0  0  0  0  0  0  0  0
   13.7843   25.8526   -4.1636 C   0  0  0  0  0  0  0  0  0  0  0  0
   14.1010   26.4527   -5.3477 C   0  0  0  0  0  0  0  0  0  0  0  0
   15.0443   25.8302   -6.1693 C   0  0  0  0  0  0  0  0  0  0  0  0
   15.5829   24.6648   -5.7118 C   0  0  0  0  0  0  0  0  0  0  0  0
   15.2783   24.0593   -4.5424 C   0  0  0  0  0  0  0  0  0  0  0  0
   15.4008   26.4165   -7.4381 C   0  0  0  0  0  0  0  0  0  0  0  0
   14.5604   26.2585   -8.5555 O   0  0  0  0  0  0  0  0  0  0  0  0
   16.4480   27.0733   -7.5976 O   0  0  0  0  0  0  0  0  0  0  0  0
   14.4304   25.2655   -8.8321 H   0  0  0  0  0  0  0  0  0  0  0  0
    9.0229   24.0203   -0.1175 C   0  0  0  0  0  0  0  0  0  0  0  0
    7.7682   21.5952    0.6718 C   0  0  0  0  0  0  0  0  0  0  0  0
    8.5285   22.3868    1.6473 C   0  0  0  0  0  0  0  0  0  0  0  0
    8.7087   21.9777    2.9956 C   0  0  0  0  0  0  0  0  0  0  0  0
    9.3449   22.8174    3.8529 C   0  0  0  0  0  0  0  0  0  0  0  0
    9.8226   24.0340    3.5069 C   0  0  0  0  0  0  0  0  0  0  0  0
    9.6406   24.4094    2.2093 N   0  0  0  0  0  0  0  0  0  0  0  0
    9.0067   23.6046    1.2877 C   0  0  0  0  0  0  0  0  0  0  0  0
 32 33  1  0  0  0
 33 34  2  0  0  0
 34 35  1  0  0  0
 35 36  2  0  0  0
 36 37  1  0  0  0
 37 38  2  0  0  0
 38 31  1  0  0  0
 31  1  1  0  0  0
  1  2  1  0  0  0
  2  3  1  0  0  0
  3  4  1  0  0  0
  4  5  1  0  0  0
  5  6  1  0  0  0
  4  7  1  0  0  0
  7  8  1  0  0  0
  8  9  2  0  0  0
  8 10  1  0  0  0
 10 11  1  0  0  0
 11 12  2  0  0  0
 10 13  1  0  0  0
 13 14  2  0  0  0
 14 15  1  0  0  0
 15 16  2  0  0  0
 16 17  1  0  0  0
 17 18  2  0  0  0
 16 19  1  0  0  0
 19 20  3  0  0  0
  7 21  1  0  0  0
 21 22  2  0  0  0
 22 23  1  0  0  0
 23 24  2  0  0  0
 24 25  1  0  0  0
 25 26  2  0  0  0
 24 27  1  0  0  0
 27 28  1  0  0  0
 27 29  2  0  0  0
 38 33  1  0  0  0
  6  1  1  0  0  0
 18 13  1  0  0  0
 26 21  1  0  0  0
 11  4  1  0  0  0
 28 30  1  0  0  0
M  END
> <minimizedAffinity>
15.92926

> <CNNscore>
0.5715023875

> <CNNaffinity>
7.6167297363

> <CNN_VS>
4.3529791832

> <CNNaffinity_variance>
0.9663422704

$$$$
[H]OC(=O)c1c([H])c([H])c(N2C(=O)N(c3c([H])c([H])c(C#N)c([H])c3[H])C(=O)C23C([H])([H])C([H])([H])N(C([H])([H])c2nc([H])c([H])c([H])c2C([H])([H])[H])C([H])([H])C3([H])[H])c([H])c1[H]


 38 42  0  0  0  0  0  0  0  0999 V2000
   16.3661   24.4943    0.7156 N   0  0  0  0  0  0  0  0  0  0  0  0
   16.7687   24.5972   -0.5915 C   0  0  0  0  0  0  0  0  0  0  0  0
   15.8750   23.8210   -1.5589 C   0  0  0  0  0  0  0  0  0  0  0  0
   14.4712   24.2129   -1.4738 C   0  0  0  0  0  0  0  0  0  0  0  0
   14.1843   25.0210   -0.2304 C   0  0  0  0  0  0  0  0  0  0  0  0
   14.9350   24.3911    0.8946 C   0  0  0  0  0  0  0  0  0  0  0  0
   13.8617   24.7537   -2.6630 N   0  0  0  0  0  0  0  0  0  0  0  0
   12.4354   24.7030   -2.3059 C   0  0  0  0  0  0  0  0  0  0  0  0
   11.5634   25.4952   -2.6904 O   0  0  0  0  0  0  0  0  0  0  0  0
   12.2318   23.5766   -1.4486 N   0  0  0  0  0  0  0  0  0  0  0  0
   13.5545   22.9846   -1.3012 C   0  0  0  0  0  0  0  0  0  0  0  0
   13.8235   21.8349   -1.0951 O   0  0  0  0  0  0  0  0  0  0  0  0
   11.0163   23.1230   -0.8783 C   0  0  0  0  0  0  0  0  0  0  0  0
   10.4943   21.8702   -1.1782 C   0  0  0  0  0  0  0  0  0  0  0  0
    9.2627   21.4512   -0.6132 C   0  0  0  0  0  0  0  0  0  0  0  0
    8.5699   22.2782    0.2336 C   0  0  0  0  0  0  0  0  0  0  0  0
    9.0925   23.5009    0.5188 C   0  0  0  0  0  0  0  0  0  0  0  0
   10.2958   23.9146   -0.0343 C   0  0  0  0  0  0  0  0  0  0  0  0
    7.2999   21.9009    0.7986 C   0  0  0  0  0  0  0  0  0  0  0  0
    6.2893   21.6085    1.2767 N   0  0  0  0  0  0  0  0  0  0  0  0
   14.2686   25.2194   -3.8857 C   0  0  0  0  0  0  0  0  0  0  0  0
   13.8761   26.3941   -4.4985 C   0  0  0  0  0  0  0  0  0  0  0  0
   14.2824   26.8514   -5.7184 C   0  0  0  0  0  0  0  0  0  0  0  0
   15.1859   26.0722   -6.4457 C   0  0  0  0  0  0  0  0  0  0  0  0
   15.5981   24.9092   -5.8669 C   0  0  0  0  0  0  0  0  0  0  0  0
   15.2037   24.4441   -4.6606 C   0  0  0  0  0  0  0  0  0  0  0  0
   15.6330   26.5044   -7.7473 C   0  0  0  0  0  0  0  0  0  0  0  0
   15.4419   25.6830   -8.8736 O   0  0  0  0  0  0  0  0  0  0  0  0
   16.1983   27.6005   -7.9273 O   0  0  0  0  0  0  0  0  0  0  0  0
   15.9259   24.7667   -8.7983 H   0  0  0  0  0  0  0  0  0  0  0  0
   17.1143   23.8690    1.6864 C   0  0  0  0  0  0  0  0  0  0  0  0
   18.8653   23.4183   -0.5066 C   0  0  0  0  0  0  0  0  0  0  0  0
   19.3806   23.9790    0.7489 C   0  0  0  0  0  0  0  0  0  0  0  0
   20.7396   24.3546    0.9222 C   0  0  0  0  0  0  0  0  0  0  0  0
   21.1494   24.7753    2.1469 C   0  0  0  0  0  0  0  0  0  0  0  0
   20.3421   24.8596    3.2282 C   0  0  0  0  0  0  0  0  0  0  0  0
   19.0418   24.4951    3.0429 N   0  0  0  0  0  0  0  0  0  0  0  0
   18.5603   24.0625    1.8265 C   0  0  0  0  0  0  0  0  0  0  0  0
 32 33  1  0  0  0
 33 34  2  0  0  0
 34 35  1  0  0  0
 35 36  2  0  0  0
 36 37  1  0  0  0
 37 38  2  0  0  0
 38 31  1  0  0  0
 31  1  1  0  0  0
  1  2  1  0  0  0
  2  3  1  0  0  0
  3  4  1  0  0  0
  4  5  1  0  0  0
  5  6  1  0  0  0
  4  7  1  0  0  0
  7  8  1  0  0  0
  8  9  2  0  0  0
  8 10  1  0  0  0
 10 11  1  0  0  0
 11 12  2  0  0  0
 10 13  1  0  0  0
 13 14  2  0  0  0
 14 15  1  0  0  0
 15 16  2  0  0  0
 16 17  1  0  0  0
 17 18  2  0  0  0
 16 19  1  0  0  0
 19 20  3  0  0  0
  7 21  1  0  0  0
 21 22  2  0  0  0
 22 23  1  0  0  0
 23 24  2  0  0  0
 24 25  1  0  0  0
 25 26  2  0  0  0
 24 27  1  0  0  0
 27 28  1  0  0  0
 27 29  2  0  0  0
 38 33  1  0  0  0
  6  1  1  0  0  0
 18 13  1  0  0  0
 26 21  1  0  0  0
 11  4  1  0  0  0
 28 30  1  0  0  0
M  END
> <minimizedAffinity>
14.57627

> <CNNscore>
0.5669038296

> <CNNaffinity>
7.7494416237

> <CNN_VS>
4.3931879997

> <CNNaffinity_variance>
0.5480564833

$$$$
[H]OC(=O)c1c([H])c([H])c(N2C(=O)N(c3c([H])c([H])c(C#N)c([H])c3[H])C(=O)C23C([H])([H])C([H])([H])N(C([H])([H])c2nc([H])c([H])c([H])c2C([H])([H])[H])C([H])([H])C3([H])[H])c([H])c1[H]


 38 42  0  0  0  0  0  0  0  0999 V2000
   10.1130   23.7900   -1.1340 N   0  0  0  0  0  0  0  0  0  0  0  0
   10.5657   24.6827   -2.0718 C   0  0  0  0  0  0  0  0  0  0  0  0
   11.9762   25.1959   -1.7819 C   0  0  0  0  0  0  0  0  0  0  0  0
   12.9563   24.1213   -1.6534 C   0  0  0  0  0  0  0  0  0  0  0  0
   12.2974   22.7722   -1.4880 C   0  0  0  0  0  0  0  0  0  0  0  0
   11.1416   22.9503   -0.5615 C   0  0  0  0  0  0  0  0  0  0  0  0
   14.0552   24.1128   -2.5863 N   0  0  0  0  0  0  0  0  0  0  0  0
   14.9643   23.1443   -1.9538 C   0  0  0  0  0  0  0  0  0  0  0  0
   15.7429   22.3856   -2.5487 O   0  0  0  0  0  0  0  0  0  0  0  0
   14.7991   23.2400   -0.5365 N   0  0  0  0  0  0  0  0  0  0  0  0
   13.7767   24.2616   -0.3549 C   0  0  0  0  0  0  0  0  0  0  0  0
   13.6369   25.0002    0.5786 O   0  0  0  0  0  0  0  0  0  0  0  0
   15.4834   22.5171    0.4722 C   0  0  0  0  0  0  0  0  0  0  0  0
   15.1640   21.1965    0.7654 C   0  0  0  0  0  0  0  0  0  0  0  0
   15.8476   20.5043    1.7975 C   0  0  0  0  0  0  0  0  0  0  0  0
   16.8301   21.1302    2.5212 C   0  0  0  0  0  0  0  0  0  0  0  0
   17.1328   22.4222    2.2234 C   0  0  0  0  0  0  0  0  0  0  0  0
   16.4642   23.1028    1.2160 C   0  0  0  0  0  0  0  0  0  0  0  0
   17.5214   20.4707    3.5989 C   0  0  0  0  0  0  0  0  0  0  0  0
   18.0513   19.9335    4.4741 N   0  0  0  0  0  0  0  0  0  0  0  0
   14.3926   24.7390   -3.7575 C   0  0  0  0  0  0  0  0  0  0  0  0
   13.9017   25.9428   -4.2257 C   0  0  0  0  0  0  0  0  0  0  0  0
   14.2391   26.5603   -5.3950 C   0  0  0  0  0  0  0  0  0  0  0  0
   15.1726   25.9336   -6.2246 C   0  0  0  0  0  0  0  0  0  0  0  0
   15.6813   24.7465   -5.7892 C   0  0  0  0  0  0  0  0  0  0  0  0
   15.3559   24.1237   -4.6346 C   0  0  0  0  0  0  0  0  0  0  0  0
   15.5500   26.5382   -7.4787 C   0  0  0  0  0  0  0  0  0  0  0  0
   15.3034   25.8706   -8.6925 O   0  0  0  0  0  0  0  0  0  0  0  0
   16.1016   27.6541   -7.5408 O   0  0  0  0  0  0  0  0  0  0  0  0
   15.7938   24.9574   -8.7638 H   0  0  0  0  0  0  0  0  0  0  0  0
    9.0510   24.0499   -0.2986 C   0  0  0  0  0  0  0  0  0  0  0  0
    9.9468   24.9118    2.2573 C   0  0  0  0  0  0  0  0  0  0  0  0
    9.0779   23.7342    2.1359 C   0  0  0  0  0  0  0  0  0  0  0  0
    8.6156   23.0008    3.2612 C   0  0  0  0  0  0  0  0  0  0  0  0
    7.8942   21.8694    3.0513 C   0  0  0  0  0  0  0  0  0  0  0  0
    7.5840   21.3848    1.8278 C   0  0  0  0  0  0  0  0  0  0  0  0
    8.0358   22.1017    0.7602 N   0  0  0  0  0  0  0  0  0  0  0  0
    8.7697   23.2592    0.9028 C   0  0  0  0  0  0  0  0  0  0  0  0
 32 33  1  0  0  0
 33 34  2  0  0  0
 34 35  1  0  0  0
 35 36  2  0  0  0
 36 37  1  0  0  0
 37 38  2  0  0  0
 38 31  1  0  0  0
 31  1  1  0  0  0
  1  2  1  0  0  0
  2  3  1  0  0  0
  3  4  1  0  0  0
  4  5  1  0  0  0
  5  6  1  0  0  0
  4  7  1  0  0  0
  7  8  1  0  0  0
  8  9  2  0  0  0
  8 10  1  0  0  0
 10 11  1  0  0  0
 11 12  2  0  0  0
 10 13  1  0  0  0
 13 14  2  0  0  0
 14 15  1  0  0  0
 15 16  2  0  0  0
 16 17  1  0  0  0
 17 18  2  0  0  0
 16 19  1  0  0  0
 19 20  3  0  0  0
  7 21  1  0  0  0
 21 22  2  0  0  0
 22 23  1  0  0  0
 23 24  2  0  0  0
 24 25  1  0  0  0
 25 26  2  0  0  0
 24 27  1  0  0  0
 27 28  1  0  0  0
 27 29  2  0  0  0
 38 33  1  0  0  0
  6  1  1  0  0  0
 18 13  1  0  0  0
 26 21  1  0  0  0
 11  4  1  0  0  0
 28 30  1  0  0  0
M  END
> <minimizedAffinity>
14.31355

> <CNNscore>
0.5586677194

> <CNNaffinity>
7.6550989151

> <CNN_VS>
4.2766566277

> <CNNaffinity_variance>
1.0191355944

$$$$
[H]OC(=O)c1c([H])c([H])c(N2C(=O)N(c3c([H])c([H])c([H])c(-c4c([H])c([H])c([H])c([H])c4[H])c3[H])C3(C2=O)C([H])([H])C([H])([H])N(C([H])([H])c2nc([H])c([H])c([H])c2C([H])([H])[H])C([H])([H])C3([H])[H])c([H])c1[H]


 42 47  0  0  0  0  0  0  0  0999 V2000
   12.4767   26.5250   -3.3330 N   0  0  0  0  0  0  0  0  0  0  0  0
   11.8327   25.3626   -3.5410 C   0  0  0  0  0  0  0  0  0  0  0  0
   11.0775   24.8072   -2.3069 C   0  0  0  0  0  0  0  0  0  0  0  0
   11.9696   24.8704   -1.0804 C   0  0  0  0  0  0  0  0  0  0  0  0
   12.3957   26.3056   -0.9477 C   0  0  0  0  0  0  0  0  0  0  0  0
   13.2856   26.6073   -2.0944 C   0  0  0  0  0  0  0  0  0  0  0  0
   11.4216   24.3924    0.1092 N   0  0  0  0  0  0  0  0  0  0  0  0
   12.4964   23.6536    0.7993 C   0  0  0  0  0  0  0  0  0  0  0  0
   12.4624   23.3546    2.0387 O   0  0  0  0  0  0  0  0  0  0  0  0
   13.5313   23.3566   -0.1048 N   0  0  0  0  0  0  0  0  0  0  0  0
   13.1353   23.9402   -1.3315 C   0  0  0  0  0  0  0  0  0  0  0  0
   13.6895   23.6952   -2.4255 O   0  0  0  0  0  0  0  0  0  0  0  0
   14.6375   22.4567    0.1011 C   0  0  0  0  0  0  0  0  0  0  0  0
   14.5542   21.1140    0.0352 C   0  0  0  0  0  0  0  0  0  0  0  0
   15.6458   20.3078    0.3861 C   0  0  0  0  0  0  0  0  0  0  0  0
   16.8326   20.8620    0.8028 C   0  0  0  0  0  0  0  0  0  0  0  0
   16.9220   22.2320    0.8645 C   0  0  0  0  0  0  0  0  0  0  0  0
   15.8476   23.0015    0.5216 C   0  0  0  0  0  0  0  0  0  0  0  0
   17.9745   20.0619    1.2218 C   0  0  0  0  0  0  0  0  0  0  0  0
   18.0863   19.7417    2.5741 O   0  0  0  0  0  0  0  0  0  0  0  0
   18.8507   19.6362    0.4639 O   0  0  0  0  0  0  0  0  0  0  0  0
   17.8665   20.3911    3.3099 H   0  0  0  0  0  0  0  0  0  0  0  0
   10.1135   24.3222    0.7257 C   0  0  0  0  0  0  0  0  0  0  0  0
    9.2700   23.3398    0.1595 C   0  0  0  0  0  0  0  0  0  0  0  0
    7.9875   23.1299    0.5882 C   0  0  0  0  0  0  0  0  0  0  0  0
    7.5073   23.9035    1.6048 C   0  0  0  0  0  0  0  0  0  0  0  0
    8.3092   24.8909    2.2049 C   0  0  0  0  0  0  0  0  0  0  0  0
    9.6153   25.0742    1.7398 C   0  0  0  0  0  0  0  0  0  0  0  0
    7.6363   25.6797    3.2122 C   0  0  0  0  0  0  0  0  0  0  0  0
    8.3333   25.8946    4.4185 C   0  0  0  0  0  0  0  0  0  0  0  0
    7.9007   26.7113    5.4224 C   0  0  0  0  0  0  0  0  0  0  0  0
    6.7070   27.3792    5.2638 C   0  0  0  0  0  0  0  0  0  0  0  0
    5.9799   27.2074    4.1063 C   0  0  0  0  0  0  0  0  0  0  0  0
    6.4501   26.3626    3.1016 C   0  0  0  0  0  0  0  0  0  0  0  0
   13.0195   27.4239   -4.1931 C   0  0  0  0  0  0  0  0  0  0  0  0
   14.2929   29.8537   -4.4852 C   0  0  0  0  0  0  0  0  0  0  0  0
   15.1072   28.6122   -4.6699 C   0  0  0  0  0  0  0  0  0  0  0  0
   16.4468   28.6713   -4.8762 C   0  0  0  0  0  0  0  0  0  0  0  0
   17.0974   27.4815   -5.2082 C   0  0  0  0  0  0  0  0  0  0  0  0
   16.3422   26.3442   -5.3012 C   0  0  0  0  0  0  0  0  0  0  0  0
   15.0090   26.3320   -5.0871 N   0  0  0  0  0  0  0  0  0  0  0  0
   14.3442   27.4377   -4.7646 C   0  0  0  0  0  0  0  0  0  0  0  0
 36 37  1  0  0  0
 37 38  2  0  0  0
 38 39  1  0  0  0
 39 40  2  0  0  0
 40 41  1  0  0  0
 41 42  2  0  0  0
 42 35  1  0  0  0
 35  1  1  0  0  0
  1  2  1  0  0  0
  2  3  1  0  0  0
  3  4  1  0  0  0
  4  5  1  0  0  0
  5  6  1  0  0  0
  4  7  1  0  0  0
  7  8  1  0  0  0
  8  9  2  0  0  0
  8 10  1  0  0  0
 10 11  1  0  0  0
 11 12  2  0  0  0
 10 13  1  0  0  0
 13 14  2  0  0  0
 14 15  1  0  0  0
 15 16  2  0  0  0
 16 17  1  0  0  0
 17 18  2  0  0  0
 16 19  1  0  0  0
 19 20  1  0  0  0
 19 21  2  0  0  0
  7 23  1  0  0  0
 23 24  2  0  0  0
 24 25  1  0  0  0
 25 26  2  0  0  0
 26 27  1  0  0  0
 27 28  2  0  0  0
 27 29  1  0  0  0
 29 30  2  0  0  0
 30 31  1  0  0  0
 31 32  2  0  0  0
 32 33  1  0  0  0
 33 34  2  0  0  0
 42 37  1  0  0  0
  6  1  1  0  0  0
 18 13  1  0  0  0
 28 23  1  0  0  0
 34 29  1  0  0  0
 11  4  1  0  0  0
 20 22  1  0  0  0
M  END
> <minimizedAffinity>
23.44757

> <CNNscore>
0.5844092965

> <CNNaffinity>
7.5936980247

> <CNN_VS>
4.4378275871

> <CNNaffinity_variance>
0.6210988164

$$$$
[H]OC(=O)c1c([H])c([H])c(N2C(=O)N(c3c([H])c([H])c([H])c(-c4c([H])c([H])c([H])c([H])c4[H])c3[H])C3(C2=O)C([H])([H])C([H])([H])N(C([H])([H])c2nc([H])c([H])c([H])c2C([H])([H])[H])C([H])([H])C3([H])[H])c([H])c1[H]


 42 47  0  0  0  0  0  0  0  0999 V2000
   13.4446   26.4434   -4.4598 N   0  0  0  0  0  0  0  0  0  0  0  0
   12.9031   27.0540   -3.3906 C   0  0  0  0  0  0  0  0  0  0  0  0
   13.4981   26.6249   -2.0255 C   0  0  0  0  0  0  0  0  0  0  0  0
   13.5984   25.1119   -1.9553 C   0  0  0  0  0  0  0  0  0  0  0  0
   14.4171   24.6922   -3.1437 C   0  0  0  0  0  0  0  0  0  0  0  0
   13.6100   24.9748   -4.3548 C   0  0  0  0  0  0  0  0  0  0  0  0
   14.1111   24.5795   -0.7731 N   0  0  0  0  0  0  0  0  0  0  0  0
   13.3093   23.3780   -0.4714 C   0  0  0  0  0  0  0  0  0  0  0  0
   13.6816   22.4682    0.3411 O   0  0  0  0  0  0  0  0  0  0  0  0
   12.1152   23.3996   -1.2132 N   0  0  0  0  0  0  0  0  0  0  0  0
   12.1867   24.5712   -2.0034 C   0  0  0  0  0  0  0  0  0  0  0  0
   11.2115   25.0481   -2.6242 O   0  0  0  0  0  0  0  0  0  0  0  0
   10.9647   22.5500   -1.0386 C   0  0  0  0  0  0  0  0  0  0  0  0
   10.6239   21.5436   -1.8664 C   0  0  0  0  0  0  0  0  0  0  0  0
    9.4134   20.8563   -1.7023 C   0  0  0  0  0  0  0  0  0  0  0  0
    8.5419   21.1849   -0.6914 C   0  0  0  0  0  0  0  0  0  0  0  0
    8.8907   22.2070    0.1585 C   0  0  0  0  0  0  0  0  0  0  0  0
   10.0725   22.8674   -0.0182 C   0  0  0  0  0  0  0  0  0  0  0  0
    7.2540   20.5296   -0.5140 C   0  0  0  0  0  0  0  0  0  0  0  0
    6.2045   20.9167   -1.3461 O   0  0  0  0  0  0  0  0  0  0  0  0
    7.0231   19.6461    0.3163 O   0  0  0  0  0  0  0  0  0  0  0  0
    6.0403   21.8731   -1.6106 H   0  0  0  0  0  0  0  0  0  0  0  0
   15.0729   24.9645    0.2383 C   0  0  0  0  0  0  0  0  0  0  0  0
   14.6039   25.9679    1.1161 C   0  0  0  0  0  0  0  0  0  0  0  0
   15.3689   26.4824    2.1275 C   0  0  0  0  0  0  0  0  0  0  0  0
   16.6363   26.0038    2.2916 C   0  0  0  0  0  0  0  0  0  0  0  0
   17.1474   25.0016    1.4474 C   0  0  0  0  0  0  0  0  0  0  0  0
   16.3343   24.5001    0.4260 C   0  0  0  0  0  0  0  0  0  0  0  0
   18.5288   24.6551    1.6954 C   0  0  0  0  0  0  0  0  0  0  0  0
   19.2741   24.1943    0.5913 C   0  0  0  0  0  0  0  0  0  0  0  0
   20.6145   23.9403    0.6196 C   0  0  0  0  0  0  0  0  0  0  0  0
   21.3016   24.1433    1.7955 C   0  0  0  0  0  0  0  0  0  0  0  0
   20.6260   24.5915    2.9094 C   0  0  0  0  0  0  0  0  0  0  0  0
   19.2552   24.8381    2.8462 C   0  0  0  0  0  0  0  0  0  0  0  0
   13.3763   26.7169   -5.7875 C   0  0  0  0  0  0  0  0  0  0  0  0
   15.6856   28.1888   -5.4539 C   0  0  0  0  0  0  0  0  0  0  0  0
   15.6846   27.1193   -6.5001 C   0  0  0  0  0  0  0  0  0  0  0  0
   16.8079   26.8121   -7.1962 C   0  0  0  0  0  0  0  0  0  0  0  0
   16.6763   25.9257   -8.2668 C   0  0  0  0  0  0  0  0  0  0  0  0
   15.4297   25.4306   -8.5375 C   0  0  0  0  0  0  0  0  0  0  0  0
   14.3378   25.7645   -7.8169 N   0  0  0  0  0  0  0  0  0  0  0  0
   14.4116   26.6011   -6.7858 C   0  0  0  0  0  0  0  0  0  0  0  0
 36 37  1  0  0  0
 37 38  2  0  0  0
 38 39  1  0  0  0
 39 40  2  0  0  0
 40 41  1  0  0  0
 41 42  2  0  0  0
 42 35  1  0  0  0
 35  1  1  0  0  0
  1  2  1  0  0  0
  2  3  1  0  0  0
  3  4  1  0  0  0
  4  5  1  0  0  0
  5  6  1  0  0  0
  4  7  1  0  0  0
  7  8  1  0  0  0
  8  9  2  0  0  0
  8 10  1  0  0  0
 10 11  1  0  0  0
 11 12  2  0  0  0
 10 13  1  0  0  0
 13 14  2  0  0  0
 14 15  1  0  0  0
 15 16  2  0  0  0
 16 17  1  0  0  0
 17 18  2  0  0  0
 16 19  1  0  0  0
 19 20  1  0  0  0
 19 21  2  0  0  0
  7 23  1  0  0  0
 23 24  2  0  0  0
 24 25  1  0  0  0
 25 26  2  0  0  0
 26 27  1  0  0  0
 27 28  2  0  0  0
 27 29  1  0  0  0
 29 30  2  0  0  0
 30 31  1  0  0  0
 31 32  2  0  0  0
 32 33  1  0  0  0
 33 34  2  0  0  0
 42 37  1  0  0  0
  6  1  1  0  0  0
 18 13  1  0  0  0
 28 23  1  0  0  0
 34 29  1  0  0  0
 11  4  1  0  0  0
 20 22  1  0  0  0
M  END
> <minimizedAffinity>
26.27110

> <CNNscore>
0.5723400712

> <CNNaffinity>
7.8039779663

> <CNN_VS>
4.4665293694

> <CNNaffinity_variance>
0.9254361391

$$$$
[H]OC(=O)c1c([H])c([H])c(N2C(=O)N(c3c([H])c([H])c([H])c(-c4c([H])c([H])c([H])c([H])c4[H])c3[H])C3(C2=O)C([H])([H])C([H])([H])N(C([H])([H])c2nc([H])c([H])c([H])c2C([H])([H])[H])C([H])([H])C3([H])[H])c([H])c1[H]


 42 47  0  0  0  0  0  0  0  0999 V2000
    9.0645   22.9260   -0.3855 N   0  0  0  0  0  0  0  0  0  0  0  0
    9.5418   24.0565    0.1652 C   0  0  0  0  0  0  0  0  0  0  0  0
   10.5704   24.8210   -0.7062 C   0  0  0  0  0  0  0  0  0  0  0  0
   11.6030   23.8551   -1.2582 C   0  0  0  0  0  0  0  0  0  0  0  0
   10.8324   22.7985   -1.9989 C   0  0  0  0  0  0  0  0  0  0  0  0
   10.0709   22.0227   -0.9907 C   0  0  0  0  0  0  0  0  0  0  0  0
   12.6025   24.4077   -2.0581 N   0  0  0  0  0  0  0  0  0  0  0  0
   13.8575   23.7215   -1.6955 C   0  0  0  0  0  0  0  0  0  0  0  0
   14.9035   23.7340   -2.4250 O   0  0  0  0  0  0  0  0  0  0  0  0
   13.7064   23.0660   -0.4610 N   0  0  0  0  0  0  0  0  0  0  0  0
   12.3642   23.2967   -0.0767 C   0  0  0  0  0  0  0  0  0  0  0  0
   11.9223   23.0625    1.0695 O   0  0  0  0  0  0  0  0  0  0  0  0
   14.7457   22.4882    0.3525 C   0  0  0  0  0  0  0  0  0  0  0  0
   15.7705   23.1784    0.8890 C   0  0  0  0  0  0  0  0  0  0  0  0
   16.8145   22.5173    1.5505 C   0  0  0  0  0  0  0  0  0  0  0  0
   16.8218   21.1484    1.6750 C   0  0  0  0  0  0  0  0  0  0  0  0
   15.7740   20.4426    1.1341 C   0  0  0  0  0  0  0  0  0  0  0  0
   14.7670   21.1031    0.4908 C   0  0  0  0  0  0  0  0  0  0  0  0
   17.9088   20.4185    2.3116 C   0  0  0  0  0  0  0  0  0  0  0  0
   17.8677   20.2629    3.6964 O   0  0  0  0  0  0  0  0  0  0  0  0
   18.8644   19.9169    1.7127 O   0  0  0  0  0  0  0  0  0  0  0  0
   17.5671   20.9924    4.3201 H   0  0  0  0  0  0  0  0  0  0  0  0
   12.7336   25.5093   -2.9883 C   0  0  0  0  0  0  0  0  0  0  0  0
   13.8651   25.4116   -3.8294 C   0  0  0  0  0  0  0  0  0  0  0  0
   14.1771   26.3624   -4.7629 C   0  0  0  0  0  0  0  0  0  0  0  0
   13.3589   27.4479   -4.8834 C   0  0  0  0  0  0  0  0  0  0  0  0
   12.2177   27.5885   -4.0734 C   0  0  0  0  0  0  0  0  0  0  0  0
   11.9317   26.5948   -3.1318 C   0  0  0  0  0  0  0  0  0  0  0  0
   11.4962   28.8268   -4.2631 C   0  0  0  0  0  0  0  0  0  0  0  0
   10.2560   28.7418   -4.9276 C   0  0  0  0  0  0  0  0  0  0  0  0
    9.3928   29.7871   -5.0829 C   0  0  0  0  0  0  0  0  0  0  0  0
    9.7385   31.0137   -4.5612 C   0  0  0  0  0  0  0  0  0  0  0  0
   10.9397   31.1585   -3.9022 C   0  0  0  0  0  0  0  0  0  0  0  0
   11.7997   30.0697   -3.7643 C   0  0  0  0  0  0  0  0  0  0  0  0
    8.0050   22.1412   -0.0633 C   0  0  0  0  0  0  0  0  0  0  0  0
    5.4567   21.0936    0.0762 C   0  0  0  0  0  0  0  0  0  0  0  0
    6.2799   21.0957    1.3256 C   0  0  0  0  0  0  0  0  0  0  0  0
    5.8319   20.5143    2.4666 C   0  0  0  0  0  0  0  0  0  0  0  0
    6.5856   20.7116    3.6252 C   0  0  0  0  0  0  0  0  0  0  0  0
    7.7183   21.4733    3.5292 C   0  0  0  0  0  0  0  0  0  0  0  0
    8.1270   22.0334    2.3706 N   0  0  0  0  0  0  0  0  0  0  0  0
    7.4464   21.8719    1.2395 C   0  0  0  0  0  0  0  0  0  0  0  0
 36 37  1  0  0  0
 37 38  2  0  0  0
 38 39  1  0  0  0
 39 40  2  0  0  0
 40 41  1  0  0  0
 41 42  2  0  0  0
 42 35  1  0  0  0
 35  1  1  0  0  0
  1  2  1  0  0  0
  2  3  1  0  0  0
  3  4  1  0  0  0
  4  5  1  0  0  0
  5  6  1  0  0  0
  4  7  1  0  0  0
  7  8  1  0  0  0
  8  9  2  0  0  0
  8 10  1  0  0  0
 10 11  1  0  0  0
 11 12  2  0  0  0
 10 13  1  0  0  0
 13 14  2  0  0  0
 14 15  1  0  0  0
 15 16  2  0  0  0
 16 17  1  0  0  0
 17 18  2  0  0  0
 16 19  1  0  0  0
 19 20  1  0  0  0
 19 21  2  0  0  0
  7 23  1  0  0  0
 23 24  2  0  0  0
 24 25  1  0  0  0
 25 26  2  0  0  0
 26 27  1  0  0  0
 27 28  2  0  0  0
 27 29  1  0  0  0
 29 30  2  0  0  0
 30 31  1  0  0  0
 31 32  2  0  0  0
 32 33  1  0  0  0
 33 34  2  0  0  0
 42 37  1  0  0  0
  6  1  1  0  0  0
 18 13  1  0  0  0
 28 23  1  0  0  0
 34 29  1  0  0  0
 11  4  1  0  0  0
 20 22  1  0  0  0
M  END
> <minimizedAffinity>
27.20900

> <CNNscore>
0.5723212361

> <CNNaffinity>
7.6199965477

> <CNN_VS>
4.3610858917

> <CNNaffinity_variance>
0.7961851358

$$$$
[H]OC(=O)c1c([H])c([H])c(N2C(=O)N(c3c([H])c([H])c([H])c(-c4c([H])c([H])c([H])c([H])c4[H])c3[H])C3(C2=O)C([H])([H])C([H])([H])N(C([H])([H])c2nc([H])c([H])c([H])c2C([H])([H])[H])C([H])([H])C3([H])[H])c([H])c1[H]


 42 47  0  0  0  0  0  0  0  0999 V2000
   15.7816   22.8325    0.4835 N   0  0  0  0  0  0  0  0  0  0  0  0
   15.5887   22.2696   -0.7229 C   0  0  0  0  0  0  0  0  0  0  0  0
   14.8374   23.1608   -1.7442 C   0  0  0  0  0  0  0  0  0  0  0  0
   13.6170   23.7836   -1.0909 C   0  0  0  0  0  0  0  0  0  0  0  0
   14.1211   24.5217    0.1174 C   0  0  0  0  0  0  0  0  0  0  0  0
   14.6052   23.5054    1.0822 C   0  0  0  0  0  0  0  0  0  0  0  0
   12.8352   24.6083   -1.8989 N   0  0  0  0  0  0  0  0  0  0  0  0
   11.4290   24.3188   -1.5580 C   0  0  0  0  0  0  0  0  0  0  0  0
   10.4586   25.0910   -1.8557 O   0  0  0  0  0  0  0  0  0  0  0  0
   11.3449   23.0986   -0.8648 N   0  0  0  0  0  0  0  0  0  0  0  0
   12.6808   22.6518   -0.7305 C   0  0  0  0  0  0  0  0  0  0  0  0
   12.9910   21.4954   -0.3694 O   0  0  0  0  0  0  0  0  0  0  0  0
   10.1532   22.3467   -0.5644 C   0  0  0  0  0  0  0  0  0  0  0  0
    9.3686   22.5532    0.5108 C   0  0  0  0  0  0  0  0  0  0  0  0
    8.3065   21.6866    0.8030 C   0  0  0  0  0  0  0  0  0  0  0  0
    8.0317   20.6048    0.0006 C   0  0  0  0  0  0  0  0  0  0  0  0
    8.8268   20.3960   -1.1007 C   0  0  0  0  0  0  0  0  0  0  0  0
    9.8588   21.2489   -1.3683 C   0  0  0  0  0  0  0  0  0  0  0  0
    6.9694   19.6533    0.2933 C   0  0  0  0  0  0  0  0  0  0  0  0
    7.0390   18.3940   -0.3009 O   0  0  0  0  0  0  0  0  0  0  0  0
    6.0115   19.8763    1.0391 O   0  0  0  0  0  0  0  0  0  0  0  0
    7.3387   18.2531   -1.2505 H   0  0  0  0  0  0  0  0  0  0  0  0
   13.0399   25.5108   -3.0123 C   0  0  0  0  0  0  0  0  0  0  0  0
   12.1661   26.6215   -3.0120 C   0  0  0  0  0  0  0  0  0  0  0  0
   12.1860   27.5786   -3.9899 C   0  0  0  0  0  0  0  0  0  0  0  0
   13.0889   27.4514   -5.0054 C   0  0  0  0  0  0  0  0  0  0  0  0
   13.9836   26.3670   -5.0478 C   0  0  0  0  0  0  0  0  0  0  0  0
   13.9332   25.4101   -4.0292 C   0  0  0  0  0  0  0  0  0  0  0  0
   14.8235   26.3279   -6.2238 C   0  0  0  0  0  0  0  0  0  0  0  0
   15.7309   27.3937   -6.3897 C   0  0  0  0  0  0  0  0  0  0  0  0
   16.6762   27.4539   -7.3719 C   0  0  0  0  0  0  0  0  0  0  0  0
   16.7655   26.4128   -8.2688 C   0  0  0  0  0  0  0  0  0  0  0  0
   15.9038   25.3437   -8.1579 C   0  0  0  0  0  0  0  0  0  0  0  0
   14.9473   25.3160   -7.1438 C   0  0  0  0  0  0  0  0  0  0  0  0
   16.5838   22.4890    1.5231 C   0  0  0  0  0  0  0  0  0  0  0  0
   17.9703   24.0173   -0.3080 C   0  0  0  0  0  0  0  0  0  0  0  0
   18.4043   24.0776    1.1226 C   0  0  0  0  0  0  0  0  0  0  0  0
   19.3808   24.9275    1.5284 C   0  0  0  0  0  0  0  0  0  0  0  0
   19.8398   24.7968    2.8404 C   0  0  0  0  0  0  0  0  0  0  0  0
   19.2750   23.8259    3.6218 C   0  0  0  0  0  0  0  0  0  0  0  0
   18.3037   23.0009    3.1753 N   0  0  0  0  0  0  0  0  0  0  0  0
   17.8300   23.0879    1.9357 C   0  0  0  0  0  0  0  0  0  0  0  0
 36 37  1  0  0  0
 37 38  2  0  0  0
 38 39  1  0  0  0
 39 40  2  0  0  0
 40 41  1  0  0  0
 41 42  2  0  0  0
 42 35  1  0  0  0
 35  1  1  0  0  0
  1  2  1  0  0  0
  2  3  1  0  0  0
  3  4  1  0  0  0
  4  5  1  0  0  0
  5  6  1  0  0  0
  4  7  1  0  0  0
  7  8  1  0  0  0
  8  9  2  0  0  0
  8 10  1  0  0  0
 10 11  1  0  0  0
 11 12  2  0  0  0
 10 13  1  0  0  0
 13 14  2  0  0  0
 14 15  1  0  0  0
 15 16  2  0  0  0
 16 17  1  0  0  0
 17 18  2  0  0  0
 16 19  1  0  0  0
 19 20  1  0  0  0
 19 21  2  0  0  0
  7 23  1  0  0  0
 23 24  2  0  0  0
 24 25  1  0  0  0
 25 26  2  0  0  0
 26 27  1  0  0  0
 27 28  2  0  0  0
 27 29  1  0  0  0
 29 30  2  0  0  0
 30 31  1  0  0  0
 31 32  2  0  0  0
 32 33  1  0  0  0
 33 34  2  0  0  0
 42 37  1  0  0  0
  6  1  1  0  0  0
 18 13  1  0  0  0
 28 23  1  0  0  0
 34 29  1  0  0  0
 11  4  1  0  0  0
 20 22  1  0  0  0
M  END
> <minimizedAffinity>
19.61955

> <CNNscore>
0.5641456842

> <CNNaffinity>
7.8921232224

> <CNN_VS>
4.4523072243

> <CNNaffinity_variance>
0.8326894641

$$$$
[H]OC(=O)c1c([H])c([H])c(N2C(=O)N(c3c([H])c([H])c([H])c(-c4c([H])c([H])c([H])c([H])c4[H])c3[H])C3(C2=O)C([H])([H])C([H])([H])N(C([H])([H])c2nc([H])c([H])c([H])c2C([H])([H])[H])C([H])([H])C3([H])[H])c([H])c1[H]


 42 47  0  0  0  0  0  0  0  0999 V2000
   16.0181   22.8395    0.7721 N   0  0  0  0  0  0  0  0  0  0  0  0
   15.6777   22.2177   -0.3710 C   0  0  0  0  0  0  0  0  0  0  0  0
   14.8594   23.0822   -1.3633 C   0  0  0  0  0  0  0  0  0  0  0  0
   13.7398   23.7968   -0.6286 C   0  0  0  0  0  0  0  0  0  0  0  0
   14.3966   24.5792    0.4738 C   0  0  0  0  0  0  0  0  0  0  0  0
   14.9385   23.5989    1.4452 C   0  0  0  0  0  0  0  0  0  0  0  0
   12.9109   24.6086   -1.4019 N   0  0  0  0  0  0  0  0  0  0  0  0
   11.5379   24.4039   -0.9018 C   0  0  0  0  0  0  0  0  0  0  0  0
   10.5729   25.2013   -1.1459 O   0  0  0  0  0  0  0  0  0  0  0  0
   11.4786   23.2307   -0.1293 N   0  0  0  0  0  0  0  0  0  0  0  0
   12.8025   22.7316   -0.1049 C   0  0  0  0  0  0  0  0  0  0  0  0
   13.1027   21.5849    0.2935 O   0  0  0  0  0  0  0  0  0  0  0  0
   10.2961   22.5527    0.3372 C   0  0  0  0  0  0  0  0  0  0  0  0
    9.2936   22.1289   -0.4563 C   0  0  0  0  0  0  0  0  0  0  0  0
    8.1155   21.6035    0.0921 C   0  0  0  0  0  0  0  0  0  0  0  0
    7.9500   21.5012    1.4529 C   0  0  0  0  0  0  0  0  0  0  0  0
    8.9743   21.9269    2.2643 C   0  0  0  0  0  0  0  0  0  0  0  0
   10.1135   22.4386    1.7126 C   0  0  0  0  0  0  0  0  0  0  0  0
    6.7253   21.0066    2.0651 C   0  0  0  0  0  0  0  0  0  0  0  0
    6.8414   20.1758    3.1787 O   0  0  0  0  0  0  0  0  0  0  0  0
    5.5856   21.2766    1.6754 O   0  0  0  0  0  0  0  0  0  0  0  0
    7.5463   19.4629    3.2580 H   0  0  0  0  0  0  0  0  0  0  0  0
   13.0334   25.4353   -2.5841 C   0  0  0  0  0  0  0  0  0  0  0  0
   11.9429   26.3127   -2.7798 C   0  0  0  0  0  0  0  0  0  0  0  0
   11.8595   27.1617   -3.8498 C   0  0  0  0  0  0  0  0  0  0  0  0
   12.8737   27.1578   -4.7631 C   0  0  0  0  0  0  0  0  0  0  0  0
   13.9831   26.3070   -4.6102 C   0  0  0  0  0  0  0  0  0  0  0  0
   14.0326   25.4547   -3.5025 C   0  0  0  0  0  0  0  0  0  0  0  0
   14.9345   26.3604   -5.6974 C   0  0  0  0  0  0  0  0  0  0  0  0
   14.8679   25.3223   -6.6486 C   0  0  0  0  0  0  0  0  0  0  0  0
   15.6047   25.2818   -7.7965 C   0  0  0  0  0  0  0  0  0  0  0  0
   16.4751   26.3156   -8.0606 C   0  0  0  0  0  0  0  0  0  0  0  0
   16.5848   27.3579   -7.1663 C   0  0  0  0  0  0  0  0  0  0  0  0
   15.8190   27.3658   -6.0012 C   0  0  0  0  0  0  0  0  0  0  0  0
   16.9106   22.5200    1.7435 C   0  0  0  0  0  0  0  0  0  0  0  0
   18.2255   23.9586   -0.2090 C   0  0  0  0  0  0  0  0  0  0  0  0
   18.6663   24.1416    1.2090 C   0  0  0  0  0  0  0  0  0  0  0  0
   19.6124   25.0555    1.5413 C   0  0  0  0  0  0  0  0  0  0  0  0
   20.0848   25.0403    2.8550 C   0  0  0  0  0  0  0  0  0  0  0  0
   19.5627   24.1097    3.7116 C   0  0  0  0  0  0  0  0  0  0  0  0
   18.6207   23.2179    3.3368 N   0  0  0  0  0  0  0  0  0  0  0  0
   18.1357   23.1943    2.0987 C   0  0  0  0  0  0  0  0  0  0  0  0
 36 37  1  0  0  0
 37 38  2  0  0  0
 38 39  1  0  0  0
 39 40  2  0  0  0
 40 41  1  0  0  0
 41 42  2  0  0  0
 42 35  1  0  0  0
 35  1  1  0  0  0
  1  2  1  0  0  0
  2  3  1  0  0  0
  3  4  1  0  0  0
  4  5  1  0  0  0
  5  6  1  0  0  0
  4  7  1  0  0  0
  7  8  1  0  0  0
  8  9  2  0  0  0
  8 10  1  0  0  0
 10 11  1  0  0  0
 11 12  2  0  0  0
 10 13  1  0  0  0
 13 14  2  0  0  0
 14 15  1  0  0  0
 15 16  2  0  0  0
 16 17  1  0  0  0
 17 18  2  0  0  0
 16 19  1  0  0  0
 19 20  1  0  0  0
 19 21  2  0  0  0
  7 23  1  0  0  0
 23 24  2  0  0  0
 24 25  1  0  0  0
 25 26  2  0  0  0
 26 27  1  0  0  0
 27 28  2  0  0  0
 27 29  1  0  0  0
 29 30  2  0  0  0
 30 31  1  0  0  0
 31 32  2  0  0  0
 32 33  1  0  0  0
 33 34  2  0  0  0
 42 37  1  0  0  0
  6  1  1  0  0  0
 18 13  1  0  0  0
 28 23  1  0  0  0
 34 29  1  0  0  0
 11  4  1  0  0  0
 20 22  1  0  0  0
M  END
> <minimizedAffinity>
20.22406

> <CNNscore>
0.5637130141

> <CNNaffinity>
7.8369965553

> <CNN_VS>
4.4178171158

> <CNNaffinity_variance>
0.9827647209

$$$$
[H]OC(=O)c1c([H])c([H])c(N2C(=O)N(c3c([H])c([H])c([H])c(-c4c([H])c([H])c([H])c([H])c4[H])c3[H])C3(C2=O)C([H])([H])C([H])([H])N(C([H])([H])c2nc([H])c([H])c([H])c2C([H])([H])[H])C([H])([H])C3([H])[H])c([H])c1[H]


 42 47  0  0  0  0  0  0  0  0999 V2000
   13.5077   25.8066   -4.2164 N   0  0  0  0  0  0  0  0  0  0  0  0
   13.8441   24.5043   -4.2176 C   0  0  0  0  0  0  0  0  0  0  0  0
   13.1555   23.6534   -3.1205 C   0  0  0  0  0  0  0  0  0  0  0  0
   13.2363   24.3665   -1.7830 C   0  0  0  0  0  0  0  0  0  0  0  0
   12.6166   25.7195   -1.9932 C   0  0  0  0  0  0  0  0  0  0  0  0
   13.5149   26.4785   -2.8959 C   0  0  0  0  0  0  0  0  0  0  0  0
   12.6624   23.7096   -0.6953 N   0  0  0  0  0  0  0  0  0  0  0  0
   13.5675   23.9247    0.4501 C   0  0  0  0  0  0  0  0  0  0  0  0
   13.2209   23.7484    1.6647 O   0  0  0  0  0  0  0  0  0  0  0  0
   14.8263   24.3525   -0.0070 N   0  0  0  0  0  0  0  0  0  0  0  0
   14.7004   24.4503   -1.4130 C   0  0  0  0  0  0  0  0  0  0  0  0
   15.6731   24.5829   -2.1876 O   0  0  0  0  0  0  0  0  0  0  0  0
   16.0459   24.4435    0.7548 C   0  0  0  0  0  0  0  0  0  0  0  0
   16.5911   25.5950    1.1918 C   0  0  0  0  0  0  0  0  0  0  0  0
   17.8515   25.6065    1.8050 C   0  0  0  0  0  0  0  0  0  0  0  0
   18.5653   24.4453    1.9823 C   0  0  0  0  0  0  0  0  0  0  0  0
   18.0079   23.2683    1.5431 C   0  0  0  0  0  0  0  0  0  0  0  0
   16.7805   23.2764    0.9455 C   0  0  0  0  0  0  0  0  0  0  0  0
   19.8968   24.4180    2.5704 C   0  0  0  0  0  0  0  0  0  0  0  0
   19.9969   24.4405    3.9608 O   0  0  0  0  0  0  0  0  0  0  0  0
   20.9488   24.3671    1.9268 O   0  0  0  0  0  0  0  0  0  0  0  0
   19.4044   25.0077    4.5427 H   0  0  0  0  0  0  0  0  0  0  0  0
   11.5515   22.8116   -0.4597 C   0  0  0  0  0  0  0  0  0  0  0  0
   11.3915   21.8296   -1.4634 C   0  0  0  0  0  0  0  0  0  0  0  0
   10.3880   20.8996   -1.4349 C   0  0  0  0  0  0  0  0  0  0  0  0
    9.5079   20.9249   -0.3922 C   0  0  0  0  0  0  0  0  0  0  0  0
    9.6279   21.8789    0.6342 C   0  0  0  0  0  0  0  0  0  0  0  0
   10.6676   22.8120    0.5703 C   0  0  0  0  0  0  0  0  0  0  0  0
    8.5769   21.8290    1.6256 C   0  0  0  0  0  0  0  0  0  0  0  0
    7.3213   21.3554    1.1942 C   0  0  0  0  0  0  0  0  0  0  0  0
    6.2587   21.1296    2.0199 C   0  0  0  0  0  0  0  0  0  0  0  0
    6.4044   21.3733    3.3673 C   0  0  0  0  0  0  0  0  0  0  0  0
    7.6086   21.8392    3.8479 C   0  0  0  0  0  0  0  0  0  0  0  0
    8.6731   22.0621    2.9754 C   0  0  0  0  0  0  0  0  0  0  0  0
   13.6923   26.7885   -5.1352 C   0  0  0  0  0  0  0  0  0  0  0  0
   15.9730   28.3395   -5.0738 C   0  0  0  0  0  0  0  0  0  0  0  0
   15.8357   27.3438   -6.1820 C   0  0  0  0  0  0  0  0  0  0  0  0
   16.8382   27.1361   -7.0722 C   0  0  0  0  0  0  0  0  0  0  0  0
   16.5619   26.3186   -8.1696 C   0  0  0  0  0  0  0  0  0  0  0  0
   15.3055   25.7859   -8.2700 C   0  0  0  0  0  0  0  0  0  0  0  0
   14.3370   26.0199   -7.3587 N   0  0  0  0  0  0  0  0  0  0  0  0
   14.5515   26.7878   -6.2944 C   0  0  0  0  0  0  0  0  0  0  0  0
 36 37  1  0  0  0
 37 38  2  0  0  0
 38 39  1  0  0  0
 39 40  2  0  0  0
 40 41  1  0  0  0
 41 42  2  0  0  0
 42 35  1  0  0  0
 35  1  1  0  0  0
  1  2  1  0  0  0
  2  3  1  0  0  0
  3  4  1  0  0  0
  4  5  1  0  0  0
  5  6  1  0  0  0
  4  7  1  0  0  0
  7  8  1  0  0  0
  8  9  2  0  0  0
  8 10  1  0  0  0
 10 11  1  0  0  0
 11 12  2  0  0  0
 10 13  1  0  0  0
 13 14  2  0  0  0
 14 15  1  0  0  0
 15 16  2  0  0  0
 16 17  1  0  0  0
 17 18  2  0  0  0
 16 19  1  0  0  0
 19 20  1  0  0  0
 19 21  2  0  0  0
  7 23  1  0  0  0
 23 24  2  0  0  0
 24 25  1  0  0  0
 25 26  2  0  0  0
 26 27  1  0  0  0
 27 28  2  0  0  0
 27 29  1  0  0  0
 29 30  2  0  0  0
 30 31  1  0  0  0
 31 32  2  0  0  0
 32 33  1  0  0  0
 33 34  2  0  0  0
 42 37  1  0  0  0
  6  1  1  0  0  0
 18 13  1  0  0  0
 28 23  1  0  0  0
 34 29  1  0  0  0
 11  4  1  0  0  0
 20 22  1  0  0  0
M  END
> <minimizedAffinity>
13.78162

> <CNNscore>
0.5619879961

> <CNNaffinity>
7.8677568436

> <CNN_VS>
4.4215850830

> <CNNaffinity_variance>
0.6429287791

$$$$
[H]OC(=O)c1c([H])c([H])c(N2C(=O)N(c3c([H])c([H])c([H])c(-c4c([H])c([H])c([H])c([H])c4[H])c3[H])C3(C2=O)C([H])([H])C([H])([H])N(C([H])([H])c2nc([H])c([H])c([H])c2C([H])([H])[H])C([H])([H])C3([H])[H])c([H])c1[H]


 42 47  0  0  0  0  0  0  0  0999 V2000
   12.2562   26.1675   -2.5387 N   0  0  0  0  0  0  0  0  0  0  0  0
   11.4307   25.1527   -2.8516 C   0  0  0  0  0  0  0  0  0  0  0  0
   10.6628   24.5445   -1.6508 C   0  0  0  0  0  0  0  0  0  0  0  0
   11.6153   24.3028   -0.4939 C   0  0  0  0  0  0  0  0  0  0  0  0
   12.2641   25.6271   -0.2037 C   0  0  0  0  0  0  0  0  0  0  0  0
   13.1303   25.9547   -1.3614 C   0  0  0  0  0  0  0  0  0  0  0  0
   11.0615   23.7464    0.6584 N   0  0  0  0  0  0  0  0  0  0  0  0
   12.0431   22.7686    1.1658 C   0  0  0  0  0  0  0  0  0  0  0  0
   12.0267   22.3055    2.3541 O   0  0  0  0  0  0  0  0  0  0  0  0
   12.9723   22.4547    0.1585 N   0  0  0  0  0  0  0  0  0  0  0  0
   12.6091   23.2573   -0.9488 C   0  0  0  0  0  0  0  0  0  0  0  0
   13.0622   23.0913   -2.1025 O   0  0  0  0  0  0  0  0  0  0  0  0
   13.9353   21.3830    0.1636 C   0  0  0  0  0  0  0  0  0  0  0  0
   14.5931   20.9505    1.2566 C   0  0  0  0  0  0  0  0  0  0  0  0
   15.6154   19.9975    1.1502 C   0  0  0  0  0  0  0  0  0  0  0  0
   15.9736   19.4738   -0.0691 C   0  0  0  0  0  0  0  0  0  0  0  0
   15.2992   19.9087   -1.1848 C   0  0  0  0  0  0  0  0  0  0  0  0
   14.3081   20.8397   -1.0627 C   0  0  0  0  0  0  0  0  0  0  0  0
   17.0604   18.5187   -0.2306 C   0  0  0  0  0  0  0  0  0  0  0  0
   16.8114   17.1855    0.0926 O   0  0  0  0  0  0  0  0  0  0  0  0
   18.1891   18.8009   -0.6429 O   0  0  0  0  0  0  0  0  0  0  0  0
   16.2614   16.9092    0.8880 H   0  0  0  0  0  0  0  0  0  0  0  0
    9.7915   23.7814    1.3526 C   0  0  0  0  0  0  0  0  0  0  0  0
    8.8931   22.7691    0.9459 C   0  0  0  0  0  0  0  0  0  0  0  0
    7.6341   22.6443    1.4674 C   0  0  0  0  0  0  0  0  0  0  0  0
    7.2337   23.5364    2.4195 C   0  0  0  0  0  0  0  0  0  0  0  0
    8.0928   24.5585    2.8617 C   0  0  0  0  0  0  0  0  0  0  0  0
    9.3725   24.6523    2.3055 C   0  0  0  0  0  0  0  0  0  0  0  0
    7.4998   25.4704    3.8138 C   0  0  0  0  0  0  0  0  0  0  0  0
    8.1897   26.6769    4.0494 C   0  0  0  0  0  0  0  0  0  0  0  0
    7.7141   27.6976    4.8201 C   0  0  0  0  0  0  0  0  0  0  0  0
    6.4796   27.5584    5.4139 C   0  0  0  0  0  0  0  0  0  0  0  0
    5.7589   26.4001    5.2213 C   0  0  0  0  0  0  0  0  0  0  0  0
    6.2764   25.3755    4.4300 C   0  0  0  0  0  0  0  0  0  0  0  0
   12.8867   27.0900   -3.3092 C   0  0  0  0  0  0  0  0  0  0  0  0
   14.5801   24.9511   -2.8993 C   0  0  0  0  0  0  0  0  0  0  0  0
   14.6812   25.6819   -4.2009 C   0  0  0  0  0  0  0  0  0  0  0  0
   15.5056   25.2524   -5.1891 C   0  0  0  0  0  0  0  0  0  0  0  0
   15.6657   26.0856   -6.2977 C   0  0  0  0  0  0  0  0  0  0  0  0
   14.9828   27.2713   -6.3105 C   0  0  0  0  0  0  0  0  0  0  0  0
   14.1716   27.6589   -5.3031 N   0  0  0  0  0  0  0  0  0  0  0  0
   13.9828   26.8994   -4.2279 C   0  0  0  0  0  0  0  0  0  0  0  0
 36 37  1  0  0  0
 37 38  2  0  0  0
 38 39  1  0  0  0
 39 40  2  0  0  0
 40 41  1  0  0  0
 41 42  2  0  0  0
 42 35  1  0  0  0
 35  1  1  0  0  0
  1  2  1  0  0  0
  2  3  1  0  0  0
  3  4  1  0  0  0
  4  5  1  0  0  0
  5  6  1  0  0  0
  4  7  1  0  0  0
  7  8  1  0  0  0
  8  9  2  0  0  0
  8 10  1  0  0  0
 10 11  1  0  0  0
 11 12  2  0  0  0
 10 13  1  0  0  0
 13 14  2  0  0  0
 14 15  1  0  0  0
 15 16  2  0  0  0
 16 17  1  0  0  0
 17 18  2  0  0  0
 16 19  1  0  0  0
 19 20  1  0  0  0
 19 21  2  0  0  0
  7 23  1  0  0  0
 23 24  2  0  0  0
 24 25  1  0  0  0
 25 26  2  0  0  0
 26 27  1  0  0  0
 27 28  2  0  0  0
 27 29  1  0  0  0
 29 30  2  0  0  0
 30 31  1  0  0  0
 31 32  2  0  0  0
 32 33  1  0  0  0
 33 34  2  0  0  0
 42 37  1  0  0  0
  6  1  1  0  0  0
 18 13  1  0  0  0
 28 23  1  0  0  0
 34 29  1  0  0  0
 11  4  1  0  0  0
 20 22  1  0  0  0
M  END
> <minimizedAffinity>
8.83191

> <CNNscore>
0.5611686707

> <CNNaffinity>
7.7396454811

> <CNN_VS>
4.3432464600

> <CNNaffinity_variance>
0.3902297020

$$$$
[H]OC(=O)c1c([H])c([H])c(N2C(=O)N(c3c([H])c([H])c([H])c(-c4c([H])c([H])c([H])c([H])c4[H])c3[H])C3(C2=O)C([H])([H])C([H])([H])N(C([H])([H])c2nc([H])c([H])c([H])c2C([H])([H])[H])C([H])([H])C3([H])[H])c([H])c1[H]


 42 47  0  0  0  0  0  0  0  0999 V2000
   10.0824   24.6044    1.6623 N   0  0  0  0  0  0  0  0  0  0  0  0
   11.2562   25.2438    1.8124 C   0  0  0  0  0  0  0  0  0  0  0  0
   12.0239   25.5131    0.4934 C   0  0  0  0  0  0  0  0  0  0  0  0
   12.0475   24.2577   -0.3594 C   0  0  0  0  0  0  0  0  0  0  0  0
   10.6118   23.8572   -0.5527 C   0  0  0  0  0  0  0  0  0  0  0  0
   10.0954   23.4234    0.7676 C   0  0  0  0  0  0  0  0  0  0  0  0
   12.7165   24.3502   -1.5792 N   0  0  0  0  0  0  0  0  0  0  0  0
   13.4494   23.0814   -1.7531 C   0  0  0  0  0  0  0  0  0  0  0  0
   13.9067   22.6797   -2.8739 O   0  0  0  0  0  0  0  0  0  0  0  0
   13.5443   22.4096   -0.5217 N   0  0  0  0  0  0  0  0  0  0  0  0
   12.8417   23.2196    0.4015 C   0  0  0  0  0  0  0  0  0  0  0  0
   12.8993   23.0659    1.6412 O   0  0  0  0  0  0  0  0  0  0  0  0
   14.3720   21.2720   -0.2105 C   0  0  0  0  0  0  0  0  0  0  0  0
   15.3583   21.2712    0.7068 C   0  0  0  0  0  0  0  0  0  0  0  0
   16.2072   20.1650    0.8489 C   0  0  0  0  0  0  0  0  0  0  0  0
   16.0563   19.0486    0.0612 C   0  0  0  0  0  0  0  0  0  0  0  0
   15.0463   19.0445   -0.8708 C   0  0  0  0  0  0  0  0  0  0  0  0
   14.2308   20.1322   -0.9972 C   0  0  0  0  0  0  0  0  0  0  0  0
   16.9445   17.8980    0.1426 C   0  0  0  0  0  0  0  0  0  0  0  0
   17.7698   17.6318   -0.9490 O   0  0  0  0  0  0  0  0  0  0  0  0
   17.0283   17.1418    1.1145 O   0  0  0  0  0  0  0  0  0  0  0  0
   17.4647   17.7306   -1.9023 H   0  0  0  0  0  0  0  0  0  0  0  0
   12.9693   25.3653   -2.5800 C   0  0  0  0  0  0  0  0  0  0  0  0
   12.0345   26.4251   -2.5637 C   0  0  0  0  0  0  0  0  0  0  0  0
   12.0879   27.4721   -3.4433 C   0  0  0  0  0  0  0  0  0  0  0  0
   13.0870   27.4896   -4.3728 C   0  0  0  0  0  0  0  0  0  0  0  0
   14.0449   26.4611   -4.4264 C   0  0  0  0  0  0  0  0  0  0  0  0
   13.9574   25.4088   -3.5094 C   0  0  0  0  0  0  0  0  0  0  0  0
   14.9911   26.5785   -5.5130 C   0  0  0  0  0  0  0  0  0  0  0  0
   14.9770   25.5518   -6.4788 C   0  0  0  0  0  0  0  0  0  0  0  0
   15.7136   25.5654   -7.6273 C   0  0  0  0  0  0  0  0  0  0  0  0
   16.5296   26.6461   -7.8772 C   0  0  0  0  0  0  0  0  0  0  0  0
   16.5864   27.6800   -6.9684 C   0  0  0  0  0  0  0  0  0  0  0  0
   15.8224   27.6322   -5.8030 C   0  0  0  0  0  0  0  0  0  0  0  0
    9.0401   24.4173    2.5114 C   0  0  0  0  0  0  0  0  0  0  0  0
    6.8809   23.4601    3.9371 C   0  0  0  0  0  0  0  0  0  0  0  0
    7.0347   24.9433    3.8151 C   0  0  0  0  0  0  0  0  0  0  0  0
    6.2009   25.7948    4.4636 C   0  0  0  0  0  0  0  0  0  0  0  0
    6.3080   27.1530    4.1590 C   0  0  0  0  0  0  0  0  0  0  0  0
    7.2423   27.5289    3.2326 C   0  0  0  0  0  0  0  0  0  0  0  0
    8.0525   26.6455    2.6109 N   0  0  0  0  0  0  0  0  0  0  0  0
    7.9922   25.3423    2.8692 C   0  0  0  0  0  0  0  0  0  0  0  0
 36 37  1  0  0  0
 37 38  2  0  0  0
 38 39  1  0  0  0
 39 40  2  0  0  0
 40 41  1  0  0  0
 41 42  2  0  0  0
 42 35  1  0  0  0
 35  1  1  0  0  0
  1  2  1  0  0  0
  2  3  1  0  0  0
  3  4  1  0  0  0
  4  5  1  0  0  0
  5  6  1  0  0  0
  4  7  1  0  0  0
  7  8  1  0  0  0
  8  9  2  0  0  0
  8 10  1  0  0  0
 10 11  1  0  0  0
 11 12  2  0  0  0
 10 13  1  0  0  0
 13 14  2  0  0  0
 14 15  1  0  0  0
 15 16  2  0  0  0
 16 17  1  0  0  0
 17 18  2  0  0  0
 16 19  1  0  0  0
 19 20  1  0  0  0
 19 21  2  0  0  0
  7 23  1  0  0  0
 23 24  2  0  0  0
 24 25  1  0  0  0
 25 26  2  0  0  0
 26 27  1  0  0  0
 27 28  2  0  0  0
 27 29  1  0  0  0
 29 30  2  0  0  0
 30 31  1  0  0  0
 31 32  2  0  0  0
 32 33  1  0  0  0
 33 34  2  0  0  0
 42 37  1  0  0  0
  6  1  1  0  0  0
 18 13  1  0  0  0
 28 23  1  0  0  0
 34 29  1  0  0  0
 11  4  1  0  0  0
 20 22  1  0  0  0
M  END
> <minimizedAffinity>
14.59882

> <CNNscore>
0.5453634858

> <CNNaffinity>
7.6107816696

> <CNN_VS>
4.1506423950

> <CNNaffinity_variance>
0.4583396018

$$$$
[H]OC(=O)c1c([H])c([H])c(N2C(=O)N(c3c([H])c([H])c([H])c(-c4c([H])c([H])c([H])c([H])c4[H])c3[H])C3(C2=O)C([H])([H])C([H])([H])N(C([H])([H])c2nc([H])c([H])c([H])c2C([H])([H])[H])C([H])([H])C3([H])[H])c([H])c1[H]


 42 47  0  0  0  0  0  0  0  0999 V2000
   13.6411   25.5497   -4.2239 N   0  0  0  0  0  0  0  0  0  0  0  0
   14.1218   24.2945   -4.2752 C   0  0  0  0  0  0  0  0  0  0  0  0
   13.5058   23.3190   -3.2405 C   0  0  0  0  0  0  0  0  0  0  0  0
   13.4720   23.9696   -1.8695 C   0  0  0  0  0  0  0  0  0  0  0  0
   12.7094   25.2540   -2.0355 C   0  0  0  0  0  0  0  0  0  0  0  0
   13.5391   26.1520   -2.8741 C   0  0  0  0  0  0  0  0  0  0  0  0
   12.9483   23.1998   -0.8316 N   0  0  0  0  0  0  0  0  0  0  0  0
   13.7941   23.4572    0.3499 C   0  0  0  0  0  0  0  0  0  0  0  0
   13.4389   23.1835    1.5438 O   0  0  0  0  0  0  0  0  0  0  0  0
   15.0079   24.0445   -0.0480 N   0  0  0  0  0  0  0  0  0  0  0  0
   14.9074   24.1973   -1.4511 C   0  0  0  0  0  0  0  0  0  0  0  0
   15.8784   24.4754   -2.1885 O   0  0  0  0  0  0  0  0  0  0  0  0
   16.1898   24.2327    0.7543 C   0  0  0  0  0  0  0  0  0  0  0  0
   16.6886   25.4315    1.1127 C   0  0  0  0  0  0  0  0  0  0  0  0
   17.9196   25.5289    1.7757 C   0  0  0  0  0  0  0  0  0  0  0  0
   18.6511   24.4065    2.0832 C   0  0  0  0  0  0  0  0  0  0  0  0
   18.1409   23.1818    1.7243 C   0  0  0  0  0  0  0  0  0  0  0  0
   16.9415   23.1061    1.0765 C   0  0  0  0  0  0  0  0  0  0  0  0
   19.9552   24.4650    2.7276 C   0  0  0  0  0  0  0  0  0  0  0  0
   19.9959   24.4538    4.1211 O   0  0  0  0  0  0  0  0  0  0  0  0
   21.0336   24.5149    2.1292 O   0  0  0  0  0  0  0  0  0  0  0  0
   19.3371   24.9559    4.6916 H   0  0  0  0  0  0  0  0  0  0  0  0
   11.9399   22.1732   -0.6721 C   0  0  0  0  0  0  0  0  0  0  0  0
   12.4716   20.8886   -0.4186 C   0  0  0  0  0  0  0  0  0  0  0  0
   11.6844   19.7808   -0.2579 C   0  0  0  0  0  0  0  0  0  0  0  0
   10.3305   19.9273   -0.3467 C   0  0  0  0  0  0  0  0  0  0  0  0
    9.7524   21.1858   -0.5922 C   0  0  0  0  0  0  0  0  0  0  0  0
   10.5903   22.2944   -0.7493 C   0  0  0  0  0  0  0  0  0  0  0  0
    8.3142   21.1673   -0.7373 C   0  0  0  0  0  0  0  0  0  0  0  0
    7.7901   20.3331   -1.7455 C   0  0  0  0  0  0  0  0  0  0  0  0
    6.4591   20.1035   -1.9396 C   0  0  0  0  0  0  0  0  0  0  0  0
    5.5530   20.7175   -1.1040 C   0  0  0  0  0  0  0  0  0  0  0  0
    6.0060   21.5460   -0.1007 C   0  0  0  0  0  0  0  0  0  0  0  0
    7.3733   21.7611    0.0674 C   0  0  0  0  0  0  0  0  0  0  0  0
   13.7371   26.5903   -5.0901 C   0  0  0  0  0  0  0  0  0  0  0  0
   15.9315   28.2550   -4.9339 C   0  0  0  0  0  0  0  0  0  0  0  0
   15.8353   27.3355   -6.1102 C   0  0  0  0  0  0  0  0  0  0  0  0
   16.8372   27.2474   -7.0207 C   0  0  0  0  0  0  0  0  0  0  0  0
   16.5927   26.4970   -8.1723 C   0  0  0  0  0  0  0  0  0  0  0  0
   15.3658   25.9051   -8.3013 C   0  0  0  0  0  0  0  0  0  0  0  0
   14.3966   26.0198   -7.3682 N   0  0  0  0  0  0  0  0  0  0  0  0
   14.5818   26.7199   -6.2527 C   0  0  0  0  0  0  0  0  0  0  0  0
 36 37  1  0  0  0
 37 38  2  0  0  0
 38 39  1  0  0  0
 39 40  2  0  0  0
 40 41  1  0  0  0
 41 42  2  0  0  0
 42 35  1  0  0  0
 35  1  1  0  0  0
  1  2  1  0  0  0
  2  3  1  0  0  0
  3  4  1  0  0  0
  4  5  1  0  0  0
  5  6  1  0  0  0
  4  7  1  0  0  0
  7  8  1  0  0  0
  8  9  2  0  0  0
  8 10  1  0  0  0
 10 11  1  0  0  0
 11 12  2  0  0  0
 10 13  1  0  0  0
 13 14  2  0  0  0
 14 15  1  0  0  0
 15 16  2  0  0  0
 16 17  1  0  0  0
 17 18  2  0  0  0
 16 19  1  0  0  0
 19 20  1  0  0  0
 19 21  2  0  0  0
  7 23  1  0  0  0
 23 24  2  0  0  0
 24 25  1  0  0  0
 25 26  2  0  0  0
 26 27  1  0  0  0
 27 28  2  0  0  0
 27 29  1  0  0  0
 29 30  2  0  0  0
 30 31  1  0  0  0
 31 32  2  0  0  0
 32 33  1  0  0  0
 33 34  2  0  0  0
 42 37  1  0  0  0
  6  1  1  0  0  0
 18 13  1  0  0  0
 28 23  1  0  0  0
 34 29  1  0  0  0
 11  4  1  0  0  0
 20 22  1  0  0  0
M  END
> <minimizedAffinity>
14.04057

> <CNNscore>
0.5335739255

> <CNNaffinity>
7.9396162033

> <CNN_VS>
4.2363719940

> <CNNaffinity_variance>
0.7560265660

$$$$
[H]OC(=O)c1c([H])c([H])c(N2C(=O)N(c3c([H])c([H])c(-c4c([H])c([H])c([H])c([H])c4[H])c([H])c3[H])C(=O)C23C([H])([H])C([H])([H])N(C([H])([H])c2nc([H])c([H])c([H])c2C([H])([H])[H])C([H])([H])C3([H])[H])c([H])c1[H]


 42 47  0  0  0  0  0  0  0  0999 V2000
   12.9933   25.4180   -3.3230 N   0  0  0  0  0  0  0  0  0  0  0  0
   14.2927   24.7077   -3.1844 C   0  0  0  0  0  0  0  0  0  0  0  0
   13.9925   23.4599   -2.4203 C   0  0  0  0  0  0  0  0  0  0  0  0
   13.2742   23.6761   -1.1519 C   0  0  0  0  0  0  0  0  0  0  0  0
   12.4019   24.9014   -1.0873 C   0  0  0  0  0  0  0  0  0  0  0  0
   12.8439   26.0071   -1.9776 C   0  0  0  0  0  0  0  0  0  0  0  0
   14.1670   23.6717    0.0200 N   0  0  0  0  0  0  0  0  0  0  0  0
   13.2578   23.4537    1.1098 C   0  0  0  0  0  0  0  0  0  0  0  0
   13.4532   23.8487    2.3056 O   0  0  0  0  0  0  0  0  0  0  0  0
   12.1275   22.7315    0.6126 N   0  0  0  0  0  0  0  0  0  0  0  0
   12.3862   22.5312   -0.7723 C   0  0  0  0  0  0  0  0  0  0  0  0
   11.9444   21.5884   -1.4745 O   0  0  0  0  0  0  0  0  0  0  0  0
   10.9823   22.3038    1.3506 C   0  0  0  0  0  0  0  0  0  0  0  0
    9.7359   22.3482    0.7670 C   0  0  0  0  0  0  0  0  0  0  0  0
    8.6242   21.9291    1.4873 C   0  0  0  0  0  0  0  0  0  0  0  0
    8.8283   21.4808    2.7760 C   0  0  0  0  0  0  0  0  0  0  0  0
   10.0904   21.4441    3.3453 C   0  0  0  0  0  0  0  0  0  0  0  0
   11.1952   21.8585    2.6349 C   0  0  0  0  0  0  0  0  0  0  0  0
    7.6346   21.0380    3.5227 C   0  0  0  0  0  0  0  0  0  0  0  0
    7.5560   19.7225    3.9169 C   0  0  0  0  0  0  0  0  0  0  0  0
    6.4647   19.2552    4.6180 C   0  0  0  0  0  0  0  0  0  0  0  0
    5.4358   20.1127    4.9311 C   0  0  0  0  0  0  0  0  0  0  0  0
    5.5289   21.4285    4.5292 C   0  0  0  0  0  0  0  0  0  0  0  0
    6.6085   21.9020    3.8326 C   0  0  0  0  0  0  0  0  0  0  0  0
   15.5682   23.8365    0.0870 C   0  0  0  0  0  0  0  0  0  0  0  0
   16.3684   23.1231    0.9735 C   0  0  0  0  0  0  0  0  0  0  0  0
   17.7309   23.2951    1.0225 C   0  0  0  0  0  0  0  0  0  0  0  0
   18.3644   24.1807    0.1972 C   0  0  0  0  0  0  0  0  0  0  0  0
   17.6113   24.8948   -0.6817 C   0  0  0  0  0  0  0  0  0  0  0  0
   16.2280   24.7254   -0.7374 C   0  0  0  0  0  0  0  0  0  0  0  0
   19.8074   24.3316    0.2810 C   0  0  0  0  0  0  0  0  0  0  0  0
   20.5288   24.4038   -0.8958 O   0  0  0  0  0  0  0  0  0  0  0  0
   20.4321   24.3995    1.3678 O   0  0  0  0  0  0  0  0  0  0  0  0
   20.7456   25.3085   -1.2936 H   0  0  0  0  0  0  0  0  0  0  0  0
   13.0886   26.4215   -4.3455 C   0  0  0  0  0  0  0  0  0  0  0  0
   14.3178   26.6316   -6.9342 C   0  0  0  0  0  0  0  0  0  0  0  0
   15.0696   27.0202   -5.7274 C   0  0  0  0  0  0  0  0  0  0  0  0
   16.3560   27.4907   -5.8783 C   0  0  0  0  0  0  0  0  0  0  0  0
   17.0964   27.8665   -4.7714 C   0  0  0  0  0  0  0  0  0  0  0  0
   16.5001   27.7504   -3.5437 C   0  0  0  0  0  0  0  0  0  0  0  0
   15.2615   27.2932   -3.4454 N   0  0  0  0  0  0  0  0  0  0  0  0
   14.4758   26.9085   -4.4603 C   0  0  0  0  0  0  0  0  0  0  0  0
 36 37  1  0  0  0
 37 38  2  0  0  0
 38 39  1  0  0  0
 39 40  2  0  0  0
 40 41  1  0  0  0
 41 42  2  0  0  0
 42 35  1  0  0  0
 35  1  1  0  0  0
  1  2  1  0  0  0
  2  3  1  0  0  0
  3  4  1  0  0  0
  4  5  1  0  0  0
  5  6  1  0  0  0
  4  7  1  0  0  0
  7  8  1  0  0  0
  8  9  2  0  0  0
  8 10  1  0  0  0
 10 11  1  0  0  0
 11 12  2  0  0  0
 10 13  1  0  0  0
 13 14  2  0  0  0
 14 15  1  0  0  0
 15 16  2  0  0  0
 16 17  1  0  0  0
 17 18  2  0  0  0
 16 19  1  0  0  0
 19 20  2  0  0  0
 20 21  1  0  0  0
 21 22  2  0  0  0
 22 23  1  0  0  0
 23 24  2  0  0  0
  7 25  1  0  0  0
 25 26  2  0  0  0
 26 27  1  0  0  0
 27 28  2  0  0  0
 28 29  1  0  0  0
 29 30  2  0  0  0
 28 31  1  0  0  0
 31 32  1  0  0  0
 31 33  2  0  0  0
 42 37  1  0  0  0
  6  1  1  0  0  0
 18 13  1  0  0  0
 24 19  1  0  0  0
 30 25  1  0  0  0
 11  4  1  0  0  0
 32 34  1  0  0  0
M  END
> <minimizedAffinity>
8.47863

> <CNNscore>
0.4927598834

> <CNNaffinity>
7.7802858353

> <CNN_VS>
3.8338127136

> <CNNaffinity_variance>
0.3579501510

$$$$
[H]OC(=O)c1c([H])c([H])c(N2C(=O)N(c3c([H])c([H])c(-c4c([H])c([H])c([H])c([H])c4[H])c([H])c3[H])C(=O)C23C([H])([H])C([H])([H])N(C([H])([H])c2nc([H])c([H])c([H])c2C([H])([H])[H])C([H])([H])C3([H])[H])c([H])c1[H]


 42 47  0  0  0  0  0  0  0  0999 V2000
    8.2627   25.3122    2.0507 N   0  0  0  0  0  0  0  0  0  0  0  0
    9.0054   24.5319    3.0762 C   0  0  0  0  0  0  0  0  0  0  0  0
   10.4465   24.6327    2.6964 C   0  0  0  0  0  0  0  0  0  0  0  0
   10.7411   24.2509    1.3041 C   0  0  0  0  0  0  0  0  0  0  0  0
    9.6221   24.4429    0.3155 C   0  0  0  0  0  0  0  0  0  0  0  0
    8.2640   24.3679    0.9159 C   0  0  0  0  0  0  0  0  0  0  0  0
   11.2448   22.8717    1.1826 N   0  0  0  0  0  0  0  0  0  0  0  0
   11.8587   22.8720   -0.1155 C   0  0  0  0  0  0  0  0  0  0  0  0
   11.9868   21.8427   -0.8559 O   0  0  0  0  0  0  0  0  0  0  0  0
   12.2852   24.2055   -0.4090 N   0  0  0  0  0  0  0  0  0  0  0  0
   11.9156   24.9793    0.7267 C   0  0  0  0  0  0  0  0  0  0  0  0
   12.4808   26.0310    1.1161 O   0  0  0  0  0  0  0  0  0  0  0  0
   12.9417   24.6623   -1.5919 C   0  0  0  0  0  0  0  0  0  0  0  0
   12.5157   25.8174   -2.2088 C   0  0  0  0  0  0  0  0  0  0  0  0
   13.1583   26.2601   -3.3583 C   0  0  0  0  0  0  0  0  0  0  0  0
   14.2113   25.5060   -3.8337 C   0  0  0  0  0  0  0  0  0  0  0  0
   14.6246   24.3465   -3.1987 C   0  0  0  0  0  0  0  0  0  0  0  0
   13.9905   23.9041   -2.0589 C   0  0  0  0  0  0  0  0  0  0  0  0
   14.8815   25.9950   -5.0544 C   0  0  0  0  0  0  0  0  0  0  0  0
   15.3012   27.3044   -5.0945 C   0  0  0  0  0  0  0  0  0  0  0  0
   15.9338   27.8135   -6.2087 C   0  0  0  0  0  0  0  0  0  0  0  0
   16.1516   27.0047   -7.2998 C   0  0  0  0  0  0  0  0  0  0  0  0
   15.7252   25.6946   -7.2446 C   0  0  0  0  0  0  0  0  0  0  0  0
   15.0960   25.1797   -6.1428 C   0  0  0  0  0  0  0  0  0  0  0  0
   11.1616   21.7974    2.0958 C   0  0  0  0  0  0  0  0  0  0  0  0
   12.2184   20.9230    2.3276 C   0  0  0  0  0  0  0  0  0  0  0  0
   12.1197   19.8845    3.2221 C   0  0  0  0  0  0  0  0  0  0  0  0
   10.9712   19.6631    3.9284 C   0  0  0  0  0  0  0  0  0  0  0  0
    9.9184   20.4997    3.7254 C   0  0  0  0  0  0  0  0  0  0  0  0
   10.0112   21.5560    2.8193 C   0  0  0  0  0  0  0  0  0  0  0  0
   10.9090   18.5538    4.8652 C   0  0  0  0  0  0  0  0  0  0  0  0
   12.0768   17.8736    5.1548 O   0  0  0  0  0  0  0  0  0  0  0  0
    9.8485   18.1820    5.4248 O   0  0  0  0  0  0  0  0  0  0  0  0
   12.6273   18.1465    5.9586 H   0  0  0  0  0  0  0  0  0  0  0  0
    6.9346   25.5965    2.5166 C   0  0  0  0  0  0  0  0  0  0  0  0
    6.8032   26.7433    5.1478 C   0  0  0  0  0  0  0  0  0  0  0  0
    6.6920   27.6089    3.9600 C   0  0  0  0  0  0  0  0  0  0  0  0
    6.5370   28.9653    4.1482 C   0  0  0  0  0  0  0  0  0  0  0  0
    6.4291   29.8133    3.0600 C   0  0  0  0  0  0  0  0  0  0  0  0
    6.4829   29.2500    1.8126 C   0  0  0  0  0  0  0  0  0  0  0  0
    6.6329   27.9414    1.6786 N   0  0  0  0  0  0  0  0  0  0  0  0
    6.7449   27.0505    2.6732 C   0  0  0  0  0  0  0  0  0  0  0  0
 36 37  1  0  0  0
 37 38  2  0  0  0
 38 39  1  0  0  0
 39 40  2  0  0  0
 40 41  1  0  0  0
 41 42  2  0  0  0
 42 35  1  0  0  0
 35  1  1  0  0  0
  1  2  1  0  0  0
  2  3  1  0  0  0
  3  4  1  0  0  0
  4  5  1  0  0  0
  5  6  1  0  0  0
  4  7  1  0  0  0
  7  8  1  0  0  0
  8  9  2  0  0  0
  8 10  1  0  0  0
 10 11  1  0  0  0
 11 12  2  0  0  0
 10 13  1  0  0  0
 13 14  2  0  0  0
 14 15  1  0  0  0
 15 16  2  0  0  0
 16 17  1  0  0  0
 17 18  2  0  0  0
 16 19  1  0  0  0
 19 20  2  0  0  0
 20 21  1  0  0  0
 21 22  2  0  0  0
 22 23  1  0  0  0
 23 24  2  0  0  0
  7 25  1  0  0  0
 25 26  2  0  0  0
 26 27  1  0  0  0
 27 28  2  0  0  0
 28 29  1  0  0  0
 29 30  2  0  0  0
 28 31  1  0  0  0
 31 32  1  0  0  0
 31 33  2  0  0  0
 42 37  1  0  0  0
  6  1  1  0  0  0
 18 13  1  0  0  0
 24 19  1  0  0  0
 30 25  1  0  0  0
 11  4  1  0  0  0
 32 34  1  0  0  0
M  END
> <minimizedAffinity>
-6.38474

> <CNNscore>
0.4879258871

> <CNNaffinity>
7.2183279991

> <CNN_VS>
3.5220091343

> <CNNaffinity_variance>
0.1599784344

$$$$
[H]OC(=O)c1c([H])c([H])c(N2C(=O)N(c3c([H])c([H])c(-c4c([H])c([H])c([H])c([H])c4[H])c([H])c3[H])C(=O)C23C([H])([H])C([H])([H])N(C([H])([H])c2nc([H])c([H])c([H])c2C([H])([H])[H])C([H])([H])C3([H])[H])c([H])c1[H]


 42 47  0  0  0  0  0  0  0  0999 V2000
    8.6572   25.1610    1.7555 N   0  0  0  0  0  0  0  0  0  0  0  0
    9.4448   24.4013    2.7629 C   0  0  0  0  0  0  0  0  0  0  0  0
   10.8746   24.5552    2.3590 C   0  0  0  0  0  0  0  0  0  0  0  0
   11.1582   24.1924    0.9593 C   0  0  0  0  0  0  0  0  0  0  0  0
   10.0160   24.3508   -0.0086 C   0  0  0  0  0  0  0  0  0  0  0  0
    8.6721   24.2243    0.6146 C   0  0  0  0  0  0  0  0  0  0  0  0
   11.7078   22.8327    0.8201 N   0  0  0  0  0  0  0  0  0  0  0  0
   12.2986   22.8625   -0.4884 C   0  0  0  0  0  0  0  0  0  0  0  0
   12.4500   21.8428   -1.2376 O   0  0  0  0  0  0  0  0  0  0  0  0
   12.6728   24.2119   -0.7803 N   0  0  0  0  0  0  0  0  0  0  0  0
   12.2960   24.9653    0.3667 C   0  0  0  0  0  0  0  0  0  0  0  0
   12.8305   26.0341    0.7532 O   0  0  0  0  0  0  0  0  0  0  0  0
   13.2921   24.6988   -1.9714 C   0  0  0  0  0  0  0  0  0  0  0  0
   12.7937   25.8224   -2.5921 C   0  0  0  0  0  0  0  0  0  0  0  0
   13.4002   26.2945   -3.7495 C   0  0  0  0  0  0  0  0  0  0  0  0
   14.4923   25.6008   -4.2284 C   0  0  0  0  0  0  0  0  0  0  0  0
   14.9785   24.4722   -3.5894 C   0  0  0  0  0  0  0  0  0  0  0  0
   14.3803   24.0008   -2.4418 C   0  0  0  0  0  0  0  0  0  0  0  0
   15.1231   26.1204   -5.4575 C   0  0  0  0  0  0  0  0  0  0  0  0
   15.2322   25.2846   -6.5446 C   0  0  0  0  0  0  0  0  0  0  0  0
   15.8112   25.7180   -7.7183 C   0  0  0  0  0  0  0  0  0  0  0  0
   16.2889   27.0046   -7.8099 C   0  0  0  0  0  0  0  0  0  0  0  0
   16.1726   27.8305   -6.7119 C   0  0  0  0  0  0  0  0  0  0  0  0
   15.5991   27.4094   -5.5419 C   0  0  0  0  0  0  0  0  0  0  0  0
   11.6785   21.7507    1.7274 C   0  0  0  0  0  0  0  0  0  0  0  0
   12.6135   20.7210    1.7015 C   0  0  0  0  0  0  0  0  0  0  0  0
   12.5703   19.6773    2.5944 C   0  0  0  0  0  0  0  0  0  0  0  0
   11.6003   19.6041    3.5539 C   0  0  0  0  0  0  0  0  0  0  0  0
   10.6701   20.5948    3.6069 C   0  0  0  0  0  0  0  0  0  0  0  0
   10.7077   21.6573    2.7041 C   0  0  0  0  0  0  0  0  0  0  0  0
   11.5913   18.4835    4.4792 C   0  0  0  0  0  0  0  0  0  0  0  0
   12.7754   17.8057    4.6999 O   0  0  0  0  0  0  0  0  0  0  0  0
   10.5627   18.0999    5.0882 O   0  0  0  0  0  0  0  0  0  0  0  0
   13.3655   18.0717    5.4776 H   0  0  0  0  0  0  0  0  0  0  0  0
    7.3283   25.3955    2.2460 C   0  0  0  0  0  0  0  0  0  0  0  0
    6.4339   26.1507    4.8701 C   0  0  0  0  0  0  0  0  0  0  0  0
    6.5010   24.7267    4.4955 C   0  0  0  0  0  0  0  0  0  0  0  0
    6.1164   23.7845    5.4249 C   0  0  0  0  0  0  0  0  0  0  0  0
    6.1638   22.4370    5.1137 C   0  0  0  0  0  0  0  0  0  0  0  0
    6.6025   22.0928    3.8625 C   0  0  0  0  0  0  0  0  0  0  0  0
    6.9621   23.0317    3.0012 N   0  0  0  0  0  0  0  0  0  0  0  0
    6.9478   24.3538    3.2181 C   0  0  0  0  0  0  0  0  0  0  0  0
 36 37  1  0  0  0
 37 38  2  0  0  0
 38 39  1  0  0  0
 39 40  2  0  0  0
 40 41  1  0  0  0
 41 42  2  0  0  0
 42 35  1  0  0  0
 35  1  1  0  0  0
  1  2  1  0  0  0
  2  3  1  0  0  0
  3  4  1  0  0  0
  4  5  1  0  0  0
  5  6  1  0  0  0
  4  7  1  0  0  0
  7  8  1  0  0  0
  8  9  2  0  0  0
  8 10  1  0  0  0
 10 11  1  0  0  0
 11 12  2  0  0  0
 10 13  1  0  0  0
 13 14  2  0  0  0
 14 15  1  0  0  0
 15 16  2  0  0  0
 16 17  1  0  0  0
 17 18  2  0  0  0
 16 19  1  0  0  0
 19 20  2  0  0  0
 20 21  1  0  0  0
 21 22  2  0  0  0
 22 23  1  0  0  0
 23 24  2  0  0  0
  7 25  1  0  0  0
 25 26  2  0  0  0
 26 27  1  0  0  0
 27 28  2  0  0  0
 28 29  1  0  0  0
 29 30  2  0  0  0
 28 31  1  0  0  0
 31 32  1  0  0  0
 31 33  2  0  0  0
 42 37  1  0  0  0
  6  1  1  0  0  0
 18 13  1  0  0  0
 24 19  1  0  0  0
 30 25  1  0  0  0
 11  4  1  0  0  0
 32 34  1  0  0  0
M  END
> <minimizedAffinity>
-6.01292

> <CNNscore>
0.4656255841

> <CNNaffinity>
7.2241568565

> <CNN_VS>
3.3637523651

> <CNNaffinity_variance>
0.1192346439

$$$$
[H]OC(=O)c1c([H])c([H])c(N2C(=O)N(c3c([H])c([H])c(-c4c([H])c([H])c([H])c([H])c4[H])c([H])c3[H])C(=O)C23C([H])([H])C([H])([H])N(C([H])([H])c2nc([H])c([H])c([H])c2C([H])([H])[H])C([H])([H])C3([H])[H])c([H])c1[H]


 42 47  0  0  0  0  0  0  0  0999 V2000
   15.1604   24.4354   -4.3835 N   0  0  0  0  0  0  0  0  0  0  0  0
   16.3116   23.9893   -3.5540 C   0  0  0  0  0  0  0  0  0  0  0  0
   15.8748   22.7160   -2.9066 C   0  0  0  0  0  0  0  0  0  0  0  0
   14.5952   22.8052   -2.1813 C   0  0  0  0  0  0  0  0  0  0  0  0
   13.6236   23.8411   -2.6807 C   0  0  0  0  0  0  0  0  0  0  0  0
   14.2669   25.0006   -3.3531 C   0  0  0  0  0  0  0  0  0  0  0  0
   14.7709   22.9859   -0.7298 N   0  0  0  0  0  0  0  0  0  0  0  0
   13.4876   22.6102   -0.2063 C   0  0  0  0  0  0  0  0  0  0  0  0
   12.9935   23.0494    0.8832 O   0  0  0  0  0  0  0  0  0  0  0  0
   12.8894   21.6789   -1.1124 N   0  0  0  0  0  0  0  0  0  0  0  0
   13.8333   21.5158   -2.1648 C   0  0  0  0  0  0  0  0  0  0  0  0
   13.9592   20.4975   -2.8892 O   0  0  0  0  0  0  0  0  0  0  0  0
   11.6145   21.0481   -0.9868 C   0  0  0  0  0  0  0  0  0  0  0  0
   11.4954   19.8833   -0.2621 C   0  0  0  0  0  0  0  0  0  0  0  0
   10.2529   19.2735   -0.1401 C   0  0  0  0  0  0  0  0  0  0  0  0
    9.1800   19.8768   -0.7631 C   0  0  0  0  0  0  0  0  0  0  0  0
    9.3206   21.0487   -1.4880 C   0  0  0  0  0  0  0  0  0  0  0  0
   10.5503   21.6565   -1.6114 C   0  0  0  0  0  0  0  0  0  0  0  0
    7.8690   19.2142   -0.6192 C   0  0  0  0  0  0  0  0  0  0  0  0
    7.8293   17.9403   -0.1017 C   0  0  0  0  0  0  0  0  0  0  0  0
    6.6321   17.2749    0.0560 C   0  0  0  0  0  0  0  0  0  0  0  0
    5.4563   17.8890   -0.3077 C   0  0  0  0  0  0  0  0  0  0  0  0
    5.5121   19.1660   -0.8249 C   0  0  0  0  0  0  0  0  0  0  0  0
    6.6960   19.8350   -0.9854 C   0  0  0  0  0  0  0  0  0  0  0  0
   15.9040   23.4171   -0.0052 C   0  0  0  0  0  0  0  0  0  0  0  0
   16.2333   24.7600    0.1479 C   0  0  0  0  0  0  0  0  0  0  0  0
   17.3389   25.1608    0.8588 C   0  0  0  0  0  0  0  0  0  0  0  0
   18.1696   24.2518    1.4509 C   0  0  0  0  0  0  0  0  0  0  0  0
   17.8765   22.9302    1.3205 C   0  0  0  0  0  0  0  0  0  0  0  0
   16.7561   22.5159    0.6006 C   0  0  0  0  0  0  0  0  0  0  0  0
   19.3279   24.7181    2.1944 C   0  0  0  0  0  0  0  0  0  0  0  0
   20.4966   24.9671    1.4997 O   0  0  0  0  0  0  0  0  0  0  0  0
   19.3211   24.9062    3.4356 O   0  0  0  0  0  0  0  0  0  0  0  0
   20.6911   25.9034    1.1693 H   0  0  0  0  0  0  0  0  0  0  0  0
   15.5912   25.4265   -5.3289 C   0  0  0  0  0  0  0  0  0  0  0  0
   17.6974   25.9736   -3.4527 C   0  0  0  0  0  0  0  0  0  0  0  0
   16.7092   27.0181   -3.7768 C   0  0  0  0  0  0  0  0  0  0  0  0
   16.8321   28.2493   -3.1699 C   0  0  0  0  0  0  0  0  0  0  0  0
   15.9256   29.2576   -3.4465 C   0  0  0  0  0  0  0  0  0  0  0  0
   14.9212   28.9776   -4.3349 C   0  0  0  0  0  0  0  0  0  0  0  0
   14.8415   27.7805   -4.8945 N   0  0  0  0  0  0  0  0  0  0  0  0
   15.6726   26.7506   -4.6847 C   0  0  0  0  0  0  0  0  0  0  0  0
 36 37  1  0  0  0
 37 38  2  0  0  0
 38 39  1  0  0  0
 39 40  2  0  0  0
 40 41  1  0  0  0
 41 42  2  0  0  0
 42 35  1  0  0  0
 35  1  1  0  0  0
  1  2  1  0  0  0
  2  3  1  0  0  0
  3  4  1  0  0  0
  4  5  1  0  0  0
  5  6  1  0  0  0
  4  7  1  0  0  0
  7  8  1  0  0  0
  8  9  2  0  0  0
  8 10  1  0  0  0
 10 11  1  0  0  0
 11 12  2  0  0  0
 10 13  1  0  0  0
 13 14  2  0  0  0
 14 15  1  0  0  0
 15 16  2  0  0  0
 16 17  1  0  0  0
 17 18  2  0  0  0
 16 19  1  0  0  0
 19 20  2  0  0  0
 20 21  1  0  0  0
 21 22  2  0  0  0
 22 23  1  0  0  0
 23 24  2  0  0  0
  7 25  1  0  0  0
 25 26  2  0  0  0
 26 27  1  0  0  0
 27 28  2  0  0  0
 28 29  1  0  0  0
 29 30  2  0  0  0
 28 31  1  0  0  0
 31 32  1  0  0  0
 31 33  2  0  0  0
 42 37  1  0  0  0
  6  1  1  0  0  0
 18 13  1  0  0  0
 24 19  1  0  0  0
 30 25  1  0  0  0
 11  4  1  0  0  0
 32 34  1  0  0  0
M  END
> <minimizedAffinity>
13.24510

> <CNNscore>
0.4574307203

> <CNNaffinity>
7.7029609680

> <CNN_VS>
3.5235710144

> <CNNaffinity_variance>
0.4409843981

$$$$
[H]OC(=O)c1c([H])c([H])c(N2C(=O)N(c3c([H])c([H])c(-c4c([H])c([H])c([H])c([H])c4[H])c([H])c3[H])C(=O)C23C([H])([H])C([H])([H])N(C([H])([H])c2nc([H])c([H])c([H])c2C([H])([H])[H])C([H])([H])C3([H])[H])c([H])c1[H]


 42 47  0  0  0  0  0  0  0  0999 V2000
   13.8247   21.3916    0.8862 N   0  0  0  0  0  0  0  0  0  0  0  0
   12.3409   21.4187    0.9842 C   0  0  0  0  0  0  0  0  0  0  0  0
   11.8646   22.0817   -0.2668 C   0  0  0  0  0  0  0  0  0  0  0  0
   12.4845   23.3901   -0.5408 C   0  0  0  0  0  0  0  0  0  0  0  0
   13.8692   23.5942    0.0137 C   0  0  0  0  0  0  0  0  0  0  0  0
   14.1600   22.7879    1.2286 C   0  0  0  0  0  0  0  0  0  0  0  0
   11.6394   24.5228   -0.1246 N   0  0  0  0  0  0  0  0  0  0  0  0
   12.2012   25.6228   -0.8569 C   0  0  0  0  0  0  0  0  0  0  0  0
   12.1544   26.8403   -0.4833 O   0  0  0  0  0  0  0  0  0  0  0  0
   12.8037   25.1073   -2.0475 N   0  0  0  0  0  0  0  0  0  0  0  0
   12.5879   23.7014   -2.0022 C   0  0  0  0  0  0  0  0  0  0  0  0
   12.5094   22.9366   -2.9952 O   0  0  0  0  0  0  0  0  0  0  0  0
   13.4793   25.8476   -3.0647 C   0  0  0  0  0  0  0  0  0  0  0  0
   12.9520   25.9033   -4.3355 C   0  0  0  0  0  0  0  0  0  0  0  0
   13.6109   26.6264   -5.3221 C   0  0  0  0  0  0  0  0  0  0  0  0
   14.7829   27.2648   -4.9727 C   0  0  0  0  0  0  0  0  0  0  0  0
   15.2972   27.1964   -3.6885 C   0  0  0  0  0  0  0  0  0  0  0  0
   14.6473   26.4808   -2.7074 C   0  0  0  0  0  0  0  0  0  0  0  0
   15.4656   28.0293   -6.0348 C   0  0  0  0  0  0  0  0  0  0  0  0
   15.4801   29.4023   -5.9510 C   0  0  0  0  0  0  0  0  0  0  0  0
   16.1044   30.1659   -6.9144 C   0  0  0  0  0  0  0  0  0  0  0  0
   16.7239   29.5513   -7.9776 C   0  0  0  0  0  0  0  0  0  0  0  0
   16.7009   28.1744   -8.0478 C   0  0  0  0  0  0  0  0  0  0  0  0
   16.0836   27.4074   -7.0962 C   0  0  0  0  0  0  0  0  0  0  0  0
   10.5443   24.5513    0.7670 C   0  0  0  0  0  0  0  0  0  0  0  0
   10.6102   25.1498    2.0211 C   0  0  0  0  0  0  0  0  0  0  0  0
    9.5332   25.1698    2.8743 C   0  0  0  0  0  0  0  0  0  0  0  0
    8.3417   24.5987    2.5265 C   0  0  0  0  0  0  0  0  0  0  0  0
    8.2433   24.0046    1.3071 C   0  0  0  0  0  0  0  0  0  0  0  0
    9.3321   23.9805    0.4357 C   0  0  0  0  0  0  0  0  0  0  0  0
    7.2272   24.6427    3.4582 C   0  0  0  0  0  0  0  0  0  0  0  0
    6.8142   25.8748    3.9290 O   0  0  0  0  0  0  0  0  0  0  0  0
    6.6206   23.6186    3.8572 O   0  0  0  0  0  0  0  0  0  0  0  0
    6.0652   26.3643    3.4566 H   0  0  0  0  0  0  0  0  0  0  0  0
   14.3626   20.4576    1.8350 C   0  0  0  0  0  0  0  0  0  0  0  0
   16.7266   22.0880    1.7395 C   0  0  0  0  0  0  0  0  0  0  0  0
   16.7822   20.6824    1.2991 C   0  0  0  0  0  0  0  0  0  0  0  0
   17.9871   20.1797    0.8579 C   0  0  0  0  0  0  0  0  0  0  0  0
   18.0827   18.8653    0.4359 C   0  0  0  0  0  0  0  0  0  0  0  0
   16.9445   18.1043    0.4775 C   0  0  0  0  0  0  0  0  0  0  0  0
   15.8080   18.6288    0.9089 N   0  0  0  0  0  0  0  0  0  0  0  0
   15.6265   19.8863    1.3343 C   0  0  0  0  0  0  0  0  0  0  0  0
 36 37  1  0  0  0
 37 38  2  0  0  0
 38 39  1  0  0  0
 39 40  2  0  0  0
 40 41  1  0  0  0
 41 42  2  0  0  0
 42 35  1  0  0  0
 35  1  1  0  0  0
  1  2  1  0  0  0
  2  3  1  0  0  0
  3  4  1  0  0  0
  4  5  1  0  0  0
  5  6  1  0  0  0
  4  7  1  0  0  0
  7  8  1  0  0  0
  8  9  2  0  0  0
  8 10  1  0  0  0
 10 11  1  0  0  0
 11 12  2  0  0  0
 10 13  1  0  0  0
 13 14  2  0  0  0
 14 15  1  0  0  0
 15 16  2  0  0  0
 16 17  1  0  0  0
 17 18  2  0  0  0
 16 19  1  0  0  0
 19 20  2  0  0  0
 20 21  1  0  0  0
 21 22  2  0  0  0
 22 23  1  0  0  0
 23 24  2  0  0  0
  7 25  1  0  0  0
 25 26  2  0  0  0
 26 27  1  0  0  0
 27 28  2  0  0  0
 28 29  1  0  0  0
 29 30  2  0  0  0
 28 31  1  0  0  0
 31 32  1  0  0  0
 31 33  2  0  0  0
 42 37  1  0  0  0
  6  1  1  0  0  0
 18 13  1  0  0  0
 24 19  1  0  0  0
 30 25  1  0  0  0
 11  4  1  0  0  0
 32 34  1  0  0  0
M  END
> <minimizedAffinity>
37.02998

> <CNNscore>
0.4320971966

> <CNNaffinity>
7.1316137314

> <CNN_VS>
3.0815503597

> <CNNaffinity_variance>
0.5868045688

$$$$
[H]OC(=O)c1c([H])c([H])c(N2C(=O)N(c3c([H])c([H])c(-c4c([H])c([H])c([H])c([H])c4[H])c([H])c3[H])C(=O)C23C([H])([H])C([H])([H])N(C([H])([H])c2nc([H])c([H])c([H])c2C([H])([H])[H])C([H])([H])C3([H])[H])c([H])c1[H]


 42 47  0  0  0  0  0  0  0  0999 V2000
   15.2248   25.4398   -3.6294 N   0  0  0  0  0  0  0  0  0  0  0  0
   16.3859   24.8785   -2.8885 C   0  0  0  0  0  0  0  0  0  0  0  0
   15.9535   23.5270   -2.4219 C   0  0  0  0  0  0  0  0  0  0  0  0
   14.6847   23.5146   -1.6727 C   0  0  0  0  0  0  0  0  0  0  0  0
   13.7101   24.6125   -2.0059 C   0  0  0  0  0  0  0  0  0  0  0  0
   14.3482   25.8546   -2.5164 C   0  0  0  0  0  0  0  0  0  0  0  0
   14.8817   23.4873   -0.2129 N   0  0  0  0  0  0  0  0  0  0  0  0
   13.6045   23.0434    0.2706 C   0  0  0  0  0  0  0  0  0  0  0  0
   13.1277   23.3244    1.4185 O   0  0  0  0  0  0  0  0  0  0  0  0
   12.9901   22.2510   -0.7496 N   0  0  0  0  0  0  0  0  0  0  0  0
   13.9183   22.2372   -1.8282 C   0  0  0  0  0  0  0  0  0  0  0  0
   14.0300   21.3318   -2.6913 O   0  0  0  0  0  0  0  0  0  0  0  0
   11.7147   21.6110   -0.6962 C   0  0  0  0  0  0  0  0  0  0  0  0
   10.5670   22.3717   -0.6803 C   0  0  0  0  0  0  0  0  0  0  0  0
    9.3277   21.7454   -0.6305 C   0  0  0  0  0  0  0  0  0  0  0  0
    9.3084   20.3663   -0.5989 C   0  0  0  0  0  0  0  0  0  0  0  0
   10.4744   19.6188   -0.6154 C   0  0  0  0  0  0  0  0  0  0  0  0
   11.7049   20.2356   -0.6648 C   0  0  0  0  0  0  0  0  0  0  0  0
    7.9819   19.7210   -0.5487 C   0  0  0  0  0  0  0  0  0  0  0  0
    6.8863   20.4931   -0.2392 C   0  0  0  0  0  0  0  0  0  0  0  0
    5.6236   19.9427   -0.1798 C   0  0  0  0  0  0  0  0  0  0  0  0
    5.4504   18.6018   -0.4328 C   0  0  0  0  0  0  0  0  0  0  0  0
    6.5581   17.8409   -0.7415 C   0  0  0  0  0  0  0  0  0  0  0  0
    7.8161   18.3782   -0.8030 C   0  0  0  0  0  0  0  0  0  0  0  0
   16.0266   23.8094    0.5489 C   0  0  0  0  0  0  0  0  0  0  0  0
   16.8327   22.8430    1.1417 C   0  0  0  0  0  0  0  0  0  0  0  0
   17.9445   23.1756    1.8776 C   0  0  0  0  0  0  0  0  0  0  0  0
   18.3101   24.4792    2.0610 C   0  0  0  0  0  0  0  0  0  0  0  0
   17.5434   25.4494    1.4949 C   0  0  0  0  0  0  0  0  0  0  0  0
   16.4136   25.1195    0.7466 C   0  0  0  0  0  0  0  0  0  0  0  0
   19.4939   24.7875    2.8458 C   0  0  0  0  0  0  0  0  0  0  0  0
   20.1883   25.9472    2.5572 O   0  0  0  0  0  0  0  0  0  0  0  0
   19.9177   24.0541    3.7723 O   0  0  0  0  0  0  0  0  0  0  0  0
   19.9797   26.7945    3.0693 H   0  0  0  0  0  0  0  0  0  0  0  0
   15.6458   26.5542   -4.4310 C   0  0  0  0  0  0  0  0  0  0  0  0
   13.0924   26.9457   -5.6889 C   0  0  0  0  0  0  0  0  0  0  0  0
   14.2348   26.4510   -6.4780 C   0  0  0  0  0  0  0  0  0  0  0  0
   14.0456   26.1971   -7.8193 C   0  0  0  0  0  0  0  0  0  0  0  0
   15.0919   25.7318   -8.5962 C   0  0  0  0  0  0  0  0  0  0  0  0
   16.2999   25.5402   -7.9794 C   0  0  0  0  0  0  0  0  0  0  0  0
   16.4365   25.7973   -6.6879 N   0  0  0  0  0  0  0  0  0  0  0  0
   15.4808   26.2483   -5.8641 C   0  0  0  0  0  0  0  0  0  0  0  0
 36 37  1  0  0  0
 37 38  2  0  0  0
 38 39  1  0  0  0
 39 40  2  0  0  0
 40 41  1  0  0  0
 41 42  2  0  0  0
 42 35  1  0  0  0
 35  1  1  0  0  0
  1  2  1  0  0  0
  2  3  1  0  0  0
  3  4  1  0  0  0
  4  5  1  0  0  0
  5  6  1  0  0  0
  4  7  1  0  0  0
  7  8  1  0  0  0
  8  9  2  0  0  0
  8 10  1  0  0  0
 10 11  1  0  0  0
 11 12  2  0  0  0
 10 13  1  0  0  0
 13 14  2  0  0  0
 14 15  1  0  0  0
 15 16  2  0  0  0
 16 17  1  0  0  0
 17 18  2  0  0  0
 16 19  1  0  0  0
 19 20  2  0  0  0
 20 21  1  0  0  0
 21 22  2  0  0  0
 22 23  1  0  0  0
 23 24  2  0  0  0
  7 25  1  0  0  0
 25 26  2  0  0  0
 26 27  1  0  0  0
 27 28  2  0  0  0
 28 29  1  0  0  0
 29 30  2  0  0  0
 28 31  1  0  0  0
 31 32  1  0  0  0
 31 33  2  0  0  0
 42 37  1  0  0  0
  6  1  1  0  0  0
 18 13  1  0  0  0
 24 19  1  0  0  0
 30 25  1  0  0  0
 11  4  1  0  0  0
 32 34  1  0  0  0
M  END
> <minimizedAffinity>
13.49120

> <CNNscore>
0.4291981459

> <CNNaffinity>
7.7012648582

> <CNN_VS>
3.3053686619

> <CNNaffinity_variance>
0.4473642409

$$$$
[H]OC(=O)c1c([H])c([H])c(N2C(=O)N(c3c([H])c([H])c(-c4c([H])c([H])c([H])c([H])c4[H])c([H])c3[H])C(=O)C23C([H])([H])C([H])([H])N(C([H])([H])c2nc([H])c([H])c([H])c2C([H])([H])[H])C([H])([H])C3([H])[H])c([H])c1[H]


 42 47  0  0  0  0  0  0  0  0999 V2000
    7.8049   21.1529   -1.4291 N   0  0  0  0  0  0  0  0  0  0  0  0
    8.0747   21.1592    0.0336 C   0  0  0  0  0  0  0  0  0  0  0  0
    9.0094   22.3006    0.2679 C   0  0  0  0  0  0  0  0  0  0  0  0
   10.2161   22.2876   -0.5776 C   0  0  0  0  0  0  0  0  0  0  0  0
   10.0796   21.6066   -1.9133 C   0  0  0  0  0  0  0  0  0  0  0  0
    9.0443   20.5401   -1.9464 C   0  0  0  0  0  0  0  0  0  0  0  0
   11.3941   21.7354    0.1138 N   0  0  0  0  0  0  0  0  0  0  0  0
   12.4850   22.2139   -0.6881 C   0  0  0  0  0  0  0  0  0  0  0  0
   13.6125   21.6304   -0.7984 O   0  0  0  0  0  0  0  0  0  0  0  0
   12.0771   23.4314   -1.3186 N   0  0  0  0  0  0  0  0  0  0  0  0
   10.7431   23.6571   -0.8776 C   0  0  0  0  0  0  0  0  0  0  0  0
   10.1797   24.7753   -0.7797 O   0  0  0  0  0  0  0  0  0  0  0  0
   12.8464   24.2461   -2.2038 C   0  0  0  0  0  0  0  0  0  0  0  0
   14.0237   23.7630   -2.7298 C   0  0  0  0  0  0  0  0  0  0  0  0
   14.7684   24.5577   -3.5925 C   0  0  0  0  0  0  0  0  0  0  0  0
   14.2820   25.8152   -3.8847 C   0  0  0  0  0  0  0  0  0  0  0  0
   13.0954   26.2830   -3.3450 C   0  0  0  0  0  0  0  0  0  0  0  0
   12.3540   25.4986   -2.4894 C   0  0  0  0  0  0  0  0  0  0  0  0
   15.0871   26.6421   -4.8049 C   0  0  0  0  0  0  0  0  0  0  0  0
   15.2317   26.2252   -6.1078 C   0  0  0  0  0  0  0  0  0  0  0  0
   15.9714   26.9594   -7.0104 C   0  0  0  0  0  0  0  0  0  0  0  0
   16.5762   28.1274   -6.6079 C   0  0  0  0  0  0  0  0  0  0  0  0
   16.4223   28.5322   -5.2988 C   0  0  0  0  0  0  0  0  0  0  0  0
   15.6897   27.8100   -4.3950 C   0  0  0  0  0  0  0  0  0  0  0  0
   11.4652   20.9349    1.2753 C   0  0  0  0  0  0  0  0  0  0  0  0
   11.4716   19.5445    1.2319 C   0  0  0  0  0  0  0  0  0  0  0  0
   11.5437   18.7821    2.3729 C   0  0  0  0  0  0  0  0  0  0  0  0
   11.6128   19.3598    3.6092 C   0  0  0  0  0  0  0  0  0  0  0  0
   11.6084   20.7175    3.6873 C   0  0  0  0  0  0  0  0  0  0  0  0
   11.5356   21.4979    2.5336 C   0  0  0  0  0  0  0  0  0  0  0  0
   11.6887   18.5168    4.7906 C   0  0  0  0  0  0  0  0  0  0  0  0
   10.5109   18.1679    5.4241 O   0  0  0  0  0  0  0  0  0  0  0  0
   12.7696   18.0894    5.2649 O   0  0  0  0  0  0  0  0  0  0  0  0
   10.0541   17.2974    5.1845 H   0  0  0  0  0  0  0  0  0  0  0  0
    6.6467   20.3526   -1.7114 C   0  0  0  0  0  0  0  0  0  0  0  0
    6.8431   17.4860   -1.7052 C   0  0  0  0  0  0  0  0  0  0  0  0
    6.3494   18.1937   -0.5102 C   0  0  0  0  0  0  0  0  0  0  0  0
    6.0013   17.4498    0.5964 C   0  0  0  0  0  0  0  0  0  0  0  0
    5.5335   18.0748    1.7389 C   0  0  0  0  0  0  0  0  0  0  0  0
    5.4357   19.4410    1.7163 C   0  0  0  0  0  0  0  0  0  0  0  0
    5.7814   20.1156    0.6310 N   0  0  0  0  0  0  0  0  0  0  0  0
    6.2419   19.5933   -0.5138 C   0  0  0  0  0  0  0  0  0  0  0  0
 36 37  1  0  0  0
 37 38  2  0  0  0
 38 39  1  0  0  0
 39 40  2  0  0  0
 40 41  1  0  0  0
 41 42  2  0  0  0
 42 35  1  0  0  0
 35  1  1  0  0  0
  1  2  1  0  0  0
  2  3  1  0  0  0
  3  4  1  0  0  0
  4  5  1  0  0  0
  5  6  1  0  0  0
  4  7  1  0  0  0
  7  8  1  0  0  0
  8  9  2  0  0  0
  8 10  1  0  0  0
 10 11  1  0  0  0
 11 12  2  0  0  0
 10 13  1  0  0  0
 13 14  2  0  0  0
 14 15  1  0  0  0
 15 16  2  0  0  0
 16 17  1  0  0  0
 17 18  2  0  0  0
 16 19  1  0  0  0
 19 20  2  0  0  0
 20 21  1  0  0  0
 21 22  2  0  0  0
 22 23  1  0  0  0
 23 24  2  0  0  0
  7 25  1  0  0  0
 25 26  2  0  0  0
 26 27  1  0  0  0
 27 28  2  0  0  0
 28 29  1  0  0  0
 29 30  2  0  0  0
 28 31  1  0  0  0
 31 32  1  0  0  0
 31 33  2  0  0  0
 42 37  1  0  0  0
  6  1  1  0  0  0
 18 13  1  0  0  0
 24 19  1  0  0  0
 30 25  1  0  0  0
 11  4  1  0  0  0
 32 34  1  0  0  0
M  END
> <minimizedAffinity>
-2.75736

> <CNNscore>
0.4251692891

> <CNNaffinity>
7.3885369301

> <CNN_VS>
3.1413788795

> <CNNaffinity_variance>
0.3169056475

$$$$
[H]OC(=O)c1c([H])c([H])c(N2C(=O)N(c3c([H])c([H])c(-c4c([H])c([H])c([H])c([H])c4[H])c([H])c3[H])C(=O)C23C([H])([H])C([H])([H])N(C([H])([H])c2nc([H])c([H])c([H])c2C([H])([H])[H])C([H])([H])C3([H])[H])c([H])c1[H]


 42 47  0  0  0  0  0  0  0  0999 V2000
   13.9293   25.6494   -3.5240 N   0  0  0  0  0  0  0  0  0  0  0  0
   15.2375   25.0963   -3.0829 C   0  0  0  0  0  0  0  0  0  0  0  0
   14.9854   23.6566   -2.7750 C   0  0  0  0  0  0  0  0  0  0  0  0
   13.8720   23.4160   -1.8402 C   0  0  0  0  0  0  0  0  0  0  0  0
   12.7827   24.4551   -1.8287 C   0  0  0  0  0  0  0  0  0  0  0  0
   13.2366   25.8127   -2.2305 C   0  0  0  0  0  0  0  0  0  0  0  0
   14.3243   23.1932   -0.4559 N   0  0  0  0  0  0  0  0  0  0  0  0
   13.1848   22.5659    0.1524 C   0  0  0  0  0  0  0  0  0  0  0  0
   12.8998   22.6296    1.3929 O   0  0  0  0  0  0  0  0  0  0  0  0
   12.4547   21.8780   -0.8673 N   0  0  0  0  0  0  0  0  0  0  0  0
   13.1773   22.1094   -2.0712 C   0  0  0  0  0  0  0  0  0  0  0  0
   13.1955   21.3549   -3.0751 O   0  0  0  0  0  0  0  0  0  0  0  0
   11.2543   21.1208   -0.7095 C   0  0  0  0  0  0  0  0  0  0  0  0
   10.1306   21.4609   -1.4291 C   0  0  0  0  0  0  0  0  0  0  0  0
    8.9651   20.7206   -1.2747 C   0  0  0  0  0  0  0  0  0  0  0  0
    8.9921   19.6614   -0.3911 C   0  0  0  0  0  0  0  0  0  0  0  0
   10.1327   19.3354    0.3238 C   0  0  0  0  0  0  0  0  0  0  0  0
   11.2903   20.0666    0.1737 C   0  0  0  0  0  0  0  0  0  0  0  0
    7.7445   18.8866   -0.2437 C   0  0  0  0  0  0  0  0  0  0  0  0
    7.5358   17.8114   -1.0760 C   0  0  0  0  0  0  0  0  0  0  0  0
    6.3890   17.0521   -0.9811 C   0  0  0  0  0  0  0  0  0  0  0  0
    5.4354   17.3694   -0.0420 C   0  0  0  0  0  0  0  0  0  0  0  0
    5.6587   18.4500    0.7850 C   0  0  0  0  0  0  0  0  0  0  0  0
    6.7943   19.2102    0.6985 C   0  0  0  0  0  0  0  0  0  0  0  0
   15.5613   23.5054    0.1501 C   0  0  0  0  0  0  0  0  0  0  0  0
   16.1727   24.7478    0.0163 C   0  0  0  0  0  0  0  0  0  0  0  0
   17.3757   25.0341    0.6155 C   0  0  0  0  0  0  0  0  0  0  0  0
   18.0293   24.1049    1.3746 C   0  0  0  0  0  0  0  0  0  0  0  0
   17.4591   22.8795    1.5257 C   0  0  0  0  0  0  0  0  0  0  0  0
   16.2382   22.5817    0.9206 C   0  0  0  0  0  0  0  0  0  0  0  0
   19.2994   24.4490    1.9915 C   0  0  0  0  0  0  0  0  0  0  0  0
   19.3339   24.6373    3.3603 O   0  0  0  0  0  0  0  0  0  0  0  0
   20.3667   24.5839    1.3445 O   0  0  0  0  0  0  0  0  0  0  0  0
   19.5776   23.8634    3.9647 H   0  0  0  0  0  0  0  0  0  0  0  0
   14.1271   26.9038   -4.1941 C   0  0  0  0  0  0  0  0  0  0  0  0
   16.3516   28.5821   -4.8946 C   0  0  0  0  0  0  0  0  0  0  0  0
   15.9183   27.5119   -5.8108 C   0  0  0  0  0  0  0  0  0  0  0  0
   16.6100   27.3369   -6.9899 C   0  0  0  0  0  0  0  0  0  0  0  0
   16.2361   26.3436   -7.8779 C   0  0  0  0  0  0  0  0  0  0  0  0
   15.1672   25.5590   -7.5343 C   0  0  0  0  0  0  0  0  0  0  0  0
   14.5318   25.7626   -6.3908 N   0  0  0  0  0  0  0  0  0  0  0  0
   14.8251   26.6972   -5.4765 C   0  0  0  0  0  0  0  0  0  0  0  0
 36 37  1  0  0  0
 37 38  2  0  0  0
 38 39  1  0  0  0
 39 40  2  0  0  0
 40 41  1  0  0  0
 41 42  2  0  0  0
 42 35  1  0  0  0
 35  1  1  0  0  0
  1  2  1  0  0  0
  2  3  1  0  0  0
  3  4  1  0  0  0
  4  5  1  0  0  0
  5  6  1  0  0  0
  4  7  1  0  0  0
  7  8  1  0  0  0
  8  9  2  0  0  0
  8 10  1  0  0  0
 10 11  1  0  0  0
 11 12  2  0  0  0
 10 13  1  0  0  0
 13 14  2  0  0  0
 14 15  1  0  0  0
 15 16  2  0  0  0
 16 17  1  0  0  0
 17 18  2  0  0  0
 16 19  1  0  0  0
 19 20  2  0  0  0
 20 21  1  0  0  0
 21 22  2  0  0  0
 22 23  1  0  0  0
 23 24  2  0  0  0
  7 25  1  0  0  0
 25 26  2  0  0  0
 26 27  1  0  0  0
 27 28  2  0  0  0
 28 29  1  0  0  0
 29 30  2  0  0  0
 28 31  1  0  0  0
 31 32  1  0  0  0
 31 33  2  0  0  0
 42 37  1  0  0  0
  6  1  1  0  0  0
 18 13  1  0  0  0
 24 19  1  0  0  0
 30 25  1  0  0  0
 11  4  1  0  0  0
 32 34  1  0  0  0
M  END
> <minimizedAffinity>
2.82927

> <CNNscore>
0.4244343042

> <CNNaffinity>
7.7007775307

> <CNN_VS>
3.2684741020

> <CNNaffinity_variance>
0.3433400691

$$$$
[H]OC(=O)c1c([H])c([H])c(N2C(=O)N(c3c([H])c([H])c(-c4c([H])c([H])c([H])c([H])c4[H])c([H])c3[H])C(=O)C23C([H])([H])C([H])([H])N(C([H])([H])c2nc([H])c([H])c([H])c2C([H])([H])[H])C([H])([H])C3([H])[H])c([H])c1[H]


 42 47  0  0  0  0  0  0  0  0999 V2000
   15.9214   22.3810    0.6351 N   0  0  0  0  0  0  0  0  0  0  0  0
   14.6871   21.5942    0.3709 C   0  0  0  0  0  0  0  0  0  0  0  0
   14.3637   21.8199   -1.0698 C   0  0  0  0  0  0  0  0  0  0  0  0
   14.2829   23.2372   -1.4647 C   0  0  0  0  0  0  0  0  0  0  0  0
   15.1143   24.1968   -0.6557 C   0  0  0  0  0  0  0  0  0  0  0  0
   15.3732   23.7479    0.7378 C   0  0  0  0  0  0  0  0  0  0  0  0
   12.8990   23.7400   -1.5145 N   0  0  0  0  0  0  0  0  0  0  0  0
   13.0222   24.9275   -2.3125 C   0  0  0  0  0  0  0  0  0  0  0  0
   12.2487   25.9371   -2.2320 O   0  0  0  0  0  0  0  0  0  0  0  0
   14.1427   24.7655   -3.1868 N   0  0  0  0  0  0  0  0  0  0  0  0
   14.6692   23.4767   -2.8919 C   0  0  0  0  0  0  0  0  0  0  0  0
   15.3080   22.7433   -3.6864 O   0  0  0  0  0  0  0  0  0  0  0  0
   14.6296   25.7004   -4.1501 C   0  0  0  0  0  0  0  0  0  0  0  0
   15.2493   26.8561   -3.7302 C   0  0  0  0  0  0  0  0  0  0  0  0
   15.7238   27.7624   -4.6704 C   0  0  0  0  0  0  0  0  0  0  0  0
   15.5471   27.4533   -6.0033 C   0  0  0  0  0  0  0  0  0  0  0  0
   14.9208   26.2852   -6.4055 C   0  0  0  0  0  0  0  0  0  0  0  0
   14.4489   25.3841   -5.4768 C   0  0  0  0  0  0  0  0  0  0  0  0
   16.0605   28.4281   -6.9855 C   0  0  0  0  0  0  0  0  0  0  0  0
   15.9581   29.7691   -6.6964 C   0  0  0  0  0  0  0  0  0  0  0  0
   16.4224   30.7228   -7.5771 C   0  0  0  0  0  0  0  0  0  0  0  0
   16.9978   30.3338   -8.7644 C   0  0  0  0  0  0  0  0  0  0  0  0
   17.0933   28.9861   -9.0401 C   0  0  0  0  0  0  0  0  0  0  0  0
   16.6352   28.0314   -8.1720 C   0  0  0  0  0  0  0  0  0  0  0  0
   11.7253   23.2096   -0.9350 C   0  0  0  0  0  0  0  0  0  0  0  0
   11.1794   23.7031    0.2456 C   0  0  0  0  0  0  0  0  0  0  0  0
   10.0348   23.1755    0.7932 C   0  0  0  0  0  0  0  0  0  0  0  0
    9.3777   22.1356    0.1985 C   0  0  0  0  0  0  0  0  0  0  0  0
    9.8849   21.6292   -0.9572 C   0  0  0  0  0  0  0  0  0  0  0  0
   11.0461   22.1595   -1.5191 C   0  0  0  0  0  0  0  0  0  0  0  0
    8.1698   21.6078    0.8106 C   0  0  0  0  0  0  0  0  0  0  0  0
    7.8791   20.2676    0.6384 O   0  0  0  0  0  0  0  0  0  0  0  0
    7.3770   22.3072    1.4876 O   0  0  0  0  0  0  0  0  0  0  0  0
    8.1800   19.5981    1.3347 H   0  0  0  0  0  0  0  0  0  0  0  0
   16.5271   21.9473    1.8625 C   0  0  0  0  0  0  0  0  0  0  0  0
   17.7020   21.7479    4.4770 C   0  0  0  0  0  0  0  0  0  0  0  0
   18.2034   22.7485    3.5178 C   0  0  0  0  0  0  0  0  0  0  0  0
   19.2445   23.5646    3.9044 C   0  0  0  0  0  0  0  0  0  0  0  0
   19.7452   24.5170    3.0342 C   0  0  0  0  0  0  0  0  0  0  0  0
   19.1673   24.6066    1.7955 C   0  0  0  0  0  0  0  0  0  0  0  0
   18.1690   23.8018    1.4665 N   0  0  0  0  0  0  0  0  0  0  0  0
   17.6244   22.8558    2.2436 C   0  0  0  0  0  0  0  0  0  0  0  0
 36 37  1  0  0  0
 37 38  2  0  0  0
 38 39  1  0  0  0
 39 40  2  0  0  0
 40 41  1  0  0  0
 41 42  2  0  0  0
 42 35  1  0  0  0
 35  1  1  0  0  0
  1  2  1  0  0  0
  2  3  1  0  0  0
  3  4  1  0  0  0
  4  5  1  0  0  0
  5  6  1  0  0  0
  4  7  1  0  0  0
  7  8  1  0  0  0
  8  9  2  0  0  0
  8 10  1  0  0  0
 10 11  1  0  0  0
 11 12  2  0  0  0
 10 13  1  0  0  0
 13 14  2  0  0  0
 14 15  1  0  0  0
 15 16  2  0  0  0
 16 17  1  0  0  0
 17 18  2  0  0  0
 16 19  1  0  0  0
 19 20  2  0  0  0
 20 21  1  0  0  0
 21 22  2  0  0  0
 22 23  1  0  0  0
 23 24  2  0  0  0
  7 25  1  0  0  0
 25 26  2  0  0  0
 26 27  1  0  0  0
 27 28  2  0  0  0
 28 29  1  0  0  0
 29 30  2  0  0  0
 28 31  1  0  0  0
 31 32  1  0  0  0
 31 33  2  0  0  0
 42 37  1  0  0  0
  6  1  1  0  0  0
 18 13  1  0  0  0
 24 19  1  0  0  0
 30 25  1  0  0  0
 11  4  1  0  0  0
 32 34  1  0  0  0
M  END
> <minimizedAffinity>
37.91117

> <CNNscore>
0.3991930783

> <CNNaffinity>
7.5220961571

> <CNN_VS>
3.0027687550

> <CNNaffinity_variance>
0.4128863811

$$$$
[H]OC(=O)c1c([H])c([H])c(N2C(=O)N(c3nc([H])n([H])c(=O)c3[H])C3(C2=O)C([H])([H])C([H])([H])N(C([H])([H])c2nc([H])c([H])c([H])c2C([H])([H])[H])C([H])([H])C3([H])[H])c([H])c1[H]


 38 42  0  0  0  0  0  0  0  0999 V2000
   15.0271   23.8750   -3.4266 N   0  0  0  0  0  0  0  0  0  0  0  0
   13.9978   22.9035   -3.3606 C   0  0  0  0  0  0  0  0  0  0  0  0
   13.6602   22.7280   -1.8709 C   0  0  0  0  0  0  0  0  0  0  0  0
   12.8820   23.9566   -1.4659 C   0  0  0  0  0  0  0  0  0  0  0  0
   13.3097   25.1628   -2.2486 C   0  0  0  0  0  0  0  0  0  0  0  0
   14.7773   24.9991   -2.5875 C   0  0  0  0  0  0  0  0  0  0  0  0
   12.9481   24.1790   -0.0291 N   0  0  0  0  0  0  0  0  0  0  0  0
   12.0462   23.1911    0.4984 C   0  0  0  0  0  0  0  0  0  0  0  0
   12.1276   22.7295    1.6884 O   0  0  0  0  0  0  0  0  0  0  0  0
   11.1022   22.8516   -0.5104 N   0  0  0  0  0  0  0  0  0  0  0  0
   11.4432   23.6393   -1.6408 C   0  0  0  0  0  0  0  0  0  0  0  0
   10.6533   23.9692   -2.5658 O   0  0  0  0  0  0  0  0  0  0  0  0
   13.6972   25.1161    0.7287 C   0  0  0  0  0  0  0  0  0  0  0  0
   13.0741   26.2310    1.3099 C   0  0  0  0  0  0  0  0  0  0  0  0
   13.8260   27.1304    2.0426 C   0  0  0  0  0  0  0  0  0  0  0  0
   13.2747   28.1491    2.5782 O   0  0  0  0  0  0  0  0  0  0  0  0
   15.1458   26.9802    2.2241 N   0  0  0  0  0  0  0  0  0  0  0  0
   15.7336   25.9004    1.6572 C   0  0  0  0  0  0  0  0  0  0  0  0
   15.0212   25.0282    0.9504 N   0  0  0  0  0  0  0  0  0  0  0  0
   15.7411   27.6280    2.7627 H   0  0  0  0  0  0  0  0  0  0  0  0
   10.0418   21.9053   -0.3639 C   0  0  0  0  0  0  0  0  0  0  0  0
   10.0779   20.6267   -0.8783 C   0  0  0  0  0  0  0  0  0  0  0  0
    8.9974   19.7678   -0.6875 C   0  0  0  0  0  0  0  0  0  0  0  0
    7.8633   20.1462    0.0102 C   0  0  0  0  0  0  0  0  0  0  0  0
    7.8307   21.4253    0.5229 C   0  0  0  0  0  0  0  0  0  0  0  0
    8.9113   22.2804    0.3305 C   0  0  0  0  0  0  0  0  0  0  0  0
    6.7391   19.2445    0.2059 C   0  0  0  0  0  0  0  0  0  0  0  0
    6.1855   19.1154    1.4664 O   0  0  0  0  0  0  0  0  0  0  0  0
    6.2343   18.5658   -0.7199 O   0  0  0  0  0  0  0  0  0  0  0  0
    6.8250   18.9051    2.2429 H   0  0  0  0  0  0  0  0  0  0  0  0
   15.6173   24.1575   -4.6744 C   0  0  0  0  0  0  0  0  0  0  0  0
   15.1327   25.2652   -7.2020 C   0  0  0  0  0  0  0  0  0  0  0  0
   15.6020   26.1836   -6.1316 C   0  0  0  0  0  0  0  0  0  0  0  0
   15.7836   27.5203   -6.3612 C   0  0  0  0  0  0  0  0  0  0  0  0
   16.2235   28.3316   -5.3358 C   0  0  0  0  0  0  0  0  0  0  0  0
   16.4694   27.7655   -4.0986 C   0  0  0  0  0  0  0  0  0  0  0  0
   16.2741   26.4531   -3.9335 N   0  0  0  0  0  0  0  0  0  0  0  0
   15.8502   25.6039   -4.8765 C   0  0  0  0  0  0  0  0  0  0  0  0
 32 33  1  0  0  0
 33 34  2  0  0  0
 34 35  1  0  0  0
 35 36  2  0  0  0
 36 37  1  0  0  0
 37 38  2  0  0  0
 38 31  1  0  0  0
 31  1  1  0  0  0
  1  2  1  0  0  0
  2  3  1  0  0  0
  3  4  1  0  0  0
  4  5  1  0  0  0
  5  6  1  0  0  0
  4  7  1  0  0  0
  7  8  1  0  0  0
  8  9  2  0  0  0
  8 10  1  0  0  0
 10 11  1  0  0  0
 11 12  2  0  0  0
 10 21  1  0  0  0
 21 22  2  0  0  0
 22 23  1  0  0  0
 23 24  2  0  0  0
 24 25  1  0  0  0
 25 26  2  0  0  0
 24 27  1  0  0  0
 27 28  1  0  0  0
 27 29  2  0  0  0
  7 13  1  0  0  0
 13 14  2  0  0  0
 14 15  1  0  0  0
 15 16  2  0  0  0
 15 17  1  0  0  0
 17 18  1  0  0  0
 18 19  2  0  0  0
 38 33  1  0  0  0
  6  1  1  0  0  0
 26 21  1  0  0  0
 19 13  1  0  0  0
 11  4  1  0  0  0
 28 30  1  0  0  0
 17 20  1  0  0  0
M  END
> <minimizedAffinity>
2.13888

> <CNNscore>
0.6417320967

> <CNNaffinity>
7.8088750839

> <CNN_VS>
5.0112056732

> <CNNaffinity_variance>
0.6846637130

$$$$
[H]OC(=O)c1c([H])c([H])c(N2C(=O)N(c3nc([H])n([H])c(=O)c3[H])C3(C2=O)C([H])([H])C([H])([H])N(C([H])([H])c2nc([H])c([H])c([H])c2C([H])([H])[H])C([H])([H])C3([H])[H])c([H])c1[H]


 38 42  0  0  0  0  0  0  0  0999 V2000
   10.8316   23.0360   -1.7434 N   0  0  0  0  0  0  0  0  0  0  0  0
   11.8995   22.7374   -0.8614 C   0  0  0  0  0  0  0  0  0  0  0  0
   13.1860   23.2036   -1.5625 C   0  0  0  0  0  0  0  0  0  0  0  0
   13.1929   24.7108   -1.4751 C   0  0  0  0  0  0  0  0  0  0  0  0
   11.8008   25.2699   -1.4866 C   0  0  0  0  0  0  0  0  0  0  0  0
   10.9342   24.3392   -2.3101 C   0  0  0  0  0  0  0  0  0  0  0  0
   14.0328   25.3000   -2.5073 N   0  0  0  0  0  0  0  0  0  0  0  0
   15.3653   25.0678   -2.0192 C   0  0  0  0  0  0  0  0  0  0  0  0
   16.3919   25.0086   -2.7797 O   0  0  0  0  0  0  0  0  0  0  0  0
   15.3136   24.9257   -0.6046 N   0  0  0  0  0  0  0  0  0  0  0  0
   13.9472   25.0737   -0.2501 C   0  0  0  0  0  0  0  0  0  0  0  0
   13.5212   25.4384    0.8785 O   0  0  0  0  0  0  0  0  0  0  0  0
   13.6888   25.9525   -3.7195 C   0  0  0  0  0  0  0  0  0  0  0  0
   14.5009   25.8280   -4.8572 C   0  0  0  0  0  0  0  0  0  0  0  0
   14.1448   26.4747   -6.0259 C   0  0  0  0  0  0  0  0  0  0  0  0
   14.8719   26.3714   -7.0697 O   0  0  0  0  0  0  0  0  0  0  0  0
   13.0394   27.2275   -6.1199 N   0  0  0  0  0  0  0  0  0  0  0  0
   12.2659   27.3390   -5.0145 C   0  0  0  0  0  0  0  0  0  0  0  0
   12.5975   26.7218   -3.8845 N   0  0  0  0  0  0  0  0  0  0  0  0
   12.7398   27.7255   -6.9722 H   0  0  0  0  0  0  0  0  0  0  0  0
   16.4389   24.6869    0.2428 C   0  0  0  0  0  0  0  0  0  0  0  0
   16.3734   23.9795    1.4244 C   0  0  0  0  0  0  0  0  0  0  0  0
   17.5225   23.7934    2.1901 C   0  0  0  0  0  0  0  0  0  0  0  0
   18.7553   24.2968    1.8121 C   0  0  0  0  0  0  0  0  0  0  0  0
   18.8171   25.0037    0.6303 C   0  0  0  0  0  0  0  0  0  0  0  0
   17.6676   25.1876   -0.1319 C   0  0  0  0  0  0  0  0  0  0  0  0
   19.9509   24.0987    2.6160 C   0  0  0  0  0  0  0  0  0  0  0  0
   21.1855   24.0543    1.9948 O   0  0  0  0  0  0  0  0  0  0  0  0
   19.9254   23.9637    3.8625 O   0  0  0  0  0  0  0  0  0  0  0  0
   21.2930   23.4049    1.2056 H   0  0  0  0  0  0  0  0  0  0  0  0
    9.5310   22.6126   -1.4053 C   0  0  0  0  0  0  0  0  0  0  0  0
    9.5877   20.1590   -0.0535 C   0  0  0  0  0  0  0  0  0  0  0  0
    9.3385   21.3801    0.7564 C   0  0  0  0  0  0  0  0  0  0  0  0
    9.1525   21.3178    2.1107 C   0  0  0  0  0  0  0  0  0  0  0  0
    8.9215   22.4792    2.8183 C   0  0  0  0  0  0  0  0  0  0  0  0
    8.8845   23.6794    2.1330 C   0  0  0  0  0  0  0  0  0  0  0  0
    9.0732   23.6786    0.8093 N   0  0  0  0  0  0  0  0  0  0  0  0
    9.3021   22.5970    0.0558 C   0  0  0  0  0  0  0  0  0  0  0  0
 32 33  1  0  0  0
 33 34  2  0  0  0
 34 35  1  0  0  0
 35 36  2  0  0  0
 36 37  1  0  0  0
 37 38  2  0  0  0
 38 31  1  0  0  0
 31  1  1  0  0  0
  1  2  1  0  0  0
  2  3  1  0  0  0
  3  4  1  0  0  0
  4  5  1  0  0  0
  5  6  1  0  0  0
  4  7  1  0  0  0
  7  8  1  0  0  0
  8  9  2  0  0  0
  8 10  1  0  0  0
 10 11  1  0  0  0
 11 12  2  0  0  0
 10 21  1  0  0  0
 21 22  2  0  0  0
 22 23  1  0  0  0
 23 24  2  0  0  0
 24 25  1  0  0  0
 25 26  2  0  0  0
 24 27  1  0  0  0
 27 28  1  0  0  0
 27 29  2  0  0  0
  7 13  1  0  0  0
 13 14  2  0  0  0
 14 15  1  0  0  0
 15 16  2  0  0  0
 15 17  1  0  0  0
 17 18  1  0  0  0
 18 19  2  0  0  0
 38 33  1  0  0  0
  6  1  1  0  0  0
 26 21  1  0  0  0
 19 13  1  0  0  0
 11  4  1  0  0  0
 28 30  1  0  0  0
 17 20  1  0  0  0
M  END
> <minimizedAffinity>
18.44518

> <CNNscore>
0.5867539644

> <CNNaffinity>
7.5264000893

> <CNN_VS>
4.4161453247

> <CNNaffinity_variance>
0.8556249738

$$$$
[H]OC(=O)c1c([H])c([H])c(N2C(=O)N(c3nc([H])n([H])c(=O)c3[H])C3(C2=O)C([H])([H])C([H])([H])N(C([H])([H])c2nc([H])c([H])c([H])c2C([H])([H])[H])C([H])([H])C3([H])[H])c([H])c1[H]


 38 42  0  0  0  0  0  0  0  0999 V2000
   13.7411   25.7314   -3.5474 N   0  0  0  0  0  0  0  0  0  0  0  0
   12.6216   25.0952   -2.9563 C   0  0  0  0  0  0  0  0  0  0  0  0
   13.1816   24.0208   -2.0096 C   0  0  0  0  0  0  0  0  0  0  0  0
   13.7242   24.7568   -0.8083 C   0  0  0  0  0  0  0  0  0  0  0  0
   14.2416   26.1146   -1.1813 C   0  0  0  0  0  0  0  0  0  0  0  0
   14.7621   26.0382   -2.6021 C   0  0  0  0  0  0  0  0  0  0  0  0
   14.7179   23.9625   -0.1015 N   0  0  0  0  0  0  0  0  0  0  0  0
   13.9234   22.9931    0.6031 C   0  0  0  0  0  0  0  0  0  0  0  0
   14.3712   21.8541    0.9751 O   0  0  0  0  0  0  0  0  0  0  0  0
   12.6174   23.5250    0.7914 N   0  0  0  0  0  0  0  0  0  0  0  0
   12.6349   24.8139    0.1975 C   0  0  0  0  0  0  0  0  0  0  0  0
   11.8666   25.7667    0.4980 O   0  0  0  0  0  0  0  0  0  0  0  0
   16.1332   24.0626   -0.0734 C   0  0  0  0  0  0  0  0  0  0  0  0
   16.8254   24.1074    1.1464 C   0  0  0  0  0  0  0  0  0  0  0  0
   18.2043   24.2064    1.1472 C   0  0  0  0  0  0  0  0  0  0  0  0
   18.8491   24.2478    2.2477 O   0  0  0  0  0  0  0  0  0  0  0  0
   18.9191   24.2621    0.0144 N   0  0  0  0  0  0  0  0  0  0  0  0
   18.2381   24.2183   -1.1547 C   0  0  0  0  0  0  0  0  0  0  0  0
   16.9119   24.1231   -1.1687 N   0  0  0  0  0  0  0  0  0  0  0  0
   19.9472   24.3363   -0.0272 H   0  0  0  0  0  0  0  0  0  0  0  0
   11.5420   22.8578    1.4545 C   0  0  0  0  0  0  0  0  0  0  0  0
   11.7174   21.8467    2.3752 C   0  0  0  0  0  0  0  0  0  0  0  0
   10.6101   21.2505    2.9752 C   0  0  0  0  0  0  0  0  0  0  0  0
    9.3124   21.6342    2.6841 C   0  0  0  0  0  0  0  0  0  0  0  0
    9.1408   22.6453    1.7631 C   0  0  0  0  0  0  0  0  0  0  0  0
   10.2486   23.2384    1.1658 C   0  0  0  0  0  0  0  0  0  0  0  0
    8.1611   21.0078    3.3144 C   0  0  0  0  0  0  0  0  0  0  0  0
    7.1826   20.4360    2.5222 O   0  0  0  0  0  0  0  0  0  0  0  0
    8.0027   20.9558    4.5573 O   0  0  0  0  0  0  0  0  0  0  0  0
    6.7846   21.0154    1.7726 H   0  0  0  0  0  0  0  0  0  0  0  0
   13.5244   26.6939   -4.5533 C   0  0  0  0  0  0  0  0  0  0  0  0
   15.6697   28.4894   -4.7097 C   0  0  0  0  0  0  0  0  0  0  0  0
   15.5711   27.4483   -5.7659 C   0  0  0  0  0  0  0  0  0  0  0  0
   16.4931   27.3578   -6.7731 C   0  0  0  0  0  0  0  0  0  0  0  0
   16.3567   26.3756   -7.7320 C   0  0  0  0  0  0  0  0  0  0  0  0
   15.2851   25.5062   -7.6459 C   0  0  0  0  0  0  0  0  0  0  0  0
   14.4159   25.6431   -6.6392 N   0  0  0  0  0  0  0  0  0  0  0  0
   14.4810   26.5674   -5.6741 C   0  0  0  0  0  0  0  0  0  0  0  0
 32 33  1  0  0  0
 33 34  2  0  0  0
 34 35  1  0  0  0
 35 36  2  0  0  0
 36 37  1  0  0  0
 37 38  2  0  0  0
 38 31  1  0  0  0
 31  1  1  0  0  0
  1  2  1  0  0  0
  2  3  1  0  0  0
  3  4  1  0  0  0
  4  5  1  0  0  0
  5  6  1  0  0  0
  4  7  1  0  0  0
  7  8  1  0  0  0
  8  9  2  0  0  0
  8 10  1  0  0  0
 10 11  1  0  0  0
 11 12  2  0  0  0
 10 21  1  0  0  0
 21 22  2  0  0  0
 22 23  1  0  0  0
 23 24  2  0  0  0
 24 25  1  0  0  0
 25 26  2  0  0  0
 24 27  1  0  0  0
 27 28  1  0  0  0
 27 29  2  0  0  0
  7 13  1  0  0  0
 13 14  2  0  0  0
 14 15  1  0  0  0
 15 16  2  0  0  0
 15 17  1  0  0  0
 17 18  1  0  0  0
 18 19  2  0  0  0
 38 33  1  0  0  0
  6  1  1  0  0  0
 26 21  1  0  0  0
 19 13  1  0  0  0
 11  4  1  0  0  0
 28 30  1  0  0  0
 17 20  1  0  0  0
M  END
> <minimizedAffinity>
3.63005

> <CNNscore>
0.5866167545

> <CNNaffinity>
7.6996955872

> <CNN_VS>
4.5167703629

> <CNNaffinity_variance>
0.9042246938

$$$$
[H]OC(=O)c1c([H])c([H])c(N2C(=O)N(c3nc([H])n([H])c(=O)c3[H])C3(C2=O)C([H])([H])C([H])([H])N(C([H])([H])c2nc([H])c([H])c([H])c2C([H])([H])[H])C([H])([H])C3([H])[H])c([H])c1[H]


 38 42  0  0  0  0  0  0  0  0999 V2000
   12.8516   21.1714    1.1383 N   0  0  0  0  0  0  0  0  0  0  0  0
   13.6639   21.6439    0.0780 C   0  0  0  0  0  0  0  0  0  0  0  0
   12.7466   22.4711   -0.8375 C   0  0  0  0  0  0  0  0  0  0  0  0
   12.4863   23.7700   -0.1133 C   0  0  0  0  0  0  0  0  0  0  0  0
   12.4905   23.5817    1.3750 C   0  0  0  0  0  0  0  0  0  0  0  0
   11.9948   22.1800    1.6664 C   0  0  0  0  0  0  0  0  0  0  0  0
   11.2662   24.4075   -0.5855 N   0  0  0  0  0  0  0  0  0  0  0  0
   11.6549   24.9628   -1.8536 C   0  0  0  0  0  0  0  0  0  0  0  0
   10.8266   25.2084   -2.7968 O   0  0  0  0  0  0  0  0  0  0  0  0
   13.0622   25.1712   -1.8472 N   0  0  0  0  0  0  0  0  0  0  0  0
   13.5119   24.7389   -0.5723 C   0  0  0  0  0  0  0  0  0  0  0  0
   14.5651   25.1274    0.0007 O   0  0  0  0  0  0  0  0  0  0  0  0
    9.9789   24.4940    0.0054 C   0  0  0  0  0  0  0  0  0  0  0  0
    9.8304   24.8602    1.3518 C   0  0  0  0  0  0  0  0  0  0  0  0
    8.5656   24.9361    1.9046 C   0  0  0  0  0  0  0  0  0  0  0  0
    8.4129   25.2682    3.1274 O   0  0  0  0  0  0  0  0  0  0  0  0
    7.4578   24.6704    1.1978 N   0  0  0  0  0  0  0  0  0  0  0  0
    7.6163   24.3180   -0.0996 C   0  0  0  0  0  0  0  0  0  0  0  0
    8.8274   24.2416   -0.6429 N   0  0  0  0  0  0  0  0  0  0  0  0
    6.4979   24.7153    1.5731 H   0  0  0  0  0  0  0  0  0  0  0  0
   13.8215   25.7128   -2.9295 C   0  0  0  0  0  0  0  0  0  0  0  0
   14.5198   26.8995   -2.8589 C   0  0  0  0  0  0  0  0  0  0  0  0
   15.2357   27.3539   -3.9646 C   0  0  0  0  0  0  0  0  0  0  0  0
   15.2801   26.6543   -5.1581 C   0  0  0  0  0  0  0  0  0  0  0  0
   14.5807   25.4683   -5.2252 C   0  0  0  0  0  0  0  0  0  0  0  0
   13.8669   25.0175   -4.1192 C   0  0  0  0  0  0  0  0  0  0  0  0
   16.0296   27.1342   -6.3083 C   0  0  0  0  0  0  0  0  0  0  0  0
   16.0933   28.4931   -6.5565 O   0  0  0  0  0  0  0  0  0  0  0  0
   16.6322   26.3724   -7.1015 O   0  0  0  0  0  0  0  0  0  0  0  0
   15.2046   29.0078   -6.5928 H   0  0  0  0  0  0  0  0  0  0  0  0
   13.4092   20.2831    2.0792 C   0  0  0  0  0  0  0  0  0  0  0  0
   11.4703   18.2992    1.6850 C   0  0  0  0  0  0  0  0  0  0  0  0
   11.5044   18.9678    3.0121 C   0  0  0  0  0  0  0  0  0  0  0  0
   10.6327   18.6268    4.0103 C   0  0  0  0  0  0  0  0  0  0  0  0
   10.7022   19.2785    5.2242 C   0  0  0  0  0  0  0  0  0  0  0  0
   11.6571   20.2634    5.3966 C   0  0  0  0  0  0  0  0  0  0  0  0
   12.4820   20.5537    4.3851 N   0  0  0  0  0  0  0  0  0  0  0  0
   12.4763   19.9674    3.1825 C   0  0  0  0  0  0  0  0  0  0  0  0
 32 33  1  0  0  0
 33 34  2  0  0  0
 34 35  1  0  0  0
 35 36  2  0  0  0
 36 37  1  0  0  0
 37 38  2  0  0  0
 38 31  1  0  0  0
 31  1  1  0  0  0
  1  2  1  0  0  0
  2  3  1  0  0  0
  3  4  1  0  0  0
  4  5  1  0  0  0
  5  6  1  0  0  0
  4  7  1  0  0  0
  7  8  1  0  0  0
  8  9  2  0  0  0
  8 10  1  0  0  0
 10 11  1  0  0  0
 11 12  2  0  0  0
 10 21  1  0  0  0
 21 22  2  0  0  0
 22 23  1  0  0  0
 23 24  2  0  0  0
 24 25  1  0  0  0
 25 26  2  0  0  0
 24 27  1  0  0  0
 27 28  1  0  0  0
 27 29  2  0  0  0
  7 13  1  0  0  0
 13 14  2  0  0  0
 14 15  1  0  0  0
 15 16  2  0  0  0
 15 17  1  0  0  0
 17 18  1  0  0  0
 18 19  2  0  0  0
 38 33  1  0  0  0
  6  1  1  0  0  0
 26 21  1  0  0  0
 19 13  1  0  0  0
 11  4  1  0  0  0
 28 30  1  0  0  0
 17 20  1  0  0  0
M  END
> <minimizedAffinity>
11.12391

> <CNNscore>
0.5553169847

> <CNNaffinity>
7.1434717178

> <CNN_VS>
3.9668912888

> <CNNaffinity_variance>
0.9452098012

$$$$
[H]OC(=O)c1c([H])c([H])c(N2C(=O)N(c3nc([H])n([H])c(=O)c3[H])C3(C2=O)C([H])([H])C([H])([H])N(C([H])([H])c2nc([H])c([H])c([H])c2C([H])([H])[H])C([H])([H])C3([H])[H])c([H])c1[H]


 38 42  0  0  0  0  0  0  0  0999 V2000
   14.5456   23.9679   -2.6916 N   0  0  0  0  0  0  0  0  0  0  0  0
   13.6335   22.8837   -2.6868 C   0  0  0  0  0  0  0  0  0  0  0  0
   13.0671   22.7980   -1.2600 C   0  0  0  0  0  0  0  0  0  0  0  0
   12.1004   23.9490   -1.1187 C   0  0  0  0  0  0  0  0  0  0  0  0
   12.5205   25.1264   -1.9481 C   0  0  0  0  0  0  0  0  0  0  0  0
   14.0334   25.1205   -2.0288 C   0  0  0  0  0  0  0  0  0  0  0  0
   11.8946   24.3029    0.2778 N   0  0  0  0  0  0  0  0  0  0  0  0
   11.0300   23.2589    0.7576 C   0  0  0  0  0  0  0  0  0  0  0  0
   10.9566   22.9173    1.9880 O   0  0  0  0  0  0  0  0  0  0  0  0
   10.3160   22.7157   -0.3466 N   0  0  0  0  0  0  0  0  0  0  0  0
   10.7567   23.4382   -1.4860 C   0  0  0  0  0  0  0  0  0  0  0  0
   10.1056   23.5833   -2.5553 O   0  0  0  0  0  0  0  0  0  0  0  0
   12.3949   25.3900    1.0404 C   0  0  0  0  0  0  0  0  0  0  0  0
   13.7699   25.6680    1.0775 C   0  0  0  0  0  0  0  0  0  0  0  0
   14.2326   26.7320    1.8290 C   0  0  0  0  0  0  0  0  0  0  0  0
   15.4798   26.9989    1.8730 O   0  0  0  0  0  0  0  0  0  0  0  0
   13.4107   27.5217    2.5349 N   0  0  0  0  0  0  0  0  0  0  0  0
   12.0870   27.2413    2.4902 C   0  0  0  0  0  0  0  0  0  0  0  0
   11.6295   26.2209    1.7710 N   0  0  0  0  0  0  0  0  0  0  0  0
   13.7162   28.3236    3.1072 H   0  0  0  0  0  0  0  0  0  0  0  0
    9.3569   21.6594   -0.2705 C   0  0  0  0  0  0  0  0  0  0  0  0
    8.1990   21.7265    0.4748 C   0  0  0  0  0  0  0  0  0  0  0  0
    7.3174   20.6476    0.4915 C   0  0  0  0  0  0  0  0  0  0  0  0
    7.5545   19.4848   -0.2210 C   0  0  0  0  0  0  0  0  0  0  0  0
    8.7132   19.4212   -0.9649 C   0  0  0  0  0  0  0  0  0  0  0  0
    9.5914   20.5004   -0.9794 C   0  0  0  0  0  0  0  0  0  0  0  0
    6.6298   18.3625   -0.1993 C   0  0  0  0  0  0  0  0  0  0  0  0
    6.1909   17.8229   -1.3944 O   0  0  0  0  0  0  0  0  0  0  0  0
    6.2005   17.8471    0.8603 O   0  0  0  0  0  0  0  0  0  0  0  0
    5.7962   18.4709   -2.0875 H   0  0  0  0  0  0  0  0  0  0  0  0
   15.3061   24.2125   -3.8522 C   0  0  0  0  0  0  0  0  0  0  0  0
   17.1061   24.8984   -1.8175 C   0  0  0  0  0  0  0  0  0  0  0  0
   16.8257   25.9237   -2.8565 C   0  0  0  0  0  0  0  0  0  0  0  0
   17.4262   27.1530   -2.8325 C   0  0  0  0  0  0  0  0  0  0  0  0
   17.1311   28.0720   -3.8181 C   0  0  0  0  0  0  0  0  0  0  0  0
   16.2312   27.7207   -4.8072 C   0  0  0  0  0  0  0  0  0  0  0  0
   15.6757   26.5047   -4.7790 N   0  0  0  0  0  0  0  0  0  0  0  0
   15.9111   25.5620   -3.8592 C   0  0  0  0  0  0  0  0  0  0  0  0
 32 33  1  0  0  0
 33 34  2  0  0  0
 34 35  1  0  0  0
 35 36  2  0  0  0
 36 37  1  0  0  0
 37 38  2  0  0  0
 38 31  1  0  0  0
 31  1  1  0  0  0
  1  2  1  0  0  0
  2  3  1  0  0  0
  3  4  1  0  0  0
  4  5  1  0  0  0
  5  6  1  0  0  0
  4  7  1  0  0  0
  7  8  1  0  0  0
  8  9  2  0  0  0
  8 10  1  0  0  0
 10 11  1  0  0  0
 11 12  2  0  0  0
 10 21  1  0  0  0
 21 22  2  0  0  0
 22 23  1  0  0  0
 23 24  2  0  0  0
 24 25  1  0  0  0
 25 26  2  0  0  0
 24 27  1  0  0  0
 27 28  1  0  0  0
 27 29  2  0  0  0
  7 13  1  0  0  0
 13 14  2  0  0  0
 14 15  1  0  0  0
 15 16  2  0  0  0
 15 17  1  0  0  0
 17 18  1  0  0  0
 18 19  2  0  0  0
 38 33  1  0  0  0
  6  1  1  0  0  0
 26 21  1  0  0  0
 19 13  1  0  0  0
 11  4  1  0  0  0
 28 30  1  0  0  0
 17 20  1  0  0  0
M  END
> <minimizedAffinity>
5.80082

> <CNNscore>
0.5386721492

> <CNNaffinity>
7.5889310837

> <CNN_VS>
4.0879459381

> <CNNaffinity_variance>
1.0369445086

$$$$
[H]OC(=O)c1c([H])c([H])c(N2C(=O)N(c3nc([H])n([H])c(=O)c3[H])C3(C2=O)C([H])([H])C([H])([H])N(C([H])([H])c2nc([H])c([H])c([H])c2C([H])([H])[H])C([H])([H])C3([H])[H])c([H])c1[H]


 38 42  0  0  0  0  0  0  0  0999 V2000
   10.2332   23.8458   -0.7329 N   0  0  0  0  0  0  0  0  0  0  0  0
   11.2050   22.9478   -0.2263 C   0  0  0  0  0  0  0  0  0  0  0  0
   12.3637   22.9453   -1.2369 C   0  0  0  0  0  0  0  0  0  0  0  0
   13.0950   24.2521   -1.0454 C   0  0  0  0  0  0  0  0  0  0  0  0
   12.1651   25.3450   -0.6081 C   0  0  0  0  0  0  0  0  0  0  0  0
   10.8028   25.0623   -1.2079 C   0  0  0  0  0  0  0  0  0  0  0  0
   13.8549   24.6157   -2.2321 N   0  0  0  0  0  0  0  0  0  0  0  0
   14.9947   23.7412   -2.1735 C   0  0  0  0  0  0  0  0  0  0  0  0
   15.6720   23.3995   -3.2033 O   0  0  0  0  0  0  0  0  0  0  0  0
   15.2040   23.3560   -0.8200 N   0  0  0  0  0  0  0  0  0  0  0  0
   14.1863   24.0030   -0.0715 C   0  0  0  0  0  0  0  0  0  0  0  0
   14.2483   24.2821    1.1560 O   0  0  0  0  0  0  0  0  0  0  0  0
   13.5924   25.5801   -3.2394 C   0  0  0  0  0  0  0  0  0  0  0  0
   12.5574   26.5151   -3.0857 C   0  0  0  0  0  0  0  0  0  0  0  0
   12.3208   27.4437   -4.0820 C   0  0  0  0  0  0  0  0  0  0  0  0
   11.3839   28.3013   -3.9578 O   0  0  0  0  0  0  0  0  0  0  0  0
   13.0497   27.4895   -5.2064 N   0  0  0  0  0  0  0  0  0  0  0  0
   14.0443   26.5812   -5.3413 C   0  0  0  0  0  0  0  0  0  0  0  0
   14.2819   25.6831   -4.3900 N   0  0  0  0  0  0  0  0  0  0  0  0
   12.9047   28.1654   -5.9720 H   0  0  0  0  0  0  0  0  0  0  0  0
   16.2450   22.4930   -0.3587 C   0  0  0  0  0  0  0  0  0  0  0  0
   16.0530   21.1691   -0.0255 C   0  0  0  0  0  0  0  0  0  0  0  0
   17.1268   20.3985    0.4160 C   0  0  0  0  0  0  0  0  0  0  0  0
   18.4067   20.9112    0.5387 C   0  0  0  0  0  0  0  0  0  0  0  0
   18.5950   22.2352    0.2047 C   0  0  0  0  0  0  0  0  0  0  0  0
   17.5205   23.0018   -0.2357 C   0  0  0  0  0  0  0  0  0  0  0  0
   19.5231   20.1012    0.9999 C   0  0  0  0  0  0  0  0  0  0  0  0
   20.5816   19.8565    0.1445 O   0  0  0  0  0  0  0  0  0  0  0  0
   19.5814   19.6035    2.1495 O   0  0  0  0  0  0  0  0  0  0  0  0
   20.3586   19.4845   -0.7872 H   0  0  0  0  0  0  0  0  0  0  0  0
    9.0004   23.9645   -0.0611 C   0  0  0  0  0  0  0  0  0  0  0  0
    9.6650   25.2219    2.3530 C   0  0  0  0  0  0  0  0  0  0  0  0
    9.2754   23.7888    2.4133 C   0  0  0  0  0  0  0  0  0  0  0  0
    9.2314   23.1060    3.5984 C   0  0  0  0  0  0  0  0  0  0  0  0
    8.8663   21.7757    3.6022 C   0  0  0  0  0  0  0  0  0  0  0  0
    8.5538   21.1683    2.4001 C   0  0  0  0  0  0  0  0  0  0  0  0
    8.6145   21.8861    1.2736 N   0  0  0  0  0  0  0  0  0  0  0  0
    8.9585   23.1763    1.1897 C   0  0  0  0  0  0  0  0  0  0  0  0
 32 33  1  0  0  0
 33 34  2  0  0  0
 34 35  1  0  0  0
 35 36  2  0  0  0
 36 37  1  0  0  0
 37 38  2  0  0  0
 38 31  1  0  0  0
 31  1  1  0  0  0
  1  2  1  0  0  0
  2  3  1  0  0  0
  3  4  1  0  0  0
  4  5  1  0  0  0
  5  6  1  0  0  0
  4  7  1  0  0  0
  7  8  1  0  0  0
  8  9  2  0  0  0
  8 10  1  0  0  0
 10 11  1  0  0  0
 11 12  2  0  0  0
 10 21  1  0  0  0
 21 22  2  0  0  0
 22 23  1  0  0  0
 23 24  2  0  0  0
 24 25  1  0  0  0
 25 26  2  0  0  0
 24 27  1  0  0  0
 27 28  1  0  0  0
 27 29  2  0  0  0
  7 13  1  0  0  0
 13 14  2  0  0  0
 14 15  1  0  0  0
 15 16  2  0  0  0
 15 17  1  0  0  0
 17 18  1  0  0  0
 18 19  2  0  0  0
 38 33  1  0  0  0
  6  1  1  0  0  0
 26 21  1  0  0  0
 19 13  1  0  0  0
 11  4  1  0  0  0
 28 30  1  0  0  0
 17 20  1  0  0  0
M  END
> <minimizedAffinity>
32.56833

> <CNNscore>
0.5384380221

> <CNNaffinity>
7.5245223045

> <CNN_VS>
4.0514888763

> <CNNaffinity_variance>
0.6399744749

$$$$
[H]OC(=O)c1c([H])c([H])c(N2C(=O)N(c3nc([H])n([H])c(=O)c3[H])C3(C2=O)C([H])([H])C([H])([H])N(C([H])([H])c2nc([H])c([H])c([H])c2C([H])([H])[H])C([H])([H])C3([H])[H])c([H])c1[H]


 38 42  0  0  0  0  0  0  0  0999 V2000
   12.9153   25.3154   -2.4195 N   0  0  0  0  0  0  0  0  0  0  0  0
   11.6988   24.7614   -1.9497 C   0  0  0  0  0  0  0  0  0  0  0  0
   12.0755   23.5141   -1.1335 C   0  0  0  0  0  0  0  0  0  0  0  0
   12.6495   24.0181    0.1687 C   0  0  0  0  0  0  0  0  0  0  0  0
   13.3493   25.3330   -0.0098 C   0  0  0  0  0  0  0  0  0  0  0  0
   13.9216   25.3670   -1.4122 C   0  0  0  0  0  0  0  0  0  0  0  0
   13.5022   23.0197    0.7964 N   0  0  0  0  0  0  0  0  0  0  0  0
   12.5609   22.0816    1.3455 C   0  0  0  0  0  0  0  0  0  0  0  0
   12.8450   20.8568    1.5803 O   0  0  0  0  0  0  0  0  0  0  0  0
   11.3243   22.7511    1.5615 N   0  0  0  0  0  0  0  0  0  0  0  0
   11.5303   24.0906    1.1401 C   0  0  0  0  0  0  0  0  0  0  0  0
   10.8740   25.0903    1.5380 O   0  0  0  0  0  0  0  0  0  0  0  0
   14.9160   22.9308    0.8798 C   0  0  0  0  0  0  0  0  0  0  0  0
   15.7249   24.0290    0.5500 C   0  0  0  0  0  0  0  0  0  0  0  0
   17.0999   23.9168    0.6382 C   0  0  0  0  0  0  0  0  0  0  0  0
   17.8499   24.9061    0.3425 O   0  0  0  0  0  0  0  0  0  0  0  0
   17.7026   22.7857    1.0316 N   0  0  0  0  0  0  0  0  0  0  0  0
   16.9098   21.7345    1.3461 C   0  0  0  0  0  0  0  0  0  0  0  0
   15.5861   21.8298    1.2655 N   0  0  0  0  0  0  0  0  0  0  0  0
   18.7237   22.6621    1.1099 H   0  0  0  0  0  0  0  0  0  0  0  0
   10.1443   22.1520    2.1000 C   0  0  0  0  0  0  0  0  0  0  0  0
    8.9962   21.9274    1.3704 C   0  0  0  0  0  0  0  0  0  0  0  0
    7.8896   21.3361    1.9765 C   0  0  0  0  0  0  0  0  0  0  0  0
    7.8882   20.9547    3.3071 C   0  0  0  0  0  0  0  0  0  0  0  0
    9.0376   21.1809    4.0336 C   0  0  0  0  0  0  0  0  0  0  0  0
   10.1408   21.7715    3.4252 C   0  0  0  0  0  0  0  0  0  0  0  0
    6.7297   20.3377    3.9334 C   0  0  0  0  0  0  0  0  0  0  0  0
    6.1868   19.1944    3.3763 O   0  0  0  0  0  0  0  0  0  0  0  0
    6.1857   20.7915    4.9681 O   0  0  0  0  0  0  0  0  0  0  0  0
    5.9570   19.2212    2.3751 H   0  0  0  0  0  0  0  0  0  0  0  0
   12.8674   26.4155   -3.2986 C   0  0  0  0  0  0  0  0  0  0  0  0
   14.5765   24.1965   -3.3736 C   0  0  0  0  0  0  0  0  0  0  0  0
   14.6661   25.1667   -4.4961 C   0  0  0  0  0  0  0  0  0  0  0  0
   15.5397   24.9855   -5.5336 C   0  0  0  0  0  0  0  0  0  0  0  0
   15.5877   25.9158   -6.5510 C   0  0  0  0  0  0  0  0  0  0  0  0
   14.7458   27.0110   -6.4911 C   0  0  0  0  0  0  0  0  0  0  0  0
   13.9131   27.1351   -5.4524 N   0  0  0  0  0  0  0  0  0  0  0  0
   13.8088   26.2774   -4.4309 C   0  0  0  0  0  0  0  0  0  0  0  0
 32 33  1  0  0  0
 33 34  2  0  0  0
 34 35  1  0  0  0
 35 36  2  0  0  0
 36 37  1  0  0  0
 37 38  2  0  0  0
 38 31  1  0  0  0
 31  1  1  0  0  0
  1  2  1  0  0  0
  2  3  1  0  0  0
  3  4  1  0  0  0
  4  5  1  0  0  0
  5  6  1  0  0  0
  4  7  1  0  0  0
  7  8  1  0  0  0
  8  9  2  0  0  0
  8 10  1  0  0  0
 10 11  1  0  0  0
 11 12  2  0  0  0
 10 21  1  0  0  0
 21 22  2  0  0  0
 22 23  1  0  0  0
 23 24  2  0  0  0
 24 25  1  0  0  0
 25 26  2  0  0  0
 24 27  1  0  0  0
 27 28  1  0  0  0
 27 29  2  0  0  0
  7 13  1  0  0  0
 13 14  2  0  0  0
 14 15  1  0  0  0
 15 16  2  0  0  0
 15 17  1  0  0  0
 17 18  1  0  0  0
 18 19  2  0  0  0
 38 33  1  0  0  0
  6  1  1  0  0  0
 26 21  1  0  0  0
 19 13  1  0  0  0
 11  4  1  0  0  0
 28 30  1  0  0  0
 17 20  1  0  0  0
M  END
> <minimizedAffinity>
-4.21260

> <CNNscore>
0.5302819610

> <CNNaffinity>
7.6671242714

> <CNN_VS>
4.0657377243

> <CNNaffinity_variance>
0.1467125118

$$$$
[H]OC(=O)c1c([H])c([H])c(N2C(=O)N(c3nc([H])n([H])c(=O)c3[H])C3(C2=O)C([H])([H])C([H])([H])N(C([H])([H])c2nc([H])c([H])c([H])c2C([H])([H])[H])C([H])([H])C3([H])[H])c([H])c1[H]


 38 42  0  0  0  0  0  0  0  0999 V2000
   12.1337   25.1510   -1.0803 N   0  0  0  0  0  0  0  0  0  0  0  0
   12.9502   24.5260   -2.0551 C   0  0  0  0  0  0  0  0  0  0  0  0
   12.6937   25.2672   -3.3775 C   0  0  0  0  0  0  0  0  0  0  0  0
   13.4011   26.5959   -3.2618 C   0  0  0  0  0  0  0  0  0  0  0  0
   13.4300   27.0831   -1.8433 C   0  0  0  0  0  0  0  0  0  0  0  0
   12.1819   26.5732   -1.1523 C   0  0  0  0  0  0  0  0  0  0  0  0
   12.8361   27.5807   -4.1723 N   0  0  0  0  0  0  0  0  0  0  0  0
   13.3633   27.1870   -5.4508 C   0  0  0  0  0  0  0  0  0  0  0  0
   12.7983   27.4728   -6.5621 O   0  0  0  0  0  0  0  0  0  0  0  0
   14.5677   26.4591   -5.2421 N   0  0  0  0  0  0  0  0  0  0  0  0
   14.7577   26.4197   -3.8361 C   0  0  0  0  0  0  0  0  0  0  0  0
   15.8643   26.2654   -3.2530 O   0  0  0  0  0  0  0  0  0  0  0  0
   11.9712   28.6786   -3.9272 C   0  0  0  0  0  0  0  0  0  0  0  0
   10.7038   28.7416   -4.5262 C   0  0  0  0  0  0  0  0  0  0  0  0
    9.8802   29.8224   -4.2726 C   0  0  0  0  0  0  0  0  0  0  0  0
    8.7244   29.8948   -4.8089 O   0  0  0  0  0  0  0  0  0  0  0  0
   10.2467   30.8287   -3.4660 N   0  0  0  0  0  0  0  0  0  0  0  0
   11.4721   30.7549   -2.8955 C   0  0  0  0  0  0  0  0  0  0  0  0
   12.2735   29.7205   -3.1314 N   0  0  0  0  0  0  0  0  0  0  0  0
    9.6622   31.6514   -3.2521 H   0  0  0  0  0  0  0  0  0  0  0  0
   15.3861   25.9039   -6.2734 C   0  0  0  0  0  0  0  0  0  0  0  0
   15.7538   24.5764   -6.3300 C   0  0  0  0  0  0  0  0  0  0  0  0
   16.5555   24.1191   -7.3739 C   0  0  0  0  0  0  0  0  0  0  0  0
   17.0108   24.9537   -8.3800 C   0  0  0  0  0  0  0  0  0  0  0  0
   16.6413   26.2804   -8.3200 C   0  0  0  0  0  0  0  0  0  0  0  0
   15.8407   26.7337   -7.2762 C   0  0  0  0  0  0  0  0  0  0  0  0
   17.8471   24.4697   -9.4669 C   0  0  0  0  0  0  0  0  0  0  0  0
   18.5648   25.3764  -10.2251 O   0  0  0  0  0  0  0  0  0  0  0  0
   17.9565   23.2554   -9.7604 O   0  0  0  0  0  0  0  0  0  0  0  0
   18.0475   26.1676  -10.6284 H   0  0  0  0  0  0  0  0  0  0  0  0
   12.0801   24.6019    0.2161 C   0  0  0  0  0  0  0  0  0  0  0  0
   11.0042   22.0159    0.1416 C   0  0  0  0  0  0  0  0  0  0  0  0
   12.4729   22.1400    0.3333 C   0  0  0  0  0  0  0  0  0  0  0  0
   13.2760   21.0393    0.4597 C   0  0  0  0  0  0  0  0  0  0  0  0
   14.6336   21.2064    0.6387 C   0  0  0  0  0  0  0  0  0  0  0  0
   15.1452   22.4900    0.6854 C   0  0  0  0  0  0  0  0  0  0  0  0
   14.3117   23.5275    0.5561 N   0  0  0  0  0  0  0  0  0  0  0  0
   12.9880   23.4459    0.3798 C   0  0  0  0  0  0  0  0  0  0  0  0
 32 33  1  0  0  0
 33 34  2  0  0  0
 34 35  1  0  0  0
 35 36  2  0  0  0
 36 37  1  0  0  0
 37 38  2  0  0  0
 38 31  1  0  0  0
 31  1  1  0  0  0
  1  2  1  0  0  0
  2  3  1  0  0  0
  3  4  1  0  0  0
  4  5  1  0  0  0
  5  6  1  0  0  0
  4  7  1  0  0  0
  7  8  1  0  0  0
  8  9  2  0  0  0
  8 10  1  0  0  0
 10 11  1  0  0  0
 11 12  2  0  0  0
 10 21  1  0  0  0
 21 22  2  0  0  0
 22 23  1  0  0  0
 23 24  2  0  0  0
 24 25  1  0  0  0
 25 26  2  0  0  0
 24 27  1  0  0  0
 27 28  1  0  0  0
 27 29  2  0  0  0
  7 13  1  0  0  0
 13 14  2  0  0  0
 14 15  1  0  0  0
 15 16  2  0  0  0
 15 17  1  0  0  0
 17 18  1  0  0  0
 18 19  2  0  0  0
 38 33  1  0  0  0
  6  1  1  0  0  0
 26 21  1  0  0  0
 19 13  1  0  0  0
 11  4  1  0  0  0
 28 30  1  0  0  0
 17 20  1  0  0  0
M  END
> <minimizedAffinity>
31.00339

> <CNNscore>
0.5113874674

> <CNNaffinity>
7.2992730141

> <CNN_VS>
3.7327568531

> <CNNaffinity_variance>
0.8901181221

$$$$
[H]OC(=O)c1c([H])c([H])c(N2C(=O)N(c3nc([H])n([H])c(=O)c3[H])C3(C2=O)C([H])([H])C([H])([H])N(C([H])([H])c2nc([H])c([H])c([H])c2C([H])([H])[H])C([H])([H])C3([H])[H])c([H])c1[H]


 38 42  0  0  0  0  0  0  0  0999 V2000
   15.3832   23.7409   -3.8809 N   0  0  0  0  0  0  0  0  0  0  0  0
   14.0677   23.2148   -3.8598 C   0  0  0  0  0  0  0  0  0  0  0  0
   13.9654   22.3499   -2.5927 C   0  0  0  0  0  0  0  0  0  0  0  0
   13.8781   23.3101   -1.4310 C   0  0  0  0  0  0  0  0  0  0  0  0
   14.6314   24.5779   -1.7061 C   0  0  0  0  0  0  0  0  0  0  0  0
   15.7976   24.2372   -2.6113 C   0  0  0  0  0  0  0  0  0  0  0  0
   14.2941   22.6798   -0.1870 N   0  0  0  0  0  0  0  0  0  0  0  0
   13.1685   21.8530    0.1551 C   0  0  0  0  0  0  0  0  0  0  0  0
   13.2593   20.8128    0.8939 O   0  0  0  0  0  0  0  0  0  0  0  0
   12.0037   22.3934   -0.4574 N   0  0  0  0  0  0  0  0  0  0  0  0
   12.4372   23.5445   -1.1657 C   0  0  0  0  0  0  0  0  0  0  0  0
   11.7114   24.5268   -1.4766 O   0  0  0  0  0  0  0  0  0  0  0  0
   15.4971   22.8025    0.5555 C   0  0  0  0  0  0  0  0  0  0  0  0
   16.2419   23.9914    0.5240 C   0  0  0  0  0  0  0  0  0  0  0  0
   17.4113   24.0857    1.2551 C   0  0  0  0  0  0  0  0  0  0  0  0
   18.1001   25.1599    1.2379 O   0  0  0  0  0  0  0  0  0  0  0  0
   17.8712   23.0736    2.0045 N   0  0  0  0  0  0  0  0  0  0  0  0
   17.1428   21.9327    2.0250 C   0  0  0  0  0  0  0  0  0  0  0  0
   16.0162   21.8297    1.3263 N   0  0  0  0  0  0  0  0  0  0  0  0
   18.7379   23.1043    2.5631 H   0  0  0  0  0  0  0  0  0  0  0  0
   10.6863   21.8515   -0.3479 C   0  0  0  0  0  0  0  0  0  0  0  0
    9.7158   22.3571    0.4908 C   0  0  0  0  0  0  0  0  0  0  0  0
    8.4548   21.7658    0.5340 C   0  0  0  0  0  0  0  0  0  0  0  0
    8.1226   20.6695   -0.2431 C   0  0  0  0  0  0  0  0  0  0  0  0
    9.0953   20.1666   -1.0803 C   0  0  0  0  0  0  0  0  0  0  0  0
   10.3535   20.7595   -1.1210 C   0  0  0  0  0  0  0  0  0  0  0  0
    6.8043   20.0574   -0.1932 C   0  0  0  0  0  0  0  0  0  0  0  0
    6.1858   19.8794    1.0307 O   0  0  0  0  0  0  0  0  0  0  0  0
    6.1858   19.6754   -1.2149 O   0  0  0  0  0  0  0  0  0  0  0  0
    6.7222   19.4003    1.7648 H   0  0  0  0  0  0  0  0  0  0  0  0
   15.7989   24.4893   -4.9999 C   0  0  0  0  0  0  0  0  0  0  0  0
   14.9246   26.5585   -6.6746 C   0  0  0  0  0  0  0  0  0  0  0  0
   15.7071   26.9388   -5.4695 C   0  0  0  0  0  0  0  0  0  0  0  0
   15.9856   28.2463   -5.1774 C   0  0  0  0  0  0  0  0  0  0  0  0
   16.7181   28.5485   -4.0482 C   0  0  0  0  0  0  0  0  0  0  0  0
   17.1519   27.5139   -3.2402 C   0  0  0  0  0  0  0  0  0  0  0  0
   16.8494   26.2556   -3.5762 N   0  0  0  0  0  0  0  0  0  0  0  0
   16.1453   25.8843   -4.6516 C   0  0  0  0  0  0  0  0  0  0  0  0
 32 33  1  0  0  0
 33 34  2  0  0  0
 34 35  1  0  0  0
 35 36  2  0  0  0
 36 37  1  0  0  0
 37 38  2  0  0  0
 38 31  1  0  0  0
 31  1  1  0  0  0
  1  2  1  0  0  0
  2  3  1  0  0  0
  3  4  1  0  0  0
  4  5  1  0  0  0
  5  6  1  0  0  0
  4  7  1  0  0  0
  7  8  1  0  0  0
  8  9  2  0  0  0
  8 10  1  0  0  0
 10 11  1  0  0  0
 11 12  2  0  0  0
 10 21  1  0  0  0
 21 22  2  0  0  0
 22 23  1  0  0  0
 23 24  2  0  0  0
 24 25  1  0  0  0
 25 26  2  0  0  0
 24 27  1  0  0  0
 27 28  1  0  0  0
 27 29  2  0  0  0
  7 13  1  0  0  0
 13 14  2  0  0  0
 14 15  1  0  0  0
 15 16  2  0  0  0
 15 17  1  0  0  0
 17 18  1  0  0  0
 18 19  2  0  0  0
 38 33  1  0  0  0
  6  1  1  0  0  0
 26 21  1  0  0  0
 19 13  1  0  0  0
 11  4  1  0  0  0
 28 30  1  0  0  0
 17 20  1  0  0  0
M  END
> <minimizedAffinity>
1.21021

> <CNNscore>
0.4881409705

> <CNNaffinity>
7.8262381554

> <CNN_VS>
3.8203074932

> <CNNaffinity_variance>
0.5671256781

$$$$
[H]OC(=O)C([H])([H])N([H])C(=O)C1=C(O[H])C([H])([H])C([H])([H])N(C([H])([H])c2c([H])c([H])c(Oc3c([H])c([H])c([H])c([H])c3[H])c([H])c2[H])C1=O


 32 34  0  0  0  0  0  0  0  0999 V2000
   12.1834   21.6851    0.7101 C   0  0  0  0  0  0  0  0  0  0  0  0
   11.5044   21.1123   -0.2962 C   0  0  0  0  0  0  0  0  0  0  0  0
   10.2737   20.4713   -0.0293 O   0  0  0  0  0  0  0  0  0  0  0  0
   11.9371   21.0903   -1.7000 C   0  0  0  0  0  0  0  0  0  0  0  0
   13.4162   21.2229   -1.8115 C   0  0  0  0  0  0  0  0  0  0  0  0
   13.8845   22.3023   -1.0118 N   0  0  0  0  0  0  0  0  0  0  0  0
   13.4345   22.3170    0.3642 C   0  0  0  0  0  0  0  0  0  0  0  0
   14.1631   22.8907    1.2254 O   0  0  0  0  0  0  0  0  0  0  0  0
    9.4940   20.7984   -0.6063 H   0  0  0  0  0  0  0  0  0  0  0  0
   12.1035   20.8542    3.1080 N   0  0  0  0  0  0  0  0  0  0  0  0
   11.6163   21.6179    2.0317 C   0  0  0  0  0  0  0  0  0  0  0  0
   10.5679   22.3107    2.2747 O   0  0  0  0  0  0  0  0  0  0  0  0
   12.9422   20.2730    3.0048 H   0  0  0  0  0  0  0  0  0  0  0  0
   11.4632   20.8383    4.4137 C   0  0  0  0  0  0  0  0  0  0  0  0
    9.4600   19.6007    5.2058 O   0  0  0  0  0  0  0  0  0  0  0  0
   10.7646   19.5633    4.6906 C   0  0  0  0  0  0  0  0  0  0  0  0
   11.2806   18.4434    4.4875 O   0  0  0  0  0  0  0  0  0  0  0  0
    9.1747   19.0458    5.9941 H   0  0  0  0  0  0  0  0  0  0  0  0
   14.7564   23.3540   -1.4166 C   0  0  0  0  0  0  0  0  0  0  0  0
   14.1763   24.4821   -2.1185 C   0  0  0  0  0  0  0  0  0  0  0  0
   14.9559   25.2815   -2.9118 C   0  0  0  0  0  0  0  0  0  0  0  0
   14.4778   26.3738   -3.6080 C   0  0  0  0  0  0  0  0  0  0  0  0
   13.1437   26.6896   -3.5090 C   0  0  0  0  0  0  0  0  0  0  0  0
   12.3445   25.8660   -2.6926 C   0  0  0  0  0  0  0  0  0  0  0  0
   12.8516   24.7904   -2.0160 C   0  0  0  0  0  0  0  0  0  0  0  0
   12.5747   27.6908   -4.1149 O   0  0  0  0  0  0  0  0  0  0  0  0
   11.7230   28.6619   -4.2268 C   0  0  0  0  0  0  0  0  0  0  0  0
   10.5016   28.5844   -4.8437 C   0  0  0  0  0  0  0  0  0  0  0  0
    9.6599   29.6769   -4.9132 C   0  0  0  0  0  0  0  0  0  0  0  0
   10.0445   30.8893   -4.3500 C   0  0  0  0  0  0  0  0  0  0  0  0
   11.2594   31.0049   -3.7243 C   0  0  0  0  0  0  0  0  0  0  0  0
   12.0758   29.9141   -3.6667 C   0  0  0  0  0  0  0  0  0  0  0  0
 15 16  1  0  0  0
 16 17  2  0  0  0
 16 14  1  0  0  0
 14 10  1  0  0  0
 10 11  1  0  0  0
 11 12  2  0  0  0
 11  1  1  0  0  0
  1  2  2  0  0  0
  2  3  1  0  0  0
  2  4  1  0  0  0
  4  5  1  0  0  0
  5  6  1  0  0  0
  6 19  1  0  0  0
 19 20  1  0  0  0
 20 21  2  0  0  0
 21 22  1  0  0  0
 22 23  2  0  0  0
 23 26  1  0  0  0
 26 27  1  0  0  0
 27 28  2  0  0  0
 28 29  1  0  0  0
 29 30  2  0  0  0
 30 31  1  0  0  0
 31 32  2  0  0  0
 23 24  1  0  0  0
 24 25  2  0  0  0
  6  7  1  0  0  0
  7  8  2  0  0  0
  7  1  1  0  0  0
 25 20  1  0  0  0
 32 27  1  0  0  0
 15 18  1  0  0  0
 10 13  1  0  0  0
  3  9  1  0  0  0
M  END
> <minimizedAffinity>
3.49610

> <CNNscore>
0.7000586987

> <CNNaffinity>
6.7087745667

> <CNN_VS>
4.6965360641

> <CNNaffinity_variance>
0.4115494788

$$$$
[H]OC(=O)C([H])([H])N([H])C(=O)C1=C(O[H])C([H])([H])C([H])([H])N(C([H])([H])c2c([H])c([H])c(Oc3c([H])c([H])c([H])c([H])c3[H])c([H])c2[H])C1=O


 32 34  0  0  0  0  0  0  0  0999 V2000
   14.7446   22.3614    0.0684 C   0  0  0  0  0  0  0  0  0  0  0  0
   15.8154   22.7663    0.7695 C   0  0  0  0  0  0  0  0  0  0  0  0
   16.1603   22.0942    1.9636 O   0  0  0  0  0  0  0  0  0  0  0  0
   16.6941   23.8830    0.3962 C   0  0  0  0  0  0  0  0  0  0  0  0
   15.9810   24.8673   -0.4642 C   0  0  0  0  0  0  0  0  0  0  0  0
   15.2980   24.2059   -1.5226 N   0  0  0  0  0  0  0  0  0  0  0  0
   14.4498   23.0974   -1.1380 C   0  0  0  0  0  0  0  0  0  0  0  0
   13.4678   22.8096   -1.8828 O   0  0  0  0  0  0  0  0  0  0  0  0
   17.1274   21.7605    1.9953 H   0  0  0  0  0  0  0  0  0  0  0  0
   12.6358   21.2628    0.9587 N   0  0  0  0  0  0  0  0  0  0  0  0
   13.9890   21.2453    0.5744 C   0  0  0  0  0  0  0  0  0  0  0  0
   14.5838   20.1185    0.6952 O   0  0  0  0  0  0  0  0  0  0  0  0
   12.0796   22.1218    0.8905 H   0  0  0  0  0  0  0  0  0  0  0  0
   11.9483   20.0869    1.4683 C   0  0  0  0  0  0  0  0  0  0  0  0
   11.9863   21.1254    3.7249 O   0  0  0  0  0  0  0  0  0  0  0  0
   12.0439   19.9637    2.9400 C   0  0  0  0  0  0  0  0  0  0  0  0
   12.1745   18.8680    3.5268 O   0  0  0  0  0  0  0  0  0  0  0  0
   12.6437   21.3119    4.4622 H   0  0  0  0  0  0  0  0  0  0  0  0
   15.3491   24.5282   -2.9094 C   0  0  0  0  0  0  0  0  0  0  0  0
   14.3669   25.4619   -3.4243 C   0  0  0  0  0  0  0  0  0  0  0  0
   13.2102   25.7047   -2.7321 C   0  0  0  0  0  0  0  0  0  0  0  0
   12.2277   26.5761   -3.1586 C   0  0  0  0  0  0  0  0  0  0  0  0
   12.4070   27.2462   -4.3452 C   0  0  0  0  0  0  0  0  0  0  0  0
   13.5971   26.9945   -5.0549 C   0  0  0  0  0  0  0  0  0  0  0  0
   14.5506   26.1237   -4.6028 C   0  0  0  0  0  0  0  0  0  0  0  0
   11.5569   28.0910   -4.8522 O   0  0  0  0  0  0  0  0  0  0  0  0
   10.4494   28.7644   -4.8806 C   0  0  0  0  0  0  0  0  0  0  0  0
   10.2110   29.9360   -4.2105 C   0  0  0  0  0  0  0  0  0  0  0  0
    8.9946   30.5830   -4.3026 C   0  0  0  0  0  0  0  0  0  0  0  0
    7.9788   30.0477   -5.0879 C   0  0  0  0  0  0  0  0  0  0  0  0
    8.1805   28.8770   -5.7731 C   0  0  0  0  0  0  0  0  0  0  0  0
    9.3890   28.2538   -5.6687 C   0  0  0  0  0  0  0  0  0  0  0  0
 15 16  1  0  0  0
 16 17  2  0  0  0
 16 14  1  0  0  0
 14 10  1  0  0  0
 10 11  1  0  0  0
 11 12  2  0  0  0
 11  1  1  0  0  0
  1  2  2  0  0  0
  2  3  1  0  0  0
  2  4  1  0  0  0
  4  5  1  0  0  0
  5  6  1  0  0  0
  6 19  1  0  0  0
 19 20  1  0  0  0
 20 21  2  0  0  0
 21 22  1  0  0  0
 22 23  2  0  0  0
 23 26  1  0  0  0
 26 27  1  0  0  0
 27 28  2  0  0  0
 28 29  1  0  0  0
 29 30  2  0  0  0
 30 31  1  0  0  0
 31 32  2  0  0  0
 23 24  1  0  0  0
 24 25  2  0  0  0
  6  7  1  0  0  0
  7  8  2  0  0  0
  7  1  1  0  0  0
 25 20  1  0  0  0
 32 27  1  0  0  0
 15 18  1  0  0  0
 10 13  1  0  0  0
  3  9  1  0  0  0
M  END
> <minimizedAffinity>
3.15511

> <CNNscore>
0.5448446274

> <CNNaffinity>
6.3895163536

> <CNN_VS>
3.4812936783

> <CNNaffinity_variance>
0.3264508247

$$$$
[H]OC(=O)C([H])([H])N([H])C(=O)C1=C(O[H])C([H])([H])C([H])([H])N(C([H])([H])c2c([H])c([H])c(Oc3c([H])c([H])c([H])c([H])c3[H])c([H])c2[H])C1=O


 32 34  0  0  0  0  0  0  0  0999 V2000
   13.9579   27.1214   -4.2256 C   0  0  0  0  0  0  0  0  0  0  0  0
   15.0365   27.6526   -4.8227 C   0  0  0  0  0  0  0  0  0  0  0  0
   15.0537   29.0319   -5.1290 O   0  0  0  0  0  0  0  0  0  0  0  0
   16.2444   26.9062   -5.1997 C   0  0  0  0  0  0  0  0  0  0  0  0
   15.9453   25.4618   -5.4039 C   0  0  0  0  0  0  0  0  0  0  0  0
   15.1864   24.9482   -4.3155 N   0  0  0  0  0  0  0  0  0  0  0  0
   14.0088   25.7057   -3.9471 C   0  0  0  0  0  0  0  0  0  0  0  0
   13.0542   25.0920   -3.3870 O   0  0  0  0  0  0  0  0  0  0  0  0
   15.8651   29.5356   -4.7606 H   0  0  0  0  0  0  0  0  0  0  0  0
   12.9266   29.2084   -3.2121 N   0  0  0  0  0  0  0  0  0  0  0  0
   12.8553   27.9957   -3.9215 C   0  0  0  0  0  0  0  0  0  0  0  0
   11.6884   27.6583   -4.3247 O   0  0  0  0  0  0  0  0  0  0  0  0
   13.8223   29.5589   -2.8562 H   0  0  0  0  0  0  0  0  0  0  0  0
   11.7577   30.0305   -2.9415 C   0  0  0  0  0  0  0  0  0  0  0  0
   10.2030   30.6568   -4.7752 O   0  0  0  0  0  0  0  0  0  0  0  0
   11.3978   30.9026   -4.0818 C   0  0  0  0  0  0  0  0  0  0  0  0
   12.1092   31.8564   -4.4636 O   0  0  0  0  0  0  0  0  0  0  0  0
   10.1596   30.6167   -5.7788 H   0  0  0  0  0  0  0  0  0  0  0  0
   15.4537   23.7664   -3.5660 C   0  0  0  0  0  0  0  0  0  0  0  0
   14.7307   23.5741   -2.3242 C   0  0  0  0  0  0  0  0  0  0  0  0
   13.9238   22.4806   -2.1529 C   0  0  0  0  0  0  0  0  0  0  0  0
   13.2023   22.2305   -1.0026 C   0  0  0  0  0  0  0  0  0  0  0  0
   13.2888   23.1220    0.0400 C   0  0  0  0  0  0  0  0  0  0  0  0
   14.1191   24.2454   -0.1389 C   0  0  0  0  0  0  0  0  0  0  0  0
   14.8206   24.4627   -1.2933 C   0  0  0  0  0  0  0  0  0  0  0  0
   12.6597   22.9977    1.1723 O   0  0  0  0  0  0  0  0  0  0  0  0
   11.7704   22.4932    1.9694 C   0  0  0  0  0  0  0  0  0  0  0  0
   10.5909   23.0915    2.3293 C   0  0  0  0  0  0  0  0  0  0  0  0
    9.7032   22.4736    3.1878 C   0  0  0  0  0  0  0  0  0  0  0  0
    9.9970   21.2170    3.7073 C   0  0  0  0  0  0  0  0  0  0  0  0
   11.1675   20.5872    3.3698 C   0  0  0  0  0  0  0  0  0  0  0  0
   12.0306   21.2146    2.5205 C   0  0  0  0  0  0  0  0  0  0  0  0
 15 16  1  0  0  0
 16 17  2  0  0  0
 16 14  1  0  0  0
 14 10  1  0  0  0
 10 11  1  0  0  0
 11 12  2  0  0  0
 11  1  1  0  0  0
  1  2  2  0  0  0
  2  3  1  0  0  0
  2  4  1  0  0  0
  4  5  1  0  0  0
  5  6  1  0  0  0
  6 19  1  0  0  0
 19 20  1  0  0  0
 20 21  2  0  0  0
 21 22  1  0  0  0
 22 23  2  0  0  0
 23 26  1  0  0  0
 26 27  1  0  0  0
 27 28  2  0  0  0
 28 29  1  0  0  0
 29 30  2  0  0  0
 30 31  1  0  0  0
 31 32  2  0  0  0
 23 24  1  0  0  0
 24 25  2  0  0  0
  6  7  1  0  0  0
  7  8  2  0  0  0
  7  1  1  0  0  0
 25 20  1  0  0  0
 32 27  1  0  0  0
 15 18  1  0  0  0
 10 13  1  0  0  0
  3  9  1  0  0  0
M  END
> <minimizedAffinity>
2.09077

> <CNNscore>
0.5050131083

> <CNNaffinity>
6.5626716614

> <CNN_VS>
3.3142352104

> <CNNaffinity_variance>
0.3933014274

$$$$
[H]OC(=O)C([H])([H])N([H])C(=O)C1=C(O[H])C([H])([H])C([H])([H])N(C([H])([H])c2c([H])c([H])c(Oc3c([H])c([H])c([H])c([H])c3[H])c([H])c2[H])C1=O


 32 34  0  0  0  0  0  0  0  0999 V2000
   13.9029   22.4044   -1.8511 C   0  0  0  0  0  0  0  0  0  0  0  0
   13.8318   21.4666   -2.8089 C   0  0  0  0  0  0  0  0  0  0  0  0
   13.0303   20.3212   -2.6033 O   0  0  0  0  0  0  0  0  0  0  0  0
   14.5345   21.5234   -4.0979 C   0  0  0  0  0  0  0  0  0  0  0  0
   15.7526   22.3757   -4.0121 C   0  0  0  0  0  0  0  0  0  0  0  0
   15.4518   23.6190   -3.3893 N   0  0  0  0  0  0  0  0  0  0  0  0
   14.7443   23.5443   -2.1282 C   0  0  0  0  0  0  0  0  0  0  0  0
   14.8907   24.4932   -1.3036 O   0  0  0  0  0  0  0  0  0  0  0  0
   12.3466   20.1464   -3.3447 H   0  0  0  0  0  0  0  0  0  0  0  0
   13.5673   21.4654    0.4839 N   0  0  0  0  0  0  0  0  0  0  0  0
   13.1477   22.1948   -0.6435 C   0  0  0  0  0  0  0  0  0  0  0  0
   11.9796   22.7119   -0.5645 O   0  0  0  0  0  0  0  0  0  0  0  0
   14.4912   21.0210    0.5101 H   0  0  0  0  0  0  0  0  0  0  0  0
   12.7353   21.2962    1.6647 C   0  0  0  0  0  0  0  0  0  0  0  0
   10.3091   20.9996    2.1090 O   0  0  0  0  0  0  0  0  0  0  0  0
   11.4422   20.6430    1.3622 C   0  0  0  0  0  0  0  0  0  0  0  0
   11.3047   19.7817    0.4672 O   0  0  0  0  0  0  0  0  0  0  0  0
    9.6902   20.3166    2.5104 H   0  0  0  0  0  0  0  0  0  0  0  0
   15.7854   24.9196   -3.8657 C   0  0  0  0  0  0  0  0  0  0  0  0
   14.7207   25.8987   -3.9634 C   0  0  0  0  0  0  0  0  0  0  0  0
   14.9751   27.1551   -4.4459 C   0  0  0  0  0  0  0  0  0  0  0  0
   14.0160   28.1411   -4.5658 C   0  0  0  0  0  0  0  0  0  0  0  0
   12.7263   27.8601   -4.1825 C   0  0  0  0  0  0  0  0  0  0  0  0
   12.4676   26.5676   -3.6867 C   0  0  0  0  0  0  0  0  0  0  0  0
   13.4427   25.6137   -3.5811 C   0  0  0  0  0  0  0  0  0  0  0  0
   11.7364   28.7023   -4.2471 O   0  0  0  0  0  0  0  0  0  0  0  0
   10.5496   29.0911   -4.5955 C   0  0  0  0  0  0  0  0  0  0  0  0
    9.9315   30.2400   -4.1755 C   0  0  0  0  0  0  0  0  0  0  0  0
    8.6607   30.5709   -4.6028 C   0  0  0  0  0  0  0  0  0  0  0  0
    7.9796   29.7312   -5.4781 C   0  0  0  0  0  0  0  0  0  0  0  0
    8.5661   28.5730   -5.9200 C   0  0  0  0  0  0  0  0  0  0  0  0
    9.8216   28.2646   -5.4861 C   0  0  0  0  0  0  0  0  0  0  0  0
 15 16  1  0  0  0
 16 17  2  0  0  0
 16 14  1  0  0  0
 14 10  1  0  0  0
 10 11  1  0  0  0
 11 12  2  0  0  0
 11  1  1  0  0  0
  1  2  2  0  0  0
  2  3  1  0  0  0
  2  4  1  0  0  0
  4  5  1  0  0  0
  5  6  1  0  0  0
  6 19  1  0  0  0
 19 20  1  0  0  0
 20 21  2  0  0  0
 21 22  1  0  0  0
 22 23  2  0  0  0
 23 26  1  0  0  0
 26 27  1  0  0  0
 27 28  2  0  0  0
 28 29  1  0  0  0
 29 30  2  0  0  0
 30 31  1  0  0  0
 31 32  2  0  0  0
 23 24  1  0  0  0
 24 25  2  0  0  0
  6  7  1  0  0  0
  7  8  2  0  0  0
  7  1  1  0  0  0
 25 20  1  0  0  0
 32 27  1  0  0  0
 15 18  1  0  0  0
 10 13  1  0  0  0
  3  9  1  0  0  0
M  END
> <minimizedAffinity>
8.77085

> <CNNscore>
0.4691940546

> <CNNaffinity>
6.2198252678

> <CNN_VS>
2.9183049202

> <CNNaffinity_variance>
0.9587510824

$$$$
[H]OC(=O)C([H])([H])N([H])C(=O)C1=C(O[H])C([H])([H])C([H])([H])N(C([H])([H])c2c([H])c([H])c(Oc3c([H])c([H])c([H])c([H])c3[H])c([H])c2[H])C1=O


 32 34  0  0  0  0  0  0  0  0999 V2000
   13.6250   26.6877   -3.7892 C   0  0  0  0  0  0  0  0  0  0  0  0
   14.6774   26.3283   -4.5409 C   0  0  0  0  0  0  0  0  0  0  0  0
   15.0885   27.1607   -5.6061 O   0  0  0  0  0  0  0  0  0  0  0  0
   15.4706   25.1063   -4.3512 C   0  0  0  0  0  0  0  0  0  0  0  0
   14.6767   24.0473   -3.6688 C   0  0  0  0  0  0  0  0  0  0  0  0
   14.0224   24.5732   -2.5200 N   0  0  0  0  0  0  0  0  0  0  0  0
   13.2592   25.7868   -2.7220 C   0  0  0  0  0  0  0  0  0  0  0  0
   12.2865   26.0174   -1.9459 O   0  0  0  0  0  0  0  0  0  0  0  0
   16.0767   27.4259   -5.5768 H   0  0  0  0  0  0  0  0  0  0  0  0
   11.5658   28.1264   -4.1583 N   0  0  0  0  0  0  0  0  0  0  0  0
   12.9567   27.9221   -4.1092 C   0  0  0  0  0  0  0  0  0  0  0  0
   13.6762   28.9458   -4.3784 O   0  0  0  0  0  0  0  0  0  0  0  0
   10.9133   27.3626   -3.9517 H   0  0  0  0  0  0  0  0  0  0  0  0
   10.9714   29.4094   -4.4986 C   0  0  0  0  0  0  0  0  0  0  0  0
   11.9710   31.6756   -4.3056 O   0  0  0  0  0  0  0  0  0  0  0  0
   11.4958   30.5182   -3.6704 C   0  0  0  0  0  0  0  0  0  0  0  0
   11.5382   30.4776   -2.4220 O   0  0  0  0  0  0  0  0  0  0  0  0
   12.8526   32.0974   -4.0701 H   0  0  0  0  0  0  0  0  0  0  0  0
   14.0270   24.0254   -1.2048 C   0  0  0  0  0  0  0  0  0  0  0  0
   12.7497   23.6916   -0.6058 C   0  0  0  0  0  0  0  0  0  0  0  0
   12.3149   24.3496    0.5141 C   0  0  0  0  0  0  0  0  0  0  0  0
   11.1141   24.0863    1.1426 C   0  0  0  0  0  0  0  0  0  0  0  0
   10.2967   23.1095    0.6258 C   0  0  0  0  0  0  0  0  0  0  0  0
   10.7463   22.4345   -0.5256 C   0  0  0  0  0  0  0  0  0  0  0  0
   11.9432   22.7210   -1.1234 C   0  0  0  0  0  0  0  0  0  0  0  0
    9.1443   22.7699    1.1256 O   0  0  0  0  0  0  0  0  0  0  0  0
    8.2920   22.5840    2.0848 C   0  0  0  0  0  0  0  0  0  0  0  0
    7.6642   21.4009    2.3757 C   0  0  0  0  0  0  0  0  0  0  0  0
    6.7683   21.2998    3.4216 C   0  0  0  0  0  0  0  0  0  0  0  0
    6.4857   22.4130    4.2066 C   0  0  0  0  0  0  0  0  0  0  0  0
    7.0947   23.6137    3.9458 C   0  0  0  0  0  0  0  0  0  0  0  0
    7.9762   23.6923    2.9083 C   0  0  0  0  0  0  0  0  0  0  0  0
 15 16  1  0  0  0
 16 17  2  0  0  0
 16 14  1  0  0  0
 14 10  1  0  0  0
 10 11  1  0  0  0
 11 12  2  0  0  0
 11  1  1  0  0  0
  1  2  2  0  0  0
  2  3  1  0  0  0
  2  4  1  0  0  0
  4  5  1  0  0  0
  5  6  1  0  0  0
  6 19  1  0  0  0
 19 20  1  0  0  0
 20 21  2  0  0  0
 21 22  1  0  0  0
 22 23  2  0  0  0
 23 26  1  0  0  0
 26 27  1  0  0  0
 27 28  2  0  0  0
 28 29  1  0  0  0
 29 30  2  0  0  0
 30 31  1  0  0  0
 31 32  2  0  0  0
 23 24  1  0  0  0
 24 25  2  0  0  0
  6  7  1  0  0  0
  7  8  2  0  0  0
  7  1  1  0  0  0
 25 20  1  0  0  0
 32 27  1  0  0  0
 15 18  1  0  0  0
 10 13  1  0  0  0
  3  9  1  0  0  0
M  END
> <minimizedAffinity>
2.45458

> <CNNscore>
0.4149252474

> <CNNaffinity>
5.9808740616

> <CNN_VS>
2.4816155434

> <CNNaffinity_variance>
0.2744877934

$$$$
[H]OC(=O)C([H])([H])N([H])C(=O)C1=C(O[H])C([H])([H])C([H])([H])N(C([H])([H])c2c([H])c([H])c(Oc3c([H])c([H])c([H])c([H])c3[H])c([H])c2[H])C1=O


 32 34  0  0  0  0  0  0  0  0999 V2000
    8.6158   20.5147   -0.9041 C   0  0  0  0  0  0  0  0  0  0  0  0
    7.9490   19.6074   -0.1733 C   0  0  0  0  0  0  0  0  0  0  0  0
    7.1060   18.6760   -0.8204 O   0  0  0  0  0  0  0  0  0  0  0  0
    8.0177   19.4879    1.2894 C   0  0  0  0  0  0  0  0  0  0  0  0
    8.3997   20.7819    1.9198 C   0  0  0  0  0  0  0  0  0  0  0  0
    9.5329   21.3423    1.2671 N   0  0  0  0  0  0  0  0  0  0  0  0
    9.4543   21.4368   -0.1755 C   0  0  0  0  0  0  0  0  0  0  0  0
   10.1322   22.3357   -0.7535 O   0  0  0  0  0  0  0  0  0  0  0  0
    7.3037   17.6982   -0.5914 H   0  0  0  0  0  0  0  0  0  0  0  0
    8.1676   19.3607   -3.1208 N   0  0  0  0  0  0  0  0  0  0  0  0
    8.4375   20.4942   -2.3325 C   0  0  0  0  0  0  0  0  0  0  0  0
    8.5288   21.6012   -2.9682 O   0  0  0  0  0  0  0  0  0  0  0  0
    8.0727   18.4328   -2.6946 H   0  0  0  0  0  0  0  0  0  0  0  0
    8.0081   19.4276   -4.5648 C   0  0  0  0  0  0  0  0  0  0  0  0
    9.4870   21.2799   -5.3090 O   0  0  0  0  0  0  0  0  0  0  0  0
    9.2301   19.9016   -5.2521 C   0  0  0  0  0  0  0  0  0  0  0  0
   10.0539   19.1310   -5.7899 O   0  0  0  0  0  0  0  0  0  0  0  0
    9.7479   21.7457   -6.1609 H   0  0  0  0  0  0  0  0  0  0  0  0
   10.7216   21.8312    1.8818 C   0  0  0  0  0  0  0  0  0  0  0  0
   11.7555   22.3722    1.0215 C   0  0  0  0  0  0  0  0  0  0  0  0
   12.7388   21.5597    0.5223 C   0  0  0  0  0  0  0  0  0  0  0  0
   13.7571   22.0011   -0.2990 C   0  0  0  0  0  0  0  0  0  0  0  0
   13.7997   23.3308   -0.6444 C   0  0  0  0  0  0  0  0  0  0  0  0
   12.7875   24.1638   -0.1297 C   0  0  0  0  0  0  0  0  0  0  0  0
   11.7923   23.6929    0.6825 C   0  0  0  0  0  0  0  0  0  0  0  0
   14.7057   23.8666   -1.4096 O   0  0  0  0  0  0  0  0  0  0  0  0
   15.1380   24.6856   -2.3169 C   0  0  0  0  0  0  0  0  0  0  0  0
   14.7011   24.7408   -3.6148 C   0  0  0  0  0  0  0  0  0  0  0  0
   15.2237   25.6512   -4.5119 C   0  0  0  0  0  0  0  0  0  0  0  0
   16.2153   26.5384   -4.1058 C   0  0  0  0  0  0  0  0  0  0  0  0
   16.6775   26.5129   -2.8149 C   0  0  0  0  0  0  0  0  0  0  0  0
   16.1482   25.6061   -1.9448 C   0  0  0  0  0  0  0  0  0  0  0  0
 15 16  1  0  0  0
 16 17  2  0  0  0
 16 14  1  0  0  0
 14 10  1  0  0  0
 10 11  1  0  0  0
 11 12  2  0  0  0
 11  1  1  0  0  0
  1  2  2  0  0  0
  2  3  1  0  0  0
  2  4  1  0  0  0
  4  5  1  0  0  0
  5  6  1  0  0  0
  6 19  1  0  0  0
 19 20  1  0  0  0
 20 21  2  0  0  0
 21 22  1  0  0  0
 22 23  2  0  0  0
 23 26  1  0  0  0
 26 27  1  0  0  0
 27 28  2  0  0  0
 28 29  1  0  0  0
 29 30  2  0  0  0
 30 31  1  0  0  0
 31 32  2  0  0  0
 23 24  1  0  0  0
 24 25  2  0  0  0
  6  7  1  0  0  0
  7  8  2  0  0  0
  7  1  1  0  0  0
 25 20  1  0  0  0
 32 27  1  0  0  0
 15 18  1  0  0  0
 10 13  1  0  0  0
  3  9  1  0  0  0
M  END
> <minimizedAffinity>
11.45345

> <CNNscore>
0.3853981197

> <CNNaffinity>
5.8084216118

> <CNN_VS>
2.2385547161

> <CNNaffinity_variance>
1.3379336596

$$$$
[H]OC(=O)C([H])([H])N([H])C(=O)C1=C(O[H])C([H])([H])C([H])([H])N(C([H])([H])c2c([H])c([H])c(Oc3c([H])c([H])c([H])c([H])c3[H])c([H])c2[H])C1=O


 32 34  0  0  0  0  0  0  0  0999 V2000
   14.8168   26.4632   -4.3703 C   0  0  0  0  0  0  0  0  0  0  0  0
   15.3507   25.9261   -5.4787 C   0  0  0  0  0  0  0  0  0  0  0  0
   15.6021   26.7493   -6.5994 O   0  0  0  0  0  0  0  0  0  0  0  0
   15.7118   24.5112   -5.6400 C   0  0  0  0  0  0  0  0  0  0  0  0
   14.9145   23.6430   -4.7299 C   0  0  0  0  0  0  0  0  0  0  0  0
   14.9254   24.1617   -3.4052 N   0  0  0  0  0  0  0  0  0  0  0  0
   14.5833   25.5618   -3.2670 C   0  0  0  0  0  0  0  0  0  0  0  0
   14.0858   25.9503   -2.1702 O   0  0  0  0  0  0  0  0  0  0  0  0
   16.5636   26.7055   -6.9475 H   0  0  0  0  0  0  0  0  0  0  0  0
   13.3407   28.4776   -3.9124 N   0  0  0  0  0  0  0  0  0  0  0  0
   14.5225   27.8724   -4.3772 C   0  0  0  0  0  0  0  0  0  0  0  0
   15.4055   28.6713   -4.8464 O   0  0  0  0  0  0  0  0  0  0  0  0
   12.5812   27.9143   -3.5151 H   0  0  0  0  0  0  0  0  0  0  0  0
   13.1210   29.9143   -3.9629 C   0  0  0  0  0  0  0  0  0  0  0  0
   11.4024   31.3935   -2.9479 O   0  0  0  0  0  0  0  0  0  0  0  0
   11.7034   30.2822   -3.7499 C   0  0  0  0  0  0  0  0  0  0  0  0
   10.7504   29.6487   -4.2520 O   0  0  0  0  0  0  0  0  0  0  0  0
   10.7100   31.3620   -2.2196 H   0  0  0  0  0  0  0  0  0  0  0  0
   15.2202   23.4486   -2.2075 C   0  0  0  0  0  0  0  0  0  0  0  0
   14.1806   23.3557   -1.2013 C   0  0  0  0  0  0  0  0  0  0  0  0
   14.3933   23.8374    0.0632 C   0  0  0  0  0  0  0  0  0  0  0  0
   13.4548   23.7824    1.0744 C   0  0  0  0  0  0  0  0  0  0  0  0
   12.2312   23.2141    0.8118 C   0  0  0  0  0  0  0  0  0  0  0  0
   12.0153   22.7196   -0.4891 C   0  0  0  0  0  0  0  0  0  0  0  0
   12.9683   22.7903   -1.4682 C   0  0  0  0  0  0  0  0  0  0  0  0
   11.2667   23.1037    1.6783 O   0  0  0  0  0  0  0  0  0  0  0  0
   10.0552   23.2670    2.1102 C   0  0  0  0  0  0  0  0  0  0  0  0
    9.4611   24.4717    2.3823 C   0  0  0  0  0  0  0  0  0  0  0  0
    8.1606   24.5456    2.8406 C   0  0  0  0  0  0  0  0  0  0  0  0
    7.4238   23.3818    3.0355 C   0  0  0  0  0  0  0  0  0  0  0  0
    7.9847   22.1581    2.7739 C   0  0  0  0  0  0  0  0  0  0  0  0
    9.2704   22.1071    2.3221 C   0  0  0  0  0  0  0  0  0  0  0  0
 15 16  1  0  0  0
 16 17  2  0  0  0
 16 14  1  0  0  0
 14 10  1  0  0  0
 10 11  1  0  0  0
 11 12  2  0  0  0
 11  1  1  0  0  0
  1  2  2  0  0  0
  2  3  1  0  0  0
  2  4  1  0  0  0
  4  5  1  0  0  0
  5  6  1  0  0  0
  6 19  1  0  0  0
 19 20  1  0  0  0
 20 21  2  0  0  0
 21 22  1  0  0  0
 22 23  2  0  0  0
 23 26  1  0  0  0
 26 27  1  0  0  0
 27 28  2  0  0  0
 28 29  1  0  0  0
 29 30  2  0  0  0
 30 31  1  0  0  0
 31 32  2  0  0  0
 23 24  1  0  0  0
 24 25  2  0  0  0
  6  7  1  0  0  0
  7  8  2  0  0  0
  7  1  1  0  0  0
 25 20  1  0  0  0
 32 27  1  0  0  0
 15 18  1  0  0  0
 10 13  1  0  0  0
  3  9  1  0  0  0
M  END
> <minimizedAffinity>
2.20352

> <CNNscore>
0.3713997006

> <CNNaffinity>
6.1850996017

> <CNN_VS>
2.2971441746

> <CNNaffinity_variance>
0.5239996910

$$$$
[H]OC(=O)C([H])([H])N([H])C(=O)C1=C(O[H])C([H])([H])C([H])([H])N(C([H])([H])c2c([H])c([H])c(Oc3c([H])c([H])c([H])c([H])c3[H])c([H])c2[H])C1=O


 32 34  0  0  0  0  0  0  0  0999 V2000
   14.0110   25.3183   -3.1334 C   0  0  0  0  0  0  0  0  0  0  0  0
   15.2694   25.5715   -3.5262 C   0  0  0  0  0  0  0  0  0  0  0  0
   15.6231   26.8790   -3.9287 O   0  0  0  0  0  0  0  0  0  0  0  0
   16.3521   24.5798   -3.5772 C   0  0  0  0  0  0  0  0  0  0  0  0
   15.8139   23.1994   -3.7269 C   0  0  0  0  0  0  0  0  0  0  0  0
   14.7705   22.9636   -2.7888 N   0  0  0  0  0  0  0  0  0  0  0  0
   13.7208   23.9597   -2.7407 C   0  0  0  0  0  0  0  0  0  0  0  0
   12.5720   23.5991   -2.3510 O   0  0  0  0  0  0  0  0  0  0  0  0
   16.4319   27.2675   -3.4362 H   0  0  0  0  0  0  0  0  0  0  0  0
   12.8780   27.3342   -4.1817 N   0  0  0  0  0  0  0  0  0  0  0  0
   13.0693   26.4072   -3.1410 C   0  0  0  0  0  0  0  0  0  0  0  0
   12.3235   26.5675   -2.1133 O   0  0  0  0  0  0  0  0  0  0  0  0
   13.4286   27.2782   -5.0451 H   0  0  0  0  0  0  0  0  0  0  0  0
   11.9055   28.4128   -4.1044 C   0  0  0  0  0  0  0  0  0  0  0  0
   11.7283   30.8661   -3.7550 O   0  0  0  0  0  0  0  0  0  0  0  0
   12.5397   29.7447   -3.9853 C   0  0  0  0  0  0  0  0  0  0  0  0
   13.7727   29.9253   -4.0798 O   0  0  0  0  0  0  0  0  0  0  0  0
   11.8180   31.7154   -4.2852 H   0  0  0  0  0  0  0  0  0  0  0  0
   14.6437   21.8498   -1.9095 C   0  0  0  0  0  0  0  0  0  0  0  0
   13.7331   21.9727   -0.7881 C   0  0  0  0  0  0  0  0  0  0  0  0
   12.6662   21.1228   -0.6638 C   0  0  0  0  0  0  0  0  0  0  0  0
   11.7553   21.1791    0.3723 C   0  0  0  0  0  0  0  0  0  0  0  0
   11.9157   22.1387    1.3432 C   0  0  0  0  0  0  0  0  0  0  0  0
   13.0135   23.0113    1.2128 C   0  0  0  0  0  0  0  0  0  0  0  0
   13.8976   22.9274    0.1721 C   0  0  0  0  0  0  0  0  0  0  0  0
   11.1270   22.2932    2.3666 O   0  0  0  0  0  0  0  0  0  0  0  0
   10.1857   22.8734    3.0434 C   0  0  0  0  0  0  0  0  0  0  0  0
    9.5083   22.3236    4.1004 C   0  0  0  0  0  0  0  0  0  0  0  0
    8.5172   23.0217    4.7616 C   0  0  0  0  0  0  0  0  0  0  0  0
    8.1871   24.3117    4.3590 C   0  0  0  0  0  0  0  0  0  0  0  0
    8.8433   24.8950    3.3054 C   0  0  0  0  0  0  0  0  0  0  0  0
    9.8188   24.1884    2.6660 C   0  0  0  0  0  0  0  0  0  0  0  0
 15 16  1  0  0  0
 16 17  2  0  0  0
 16 14  1  0  0  0
 14 10  1  0  0  0
 10 11  1  0  0  0
 11 12  2  0  0  0
 11  1  1  0  0  0
  1  2  2  0  0  0
  2  3  1  0  0  0
  2  4  1  0  0  0
  4  5  1  0  0  0
  5  6  1  0  0  0
  6 19  1  0  0  0
 19 20  1  0  0  0
 20 21  2  0  0  0
 21 22  1  0  0  0
 22 23  2  0  0  0
 23 26  1  0  0  0
 26 27  1  0  0  0
 27 28  2  0  0  0
 28 29  1  0  0  0
 29 30  2  0  0  0
 30 31  1  0  0  0
 31 32  2  0  0  0
 23 24  1  0  0  0
 24 25  2  0  0  0
  6  7  1  0  0  0
  7  8  2  0  0  0
  7  1  1  0  0  0
 25 20  1  0  0  0
 32 27  1  0  0  0
 15 18  1  0  0  0
 10 13  1  0  0  0
  3  9  1  0  0  0
M  END
> <minimizedAffinity>
1.52274

> <CNNscore>
0.3555076122

> <CNNaffinity>
5.9899129868

> <CNN_VS>
2.1294596195

> <CNNaffinity_variance>
0.5829660296

$$$$
[H]OC(=O)C([H])([H])N([H])C(=O)C1=C(O[H])C([H])([H])C([H])([H])N(C([H])([H])c2c([H])c([H])c(Oc3c([H])c([H])c([H])c([H])c3[H])c([H])c2[H])C1=O


 32 34  0  0  0  0  0  0  0  0999 V2000
   15.6204   24.9278   -3.2881 C   0  0  0  0  0  0  0  0  0  0  0  0
   16.0441   25.5922   -2.2014 C   0  0  0  0  0  0  0  0  0  0  0  0
   16.5874   26.8885   -2.3461 O   0  0  0  0  0  0  0  0  0  0  0  0
   15.9924   25.0784   -0.8260 C   0  0  0  0  0  0  0  0  0  0  0  0
   15.9893   23.5894   -0.8052 C   0  0  0  0  0  0  0  0  0  0  0  0
   15.0264   23.0772   -1.7189 N   0  0  0  0  0  0  0  0  0  0  0  0
   15.0815   23.6071   -3.0651 C   0  0  0  0  0  0  0  0  0  0  0  0
   14.6498   22.8845   -4.0102 O   0  0  0  0  0  0  0  0  0  0  0  0
   16.1436   27.5997   -1.7588 H   0  0  0  0  0  0  0  0  0  0  0  0
   16.1035   26.9195   -4.7869 N   0  0  0  0  0  0  0  0  0  0  0  0
   15.7414   25.5780   -4.5669 C   0  0  0  0  0  0  0  0  0  0  0  0
   15.5016   24.8900   -5.6191 O   0  0  0  0  0  0  0  0  0  0  0  0
   16.3185   27.5429   -4.0015 H   0  0  0  0  0  0  0  0  0  0  0  0
   16.1956   27.5006   -6.1169 C   0  0  0  0  0  0  0  0  0  0  0  0
   15.1705   29.4821   -5.0238 O   0  0  0  0  0  0  0  0  0  0  0  0
   15.8138   28.9303   -6.1420 C   0  0  0  0  0  0  0  0  0  0  0  0
   16.0367   29.6799   -7.1168 O   0  0  0  0  0  0  0  0  0  0  0  0
   14.3421   30.0464   -5.1014 H   0  0  0  0  0  0  0  0  0  0  0  0
   14.0311   22.0930   -1.4533 C   0  0  0  0  0  0  0  0  0  0  0  0
   12.8949   22.4811   -0.6407 C   0  0  0  0  0  0  0  0  0  0  0  0
   12.5124   21.7154    0.4287 C   0  0  0  0  0  0  0  0  0  0  0  0
   11.4414   22.0173    1.2462 C   0  0  0  0  0  0  0  0  0  0  0  0
   10.7068   23.1490    0.9838 C   0  0  0  0  0  0  0  0  0  0  0  0
   11.1023   23.9343   -0.1164 C   0  0  0  0  0  0  0  0  0  0  0  0
   12.1698   23.6054   -0.9064 C   0  0  0  0  0  0  0  0  0  0  0  0
    9.6787   23.5399    1.6791 O   0  0  0  0  0  0  0  0  0  0  0  0
    8.9839   23.6829    2.7643 C   0  0  0  0  0  0  0  0  0  0  0  0
    9.3261   23.1984    3.9999 C   0  0  0  0  0  0  0  0  0  0  0  0
    8.5187   23.4018    5.1015 C   0  0  0  0  0  0  0  0  0  0  0  0
    7.3294   24.1116    4.9717 C   0  0  0  0  0  0  0  0  0  0  0  0
    6.9539   24.6116    3.7512 C   0  0  0  0  0  0  0  0  0  0  0  0
    7.7655   24.3996    2.6759 C   0  0  0  0  0  0  0  0  0  0  0  0
 15 16  1  0  0  0
 16 17  2  0  0  0
 16 14  1  0  0  0
 14 10  1  0  0  0
 10 11  1  0  0  0
 11 12  2  0  0  0
 11  1  1  0  0  0
  1  2  2  0  0  0
  2  3  1  0  0  0
  2  4  1  0  0  0
  4  5  1  0  0  0
  5  6  1  0  0  0
  6 19  1  0  0  0
 19 20  1  0  0  0
 20 21  2  0  0  0
 21 22  1  0  0  0
 22 23  2  0  0  0
 23 26  1  0  0  0
 26 27  1  0  0  0
 27 28  2  0  0  0
 28 29  1  0  0  0
 29 30  2  0  0  0
 30 31  1  0  0  0
 31 32  2  0  0  0
 23 24  1  0  0  0
 24 25  2  0  0  0
  6  7  1  0  0  0
  7  8  2  0  0  0
  7  1  1  0  0  0
 25 20  1  0  0  0
 32 27  1  0  0  0
 15 18  1  0  0  0
 10 13  1  0  0  0
  3  9  1  0  0  0
M  END
> <minimizedAffinity>
-3.09842

> <CNNscore>
0.3522988558

> <CNNaffinity>
6.1155414581

> <CNN_VS>
2.1544983387

> <CNNaffinity_variance>
0.4824980795

$$$$
[H]OC(=O)c1c([H])c([H])c(N2C(=O)N(c3c([H])c([H])c(C#N)c([H])c3[H])C3(C2=O)C([H])([H])C([H])([H])N(C([H])([H])c2nc([H])c([H])c([H])c2C([H])([H])[H])C([H])([H])C3([H])[H])c([H])c1[H]


 38 42  0  0  0  0  0  0  0  0999 V2000
   11.0386   24.8808    0.6778 N   0  0  0  0  0  0  0  0  0  0  0  0
   10.7306   24.6193   -0.6727 C   0  0  0  0  0  0  0  0  0  0  0  0
   11.9092   23.8006   -1.2223 C   0  0  0  0  0  0  0  0  0  0  0  0
   13.0791   24.7335   -1.2858 C   0  0  0  0  0  0  0  0  0  0  0  0
   13.0571   25.8432   -0.2936 C   0  0  0  0  0  0  0  0  0  0  0  0
   12.2362   25.5753    0.9407 C   0  0  0  0  0  0  0  0  0  0  0  0
   14.3530   24.0409   -1.3274 N   0  0  0  0  0  0  0  0  0  0  0  0
   15.2001   24.8190   -2.1862 C   0  0  0  0  0  0  0  0  0  0  0  0
   16.4708   24.8043   -2.2273 O   0  0  0  0  0  0  0  0  0  0  0  0
   14.4047   25.6423   -3.0201 N   0  0  0  0  0  0  0  0  0  0  0  0
   13.0505   25.3548   -2.6560 C   0  0  0  0  0  0  0  0  0  0  0  0
   12.0408   25.5816   -3.3534 O   0  0  0  0  0  0  0  0  0  0  0  0
   14.8700   26.5557   -4.0053 C   0  0  0  0  0  0  0  0  0  0  0  0
   14.4313   26.3982   -5.3252 C   0  0  0  0  0  0  0  0  0  0  0  0
   14.8395   27.2397   -6.3263 C   0  0  0  0  0  0  0  0  0  0  0  0
   15.7078   28.2697   -6.0163 C   0  0  0  0  0  0  0  0  0  0  0  0
   16.1450   28.4310   -4.7147 C   0  0  0  0  0  0  0  0  0  0  0  0
   15.7318   27.5884   -3.7315 C   0  0  0  0  0  0  0  0  0  0  0  0
   16.1597   29.1769   -7.0464 C   0  0  0  0  0  0  0  0  0  0  0  0
   15.9564   30.5291   -6.8974 O   0  0  0  0  0  0  0  0  0  0  0  0
   16.7292   28.7342   -8.0613 O   0  0  0  0  0  0  0  0  0  0  0  0
   15.2443   30.9648   -7.4845 H   0  0  0  0  0  0  0  0  0  0  0  0
   14.7672   22.8530   -0.6938 C   0  0  0  0  0  0  0  0  0  0  0  0
   15.5114   22.8300    0.4751 C   0  0  0  0  0  0  0  0  0  0  0  0
   15.8986   21.6519    1.0673 C   0  0  0  0  0  0  0  0  0  0  0  0
   15.5642   20.4430    0.5250 C   0  0  0  0  0  0  0  0  0  0  0  0
   14.8254   20.4324   -0.6358 C   0  0  0  0  0  0  0  0  0  0  0  0
   14.4381   21.6285   -1.2276 C   0  0  0  0  0  0  0  0  0  0  0  0
   15.9604   19.1856    1.1279 C   0  0  0  0  0  0  0  0  0  0  0  0
   16.2634   18.1673    1.6047 N   0  0  0  0  0  0  0  0  0  0  0  0
   10.0602   24.7665    1.6618 C   0  0  0  0  0  0  0  0  0  0  0  0
    8.7855   24.9034    4.2442 C   0  0  0  0  0  0  0  0  0  0  0  0
    9.5192   23.6826    3.7760 C   0  0  0  0  0  0  0  0  0  0  0  0
    9.5335   22.6284    4.6851 C   0  0  0  0  0  0  0  0  0  0  0  0
   10.1981   21.4815    4.3042 C   0  0  0  0  0  0  0  0  0  0  0  0
   10.8114   21.4193    3.0657 C   0  0  0  0  0  0  0  0  0  0  0  0
   10.7627   22.4713    2.2320 N   0  0  0  0  0  0  0  0  0  0  0  0
   10.1330   23.6064    2.5490 C   0  0  0  0  0  0  0  0  0  0  0  0
 32 33  1  0  0  0
 33 34  2  0  0  0
 34 35  1  0  0  0
 35 36  2  0  0  0
 36 37  1  0  0  0
 37 38  2  0  0  0
 38 31  1  0  0  0
 31  1  1  0  0  0
  1  2  1  0  0  0
  2  3  1  0  0  0
  3  4  1  0  0  0
  4  5  1  0  0  0
  5  6  1  0  0  0
  4  7  1  0  0  0
  7  8  1  0  0  0
  8  9  2  0  0  0
  8 10  1  0  0  0
 10 11  1  0  0  0
 11 12  2  0  0  0
 10 13  1  0  0  0
 13 14  2  0  0  0
 14 15  1  0  0  0
 15 16  2  0  0  0
 16 17  1  0  0  0
 17 18  2  0  0  0
 16 19  1  0  0  0
 19 20  1  0  0  0
 19 21  2  0  0  0
  7 23  1  0  0  0
 23 24  2  0  0  0
 24 25  1  0  0  0
 25 26  2  0  0  0
 26 27  1  0  0  0
 27 28  2  0  0  0
 26 29  1  0  0  0
 29 30  3  0  0  0
 38 33  1  0  0  0
  6  1  1  0  0  0
 18 13  1  0  0  0
 28 23  1  0  0  0
 11  4  1  0  0  0
 20 22  1  0  0  0
M  END
> <minimizedAffinity>
8.69886

> <CNNscore>
0.6101503372

> <CNNaffinity>
7.6121644974

> <CNN_VS>
4.6445646286

> <CNNaffinity_variance>
0.3350740373

$$$$
[H]OC(=O)c1c([H])c([H])c(N2C(=O)N(c3c([H])c([H])c(C#N)c([H])c3[H])C3(C2=O)C([H])([H])C([H])([H])N(C([H])([H])c2nc([H])c([H])c([H])c2C([H])([H])[H])C([H])([H])C3([H])[H])c([H])c1[H]


 38 42  0  0  0  0  0  0  0  0999 V2000
   12.5500   23.2017    1.1565 N   0  0  0  0  0  0  0  0  0  0  0  0
   12.8967   22.2227    0.2032 C   0  0  0  0  0  0  0  0  0  0  0  0
   14.4103   22.3682   -0.0183 C   0  0  0  0  0  0  0  0  0  0  0  0
   14.6098   23.6673   -0.7361 C   0  0  0  0  0  0  0  0  0  0  0  0
   13.5715   24.7011   -0.4722 C   0  0  0  0  0  0  0  0  0  0  0  0
   12.8351   24.5431    0.8324 C   0  0  0  0  0  0  0  0  0  0  0  0
   15.9604   24.1813   -0.6102 N   0  0  0  0  0  0  0  0  0  0  0  0
   16.2674   24.8033   -1.8670 C   0  0  0  0  0  0  0  0  0  0  0  0
   17.1629   25.6776   -2.0911 O   0  0  0  0  0  0  0  0  0  0  0  0
   15.4073   24.2961   -2.8714 N   0  0  0  0  0  0  0  0  0  0  0  0
   14.5644   23.3494   -2.2062 C   0  0  0  0  0  0  0  0  0  0  0  0
   13.9166   22.4341   -2.7537 O   0  0  0  0  0  0  0  0  0  0  0  0
   15.3971   24.6615   -4.2453 C   0  0  0  0  0  0  0  0  0  0  0  0
   15.0683   25.9788   -4.5859 C   0  0  0  0  0  0  0  0  0  0  0  0
   15.0369   26.4007   -5.8889 C   0  0  0  0  0  0  0  0  0  0  0  0
   15.3396   25.4950   -6.8884 C   0  0  0  0  0  0  0  0  0  0  0  0
   15.6652   24.1924   -6.5592 C   0  0  0  0  0  0  0  0  0  0  0  0
   15.6923   23.7876   -5.2619 C   0  0  0  0  0  0  0  0  0  0  0  0
   15.3167   25.9044   -8.2742 C   0  0  0  0  0  0  0  0  0  0  0  0
   16.4093   26.5445   -8.8113 O   0  0  0  0  0  0  0  0  0  0  0  0
   14.3127   25.6776   -8.9749 O   0  0  0  0  0  0  0  0  0  0  0  0
   16.3212   27.5427   -9.0045 H   0  0  0  0  0  0  0  0  0  0  0  0
   16.8589   24.1312    0.4736 C   0  0  0  0  0  0  0  0  0  0  0  0
   16.9315   23.0658    1.3570 C   0  0  0  0  0  0  0  0  0  0  0  0
   17.8211   23.0493    2.4043 C   0  0  0  0  0  0  0  0  0  0  0  0
   18.6790   24.0906    2.6216 C   0  0  0  0  0  0  0  0  0  0  0  0
   18.6313   25.1635    1.7614 C   0  0  0  0  0  0  0  0  0  0  0  0
   17.7287   25.1716    0.7050 C   0  0  0  0  0  0  0  0  0  0  0  0
   19.6262   24.0997    3.7189 C   0  0  0  0  0  0  0  0  0  0  0  0
   20.3954   24.0915    4.5932 N   0  0  0  0  0  0  0  0  0  0  0  0
   11.6739   22.8991    2.1954 C   0  0  0  0  0  0  0  0  0  0  0  0
   10.0298   22.2567    4.4749 C   0  0  0  0  0  0  0  0  0  0  0  0
   10.9498   21.2559    3.8425 C   0  0  0  0  0  0  0  0  0  0  0  0
   10.9441   20.0000    4.4430 C   0  0  0  0  0  0  0  0  0  0  0  0
   11.7756   19.0425    3.9008 C   0  0  0  0  0  0  0  0  0  0  0  0
   12.5656   19.3540    2.8089 C   0  0  0  0  0  0  0  0  0  0  0  0
   12.5267   20.5854    2.2737 N   0  0  0  0  0  0  0  0  0  0  0  0
   11.7401   21.5510    2.7580 C   0  0  0  0  0  0  0  0  0  0  0  0
 32 33  1  0  0  0
 33 34  2  0  0  0
 34 35  1  0  0  0
 35 36  2  0  0  0
 36 37  1  0  0  0
 37 38  2  0  0  0
 38 31  1  0  0  0
 31  1  1  0  0  0
  1  2  1  0  0  0
  2  3  1  0  0  0
  3  4  1  0  0  0
  4  5  1  0  0  0
  5  6  1  0  0  0
  4  7  1  0  0  0
  7  8  1  0  0  0
  8  9  2  0  0  0
  8 10  1  0  0  0
 10 11  1  0  0  0
 11 12  2  0  0  0
 10 13  1  0  0  0
 13 14  2  0  0  0
 14 15  1  0  0  0
 15 16  2  0  0  0
 16 17  1  0  0  0
 17 18  2  0  0  0
 16 19  1  0  0  0
 19 20  1  0  0  0
 19 21  2  0  0  0
  7 23  1  0  0  0
 23 24  2  0  0  0
 24 25  1  0  0  0
 25 26  2  0  0  0
 26 27  1  0  0  0
 27 28  2  0  0  0
 26 29  1  0  0  0
 29 30  3  0  0  0
 38 33  1  0  0  0
  6  1  1  0  0  0
 18 13  1  0  0  0
 28 23  1  0  0  0
 11  4  1  0  0  0
 20 22  1  0  0  0
M  END
> <minimizedAffinity>
14.36914

> <CNNscore>
0.5909623504

> <CNNaffinity>
7.6238965988

> <CNN_VS>
4.5054359436

> <CNNaffinity_variance>
0.5250989199

$$$$
[H]OC(=O)c1c([H])c([H])c(N2C(=O)N(c3c([H])c([H])c(C#N)c([H])c3[H])C3(C2=O)C([H])([H])C([H])([H])N(C([H])([H])c2nc([H])c([H])c([H])c2C([H])([H])[H])C([H])([H])C3([H])[H])c([H])c1[H]


 38 42  0  0  0  0  0  0  0  0999 V2000
   10.8585   23.6339   -0.4022 N   0  0  0  0  0  0  0  0  0  0  0  0
   11.1735   23.1333   -1.6819 C   0  0  0  0  0  0  0  0  0  0  0  0
   12.6904   22.8877   -1.6761 C   0  0  0  0  0  0  0  0  0  0  0  0
   13.3374   24.2379   -1.6398 C   0  0  0  0  0  0  0  0  0  0  0  0
   12.5326   25.3070   -0.9874 C   0  0  0  0  0  0  0  0  0  0  0  0
   11.5090   24.8166    0.0029 C   0  0  0  0  0  0  0  0  0  0  0  0
   14.7074   24.1958   -1.1649 N   0  0  0  0  0  0  0  0  0  0  0  0
   15.4202   25.1865   -1.9205 C   0  0  0  0  0  0  0  0  0  0  0  0
   16.5195   25.7441   -1.6087 O   0  0  0  0  0  0  0  0  0  0  0  0
   14.7116   25.4770   -3.1119 N   0  0  0  0  0  0  0  0  0  0  0  0
   13.5476   24.6446   -3.0732 C   0  0  0  0  0  0  0  0  0  0  0  0
   12.8449   24.3223   -4.0528 O   0  0  0  0  0  0  0  0  0  0  0  0
   15.0909   26.4029   -4.1219 C   0  0  0  0  0  0  0  0  0  0  0  0
   16.1861   27.2418   -3.8847 C   0  0  0  0  0  0  0  0  0  0  0  0
   16.6067   28.1586   -4.8117 C   0  0  0  0  0  0  0  0  0  0  0  0
   15.9260   28.2513   -6.0113 C   0  0  0  0  0  0  0  0  0  0  0  0
   14.8434   27.4259   -6.2522 C   0  0  0  0  0  0  0  0  0  0  0  0
   14.4371   26.5208   -5.3231 C   0  0  0  0  0  0  0  0  0  0  0  0
   16.3412   29.2068   -7.0129 C   0  0  0  0  0  0  0  0  0  0  0  0
   17.0137   28.7702   -8.1305 O   0  0  0  0  0  0  0  0  0  0  0  0
   16.0902   30.4170   -6.8622 O   0  0  0  0  0  0  0  0  0  0  0  0
   18.0100   28.9824   -8.1923 H   0  0  0  0  0  0  0  0  0  0  0  0
   15.3067   23.3904   -0.1767 C   0  0  0  0  0  0  0  0  0  0  0  0
   14.9207   22.0847    0.0821 C   0  0  0  0  0  0  0  0  0  0  0  0
   15.5279   21.3264    1.0542 C   0  0  0  0  0  0  0  0  0  0  0  0
   16.5460   21.8309    1.8133 C   0  0  0  0  0  0  0  0  0  0  0  0
   16.9523   23.1247    1.5804 C   0  0  0  0  0  0  0  0  0  0  0  0
   16.3328   23.8841    0.5953 C   0  0  0  0  0  0  0  0  0  0  0  0
   17.2029   21.0537    2.8458 C   0  0  0  0  0  0  0  0  0  0  0  0
   17.7188   20.4366    3.6880 N   0  0  0  0  0  0  0  0  0  0  0  0
    9.7281   23.1844    0.2750 C   0  0  0  0  0  0  0  0  0  0  0  0
   11.3650   20.9247    1.0006 C   0  0  0  0  0  0  0  0  0  0  0  0
   10.6677   21.7708    2.0232 C   0  0  0  0  0  0  0  0  0  0  0  0
   10.8750   21.3776    3.3425 C   0  0  0  0  0  0  0  0  0  0  0  0
   10.2530   22.1216    4.3231 C   0  0  0  0  0  0  0  0  0  0  0  0
    9.4658   23.2037    3.9723 C   0  0  0  0  0  0  0  0  0  0  0  0
    9.3041   23.5333    2.6803 N   0  0  0  0  0  0  0  0  0  0  0  0
    9.8828   22.8481    1.6897 C   0  0  0  0  0  0  0  0  0  0  0  0
 32 33  1  0  0  0
 33 34  2  0  0  0
 34 35  1  0  0  0
 35 36  2  0  0  0
 36 37  1  0  0  0
 37 38  2  0  0  0
 38 31  1  0  0  0
 31  1  1  0  0  0
  1  2  1  0  0  0
  2  3  1  0  0  0
  3  4  1  0  0  0
  4  5  1  0  0  0
  5  6  1  0  0  0
  4  7  1  0  0  0
  7  8  1  0  0  0
  8  9  2  0  0  0
  8 10  1  0  0  0
 10 11  1  0  0  0
 11 12  2  0  0  0
 10 13  1  0  0  0
 13 14  2  0  0  0
 14 15  1  0  0  0
 15 16  2  0  0  0
 16 17  1  0  0  0
 17 18  2  0  0  0
 16 19  1  0  0  0
 19 20  1  0  0  0
 19 21  2  0  0  0
  7 23  1  0  0  0
 23 24  2  0  0  0
 24 25  1  0  0  0
 25 26  2  0  0  0
 26 27  1  0  0  0
 27 28  2  0  0  0
 26 29  1  0  0  0
 29 30  3  0  0  0
 38 33  1  0  0  0
  6  1  1  0  0  0
 18 13  1  0  0  0
 28 23  1  0  0  0
 11  4  1  0  0  0
 20 22  1  0  0  0
M  END
> <minimizedAffinity>
14.31983

> <CNNscore>
0.5909359455

> <CNNaffinity>
7.7028288841

> <CNN_VS>
4.5518784523

> <CNNaffinity_variance>
0.5892799497

$$$$
[H]OC(=O)c1c([H])c([H])c(N2C(=O)N(c3c([H])c([H])c(C#N)c([H])c3[H])C3(C2=O)C([H])([H])C([H])([H])N(C([H])([H])c2nc([H])c([H])c([H])c2C([H])([H])[H])C([H])([H])C3([H])[H])c([H])c1[H]


 38 42  0  0  0  0  0  0  0  0999 V2000
   14.3488   25.7850   -1.7025 N   0  0  0  0  0  0  0  0  0  0  0  0
   14.4982   25.7223   -0.3021 C   0  0  0  0  0  0  0  0  0  0  0  0
   13.8130   24.4187    0.1364 C   0  0  0  0  0  0  0  0  0  0  0  0
   12.3436   24.6238   -0.0679 C   0  0  0  0  0  0  0  0  0  0  0  0
   11.9836   25.5855   -1.1458 C   0  0  0  0  0  0  0  0  0  0  0  0
   13.0341   25.7698   -2.2095 C   0  0  0  0  0  0  0  0  0  0  0  0
   11.6056   23.3780   -0.1557 N   0  0  0  0  0  0  0  0  0  0  0  0
   10.3443   23.6177    0.4863 C   0  0  0  0  0  0  0  0  0  0  0  0
    9.2690   22.9564    0.3344 O   0  0  0  0  0  0  0  0  0  0  0  0
   10.4547   24.7347    1.3500 N   0  0  0  0  0  0  0  0  0  0  0  0
   11.8102   25.1776    1.2256 C   0  0  0  0  0  0  0  0  0  0  0  0
   12.4257   25.8907    2.0441 O   0  0  0  0  0  0  0  0  0  0  0  0
    9.4260   25.2862    2.1618 C   0  0  0  0  0  0  0  0  0  0  0  0
    9.7447   26.3452    3.0198 C   0  0  0  0  0  0  0  0  0  0  0  0
    8.8050   26.9241    3.8313 C   0  0  0  0  0  0  0  0  0  0  0  0
    7.5093   26.4438    3.7958 C   0  0  0  0  0  0  0  0  0  0  0  0
    7.1875   25.3981    2.9508 C   0  0  0  0  0  0  0  0  0  0  0  0
    8.1302   24.8332    2.1511 C   0  0  0  0  0  0  0  0  0  0  0  0
    6.4915   27.0300    4.6379 C   0  0  0  0  0  0  0  0  0  0  0  0
    6.2815   28.3888    4.6036 O   0  0  0  0  0  0  0  0  0  0  0  0
    5.8105   26.3066    5.3884 O   0  0  0  0  0  0  0  0  0  0  0  0
    6.5941   28.9331    5.4083 H   0  0  0  0  0  0  0  0  0  0  0  0
   11.9647   22.1428   -0.7296 C   0  0  0  0  0  0  0  0  0  0  0  0
   11.0414   21.2010   -1.1553 C   0  0  0  0  0  0  0  0  0  0  0  0
   11.4269   20.0050   -1.7119 C   0  0  0  0  0  0  0  0  0  0  0  0
   12.7471   19.6904   -1.8707 C   0  0  0  0  0  0  0  0  0  0  0  0
   13.6884   20.6051   -1.4577 C   0  0  0  0  0  0  0  0  0  0  0  0
   13.2896   21.8119   -0.8961 C   0  0  0  0  0  0  0  0  0  0  0  0
   13.1813   18.4361   -2.4534 C   0  0  0  0  0  0  0  0  0  0  0  0
   13.5136   17.4272   -2.9307 N   0  0  0  0  0  0  0  0  0  0  0  0
   15.4107   26.1827   -2.5105 C   0  0  0  0  0  0  0  0  0  0  0  0
   15.4239   23.4955   -3.5552 C   0  0  0  0  0  0  0  0  0  0  0  0
   15.2731   24.6981   -4.4378 C   0  0  0  0  0  0  0  0  0  0  0  0
   15.1409   24.4114   -5.7937 C   0  0  0  0  0  0  0  0  0  0  0  0
   15.0017   25.4835   -6.6501 C   0  0  0  0  0  0  0  0  0  0  0  0
   14.9986   26.7720   -6.1467 C   0  0  0  0  0  0  0  0  0  0  0  0
   15.1305   26.9841   -4.8270 N   0  0  0  0  0  0  0  0  0  0  0  0
   15.2683   25.9834   -3.9521 C   0  0  0  0  0  0  0  0  0  0  0  0
 32 33  1  0  0  0
 33 34  2  0  0  0
 34 35  1  0  0  0
 35 36  2  0  0  0
 36 37  1  0  0  0
 37 38  2  0  0  0
 38 31  1  0  0  0
 31  1  1  0  0  0
  1  2  1  0  0  0
  2  3  1  0  0  0
  3  4  1  0  0  0
  4  5  1  0  0  0
  5  6  1  0  0  0
  4  7  1  0  0  0
  7  8  1  0  0  0
  8  9  2  0  0  0
  8 10  1  0  0  0
 10 11  1  0  0  0
 11 12  2  0  0  0
 10 13  1  0  0  0
 13 14  2  0  0  0
 14 15  1  0  0  0
 15 16  2  0  0  0
 16 17  1  0  0  0
 17 18  2  0  0  0
 16 19  1  0  0  0
 19 20  1  0  0  0
 19 21  2  0  0  0
  7 23  1  0  0  0
 23 24  2  0  0  0
 24 25  1  0  0  0
 25 26  2  0  0  0
 26 27  1  0  0  0
 27 28  2  0  0  0
 26 29  1  0  0  0
 29 30  3  0  0  0
 38 33  1  0  0  0
  6  1  1  0  0  0
 18 13  1  0  0  0
 28 23  1  0  0  0
 11  4  1  0  0  0
 20 22  1  0  0  0
M  END
> <minimizedAffinity>
9.07577

> <CNNscore>
0.5757487416

> <CNNaffinity>
7.5216574669

> <CNN_VS>
4.3305850029

> <CNNaffinity_variance>
0.8787752986

$$$$
[H]OC(=O)c1c([H])c([H])c(N2C(=O)N(c3c([H])c([H])c(C#N)c([H])c3[H])C3(C2=O)C([H])([H])C([H])([H])N(C([H])([H])c2nc([H])c([H])c([H])c2C([H])([H])[H])C([H])([H])C3([H])[H])c([H])c1[H]


 38 42  0  0  0  0  0  0  0  0999 V2000
   12.7557   22.3994    1.1163 N   0  0  0  0  0  0  0  0  0  0  0  0
   13.2245   21.5482    0.0951 C   0  0  0  0  0  0  0  0  0  0  0  0
   14.6959   21.9302   -0.1290 C   0  0  0  0  0  0  0  0  0  0  0  0
   14.6889   23.2896   -0.7574 C   0  0  0  0  0  0  0  0  0  0  0  0
   13.5152   24.1386   -0.4141 C   0  0  0  0  0  0  0  0  0  0  0  0
   12.8346   23.7868    0.8828 C   0  0  0  0  0  0  0  0  0  0  0  0
   15.9516   23.9880   -0.6082 N   0  0  0  0  0  0  0  0  0  0  0  0
   16.1403   24.7309   -1.8219 C   0  0  0  0  0  0  0  0  0  0  0  0
   16.8933   25.7410   -1.9931 O   0  0  0  0  0  0  0  0  0  0  0  0
   15.3454   24.1704   -2.8513 N   0  0  0  0  0  0  0  0  0  0  0  0
   14.6633   23.0672   -2.2455 C   0  0  0  0  0  0  0  0  0  0  0  0
   14.1468   22.1048   -2.8490 O   0  0  0  0  0  0  0  0  0  0  0  0
   15.2559   24.6211   -4.1967 C   0  0  0  0  0  0  0  0  0  0  0  0
   15.8369   23.8421   -5.2043 C   0  0  0  0  0  0  0  0  0  0  0  0
   15.7908   24.2153   -6.5217 C   0  0  0  0  0  0  0  0  0  0  0  0
   15.1511   25.3941   -6.8567 C   0  0  0  0  0  0  0  0  0  0  0  0
   14.5751   26.1682   -5.8667 C   0  0  0  0  0  0  0  0  0  0  0  0
   14.6287   25.7856   -4.5635 C   0  0  0  0  0  0  0  0  0  0  0  0
   15.0826   25.8194   -8.2362 C   0  0  0  0  0  0  0  0  0  0  0  0
   16.2110   25.7641   -9.0207 O   0  0  0  0  0  0  0  0  0  0  0  0
   14.0073   26.2328   -8.7085 O   0  0  0  0  0  0  0  0  0  0  0  0
   16.6594   26.6485   -9.2620 H   0  0  0  0  0  0  0  0  0  0  0  0
   16.8678   23.9990    0.4617 C   0  0  0  0  0  0  0  0  0  0  0  0
   16.8894   23.0367    1.4588 C   0  0  0  0  0  0  0  0  0  0  0  0
   17.7983   23.0776    2.4888 C   0  0  0  0  0  0  0  0  0  0  0  0
   18.7267   24.0765    2.5751 C   0  0  0  0  0  0  0  0  0  0  0  0
   18.7309   25.0472    1.6000 C   0  0  0  0  0  0  0  0  0  0  0  0
   17.8084   24.9979    0.5620 C   0  0  0  0  0  0  0  0  0  0  0  0
   19.6958   24.1444    3.6512 C   0  0  0  0  0  0  0  0  0  0  0  0
   20.4789   24.1810    4.5122 N   0  0  0  0  0  0  0  0  0  0  0  0
   11.9531   21.9019    2.1395 C   0  0  0  0  0  0  0  0  0  0  0  0
    9.9399   20.8193    0.3825 C   0  0  0  0  0  0  0  0  0  0  0  0
    9.6349   21.8880    1.3888 C   0  0  0  0  0  0  0  0  0  0  0  0
    8.3087   22.3109    1.4043 C   0  0  0  0  0  0  0  0  0  0  0  0
    7.9755   23.2954    2.3108 C   0  0  0  0  0  0  0  0  0  0  0  0
    8.9439   23.8153    3.1508 C   0  0  0  0  0  0  0  0  0  0  0  0
   10.2079   23.3656    3.0877 N   0  0  0  0  0  0  0  0  0  0  0  0
   10.5862   22.4138    2.2294 C   0  0  0  0  0  0  0  0  0  0  0  0
 32 33  1  0  0  0
 33 34  2  0  0  0
 34 35  1  0  0  0
 35 36  2  0  0  0
 36 37  1  0  0  0
 37 38  2  0  0  0
 38 31  1  0  0  0
 31  1  1  0  0  0
  1  2  1  0  0  0
  2  3  1  0  0  0
  3  4  1  0  0  0
  4  5  1  0  0  0
  5  6  1  0  0  0
  4  7  1  0  0  0
  7  8  1  0  0  0
  8  9  2  0  0  0
  8 10  1  0  0  0
 10 11  1  0  0  0
 11 12  2  0  0  0
 10 13  1  0  0  0
 13 14  2  0  0  0
 14 15  1  0  0  0
 15 16  2  0  0  0
 16 17  1  0  0  0
 17 18  2  0  0  0
 16 19  1  0  0  0
 19 20  1  0  0  0
 19 21  2  0  0  0
  7 23  1  0  0  0
 23 24  2  0  0  0
 24 25  1  0  0  0
 25 26  2  0  0  0
 26 27  1  0  0  0
 27 28  2  0  0  0
 26 29  1  0  0  0
 29 30  3  0  0  0
 38 33  1  0  0  0
  6  1  1  0  0  0
 18 13  1  0  0  0
 28 23  1  0  0  0
 11  4  1  0  0  0
 20 22  1  0  0  0
M  END
> <minimizedAffinity>
13.52342

> <CNNscore>
0.5718288422

> <CNNaffinity>
7.6688842773

> <CNN_VS>
4.3852891922

> <CNNaffinity_variance>
0.5564393997

$$$$
[H]OC(=O)c1c([H])c([H])c(N2C(=O)N(c3c([H])c([H])c(C#N)c([H])c3[H])C3(C2=O)C([H])([H])C([H])([H])N(C([H])([H])c2nc([H])c([H])c([H])c2C([H])([H])[H])C([H])([H])C3([H])[H])c([H])c1[H]


 38 42  0  0  0  0  0  0  0  0999 V2000
   12.6151   25.6601   -2.3535 N   0  0  0  0  0  0  0  0  0  0  0  0
   12.0494   26.2290   -1.1944 C   0  0  0  0  0  0  0  0  0  0  0  0
   12.8401   25.6483   -0.0115 C   0  0  0  0  0  0  0  0  0  0  0  0
   12.4718   24.1992    0.0727 C   0  0  0  0  0  0  0  0  0  0  0  0
   12.0699   23.5733   -1.2169 C   0  0  0  0  0  0  0  0  0  0  0  0
   12.6077   24.2541   -2.4482 C   0  0  0  0  0  0  0  0  0  0  0  0
   13.4460   23.4096    0.8020 N   0  0  0  0  0  0  0  0  0  0  0  0
   12.6961   22.4198    1.5219 C   0  0  0  0  0  0  0  0  0  0  0  0
   13.1292   21.3187    1.9874 O   0  0  0  0  0  0  0  0  0  0  0  0
   11.3516   22.8447    1.6543 N   0  0  0  0  0  0  0  0  0  0  0  0
   11.2898   24.1166    1.0004 C   0  0  0  0  0  0  0  0  0  0  0  0
   10.4137   24.9879    1.1747 O   0  0  0  0  0  0  0  0  0  0  0  0
   10.2987   22.1433    2.3030 C   0  0  0  0  0  0  0  0  0  0  0  0
    9.1505   21.8281    1.5669 C   0  0  0  0  0  0  0  0  0  0  0  0
    8.0965   21.1556    2.1270 C   0  0  0  0  0  0  0  0  0  0  0  0
    8.1770   20.7816    3.4554 C   0  0  0  0  0  0  0  0  0  0  0  0
    9.3080   21.0897    4.1883 C   0  0  0  0  0  0  0  0  0  0  0  0
   10.3462   21.7575    3.6195 C   0  0  0  0  0  0  0  0  0  0  0  0
    7.0845   20.0709    4.0798 C   0  0  0  0  0  0  0  0  0  0  0  0
    5.8186   20.6078    4.0479 O   0  0  0  0  0  0  0  0  0  0  0  0
    7.2912   18.9794    4.6423 O   0  0  0  0  0  0  0  0  0  0  0  0
    5.4476   20.9888    4.9189 H   0  0  0  0  0  0  0  0  0  0  0  0
   14.8497   23.5141    0.8556 C   0  0  0  0  0  0  0  0  0  0  0  0
   15.6795   22.4705    1.2338 C   0  0  0  0  0  0  0  0  0  0  0  0
   17.0464   22.6069    1.2745 C   0  0  0  0  0  0  0  0  0  0  0  0
   17.6510   23.7863    0.9416 C   0  0  0  0  0  0  0  0  0  0  0  0
   16.8540   24.8417    0.5617 C   0  0  0  0  0  0  0  0  0  0  0  0
   15.4728   24.6948    0.5232 C   0  0  0  0  0  0  0  0  0  0  0  0
   19.0900   23.9578    0.9770 C   0  0  0  0  0  0  0  0  0  0  0  0
   20.2481   24.0788    0.9971 N   0  0  0  0  0  0  0  0  0  0  0  0
   12.8522   26.4407   -3.4817 C   0  0  0  0  0  0  0  0  0  0  0  0
   14.4276   28.5750   -4.6110 C   0  0  0  0  0  0  0  0  0  0  0  0
   14.7626   27.1299   -4.8283 C   0  0  0  0  0  0  0  0  0  0  0  0
   15.8893   26.9059   -5.6146 C   0  0  0  0  0  0  0  0  0  0  0  0
   16.2397   25.5925   -5.8476 C   0  0  0  0  0  0  0  0  0  0  0  0
   15.4806   24.5702   -5.3071 C   0  0  0  0  0  0  0  0  0  0  0  0
   14.4030   24.8508   -4.5559 N   0  0  0  0  0  0  0  0  0  0  0  0
   14.0179   26.1041   -4.2979 C   0  0  0  0  0  0  0  0  0  0  0  0
 32 33  1  0  0  0
 33 34  2  0  0  0
 34 35  1  0  0  0
 35 36  2  0  0  0
 36 37  1  0  0  0
 37 38  2  0  0  0
 38 31  1  0  0  0
 31  1  1  0  0  0
  1  2  1  0  0  0
  2  3  1  0  0  0
  3  4  1  0  0  0
  4  5  1  0  0  0
  5  6  1  0  0  0
  4  7  1  0  0  0
  7  8  1  0  0  0
  8  9  2  0  0  0
  8 10  1  0  0  0
 10 11  1  0  0  0
 11 12  2  0  0  0
 10 13  1  0  0  0
 13 14  2  0  0  0
 14 15  1  0  0  0
 15 16  2  0  0  0
 16 17  1  0  0  0
 17 18  2  0  0  0
 16 19  1  0  0  0
 19 20  1  0  0  0
 19 21  2  0  0  0
  7 23  1  0  0  0
 23 24  2  0  0  0
 24 25  1  0  0  0
 25 26  2  0  0  0
 26 27  1  0  0  0
 27 28  2  0  0  0
 26 29  1  0  0  0
 29 30  3  0  0  0
 38 33  1  0  0  0
  6  1  1  0  0  0
 18 13  1  0  0  0
 28 23  1  0  0  0
 11  4  1  0  0  0
 20 22  1  0  0  0
M  END
> <minimizedAffinity>
3.64084

> <CNNscore>
0.5553492308

> <CNNaffinity>
7.6968932152

> <CNN_VS>
4.2744636536

> <CNNaffinity_variance>
0.8131980896

$$$$
[H]OC(=O)c1c([H])c([H])c(N2C(=O)N(c3c([H])c([H])c(C#N)c([H])c3[H])C3(C2=O)C([H])([H])C([H])([H])N(C([H])([H])c2nc([H])c([H])c([H])c2C([H])([H])[H])C([H])([H])C3([H])[H])c([H])c1[H]


 38 42  0  0  0  0  0  0  0  0999 V2000
   12.7958   24.2033   -1.3074 N   0  0  0  0  0  0  0  0  0  0  0  0
   13.4050   23.6206   -2.4373 C   0  0  0  0  0  0  0  0  0  0  0  0
   14.9108   23.8887   -2.2889 C   0  0  0  0  0  0  0  0  0  0  0  0
   15.0997   25.3611   -2.4873 C   0  0  0  0  0  0  0  0  0  0  0  0
   13.9304   26.2041   -2.1157 C   0  0  0  0  0  0  0  0  0  0  0  0
   12.9944   25.5845   -1.1112 C   0  0  0  0  0  0  0  0  0  0  0  0
   16.3465   25.8512   -1.9307 N   0  0  0  0  0  0  0  0  0  0  0  0
   16.8060   26.8746   -2.8263 C   0  0  0  0  0  0  0  0  0  0  0  0
   17.6323   27.8055   -2.5671 O   0  0  0  0  0  0  0  0  0  0  0  0
   16.1947   26.7080   -4.0929 N   0  0  0  0  0  0  0  0  0  0  0  0
   15.3490   25.5609   -3.9578 C   0  0  0  0  0  0  0  0  0  0  0  0
   14.9063   24.8632   -4.8929 O   0  0  0  0  0  0  0  0  0  0  0  0
   16.3910   27.5185   -5.2444 C   0  0  0  0  0  0  0  0  0  0  0  0
   15.2691   28.0664   -5.8772 C   0  0  0  0  0  0  0  0  0  0  0  0
   15.3827   28.8552   -6.9916 C   0  0  0  0  0  0  0  0  0  0  0  0
   16.6429   29.1122   -7.4984 C   0  0  0  0  0  0  0  0  0  0  0  0
   17.7553   28.5743   -6.8783 C   0  0  0  0  0  0  0  0  0  0  0  0
   17.6275   27.7933   -5.7733 C   0  0  0  0  0  0  0  0  0  0  0  0
   16.8014   29.9400   -8.6723 C   0  0  0  0  0  0  0  0  0  0  0  0
   16.2574   31.2032   -8.6910 O   0  0  0  0  0  0  0  0  0  0  0  0
   17.4270   29.5095   -9.6590 O   0  0  0  0  0  0  0  0  0  0  0  0
   15.4340   31.3517   -9.2753 H   0  0  0  0  0  0  0  0  0  0  0  0
   17.0386   25.4685   -0.7651 C   0  0  0  0  0  0  0  0  0  0  0  0
   16.7660   25.9881    0.4905 C   0  0  0  0  0  0  0  0  0  0  0  0
   17.4610   25.5916    1.6078 C   0  0  0  0  0  0  0  0  0  0  0  0
   18.4586   24.6611    1.5284 C   0  0  0  0  0  0  0  0  0  0  0  0
   18.7531   24.1262    0.2954 C   0  0  0  0  0  0  0  0  0  0  0  0
   18.0451   24.5328   -0.8290 C   0  0  0  0  0  0  0  0  0  0  0  0
   19.2082   24.2259    2.6904 C   0  0  0  0  0  0  0  0  0  0  0  0
   19.8264   23.8781    3.6139 N   0  0  0  0  0  0  0  0  0  0  0  0
   11.7850   23.5330   -0.6237 C   0  0  0  0  0  0  0  0  0  0  0  0
    9.7426   21.7749    0.4011 C   0  0  0  0  0  0  0  0  0  0  0  0
   11.1975   21.5759    0.7039 C   0  0  0  0  0  0  0  0  0  0  0  0
   11.4781   20.4797    1.5148 C   0  0  0  0  0  0  0  0  0  0  0  0
   12.8025   20.2533    1.8260 C   0  0  0  0  0  0  0  0  0  0  0  0
   13.7803   21.1000    1.3355 C   0  0  0  0  0  0  0  0  0  0  0  0
   13.4459   22.1423    0.5571 N   0  0  0  0  0  0  0  0  0  0  0  0
   12.1795   22.4085    0.2238 C   0  0  0  0  0  0  0  0  0  0  0  0
 32 33  1  0  0  0
 33 34  2  0  0  0
 34 35  1  0  0  0
 35 36  2  0  0  0
 36 37  1  0  0  0
 37 38  2  0  0  0
 38 31  1  0  0  0
 31  1  1  0  0  0
  1  2  1  0  0  0
  2  3  1  0  0  0
  3  4  1  0  0  0
  4  5  1  0  0  0
  5  6  1  0  0  0
  4  7  1  0  0  0
  7  8  1  0  0  0
  8  9  2  0  0  0
  8 10  1  0  0  0
 10 11  1  0  0  0
 11 12  2  0  0  0
 10 13  1  0  0  0
 13 14  2  0  0  0
 14 15  1  0  0  0
 15 16  2  0  0  0
 16 17  1  0  0  0
 17 18  2  0  0  0
 16 19  1  0  0  0
 19 20  1  0  0  0
 19 21  2  0  0  0
  7 23  1  0  0  0
 23 24  2  0  0  0
 24 25  1  0  0  0
 25 26  2  0  0  0
 26 27  1  0  0  0
 27 28  2  0  0  0
 26 29  1  0  0  0
 29 30  3  0  0  0
 38 33  1  0  0  0
  6  1  1  0  0  0
 18 13  1  0  0  0
 28 23  1  0  0  0
 11  4  1  0  0  0
 20 22  1  0  0  0
M  END
> <minimizedAffinity>
36.08704

> <CNNscore>
0.5299908519

> <CNNaffinity>
7.5531454086

> <CNN_VS>
4.0030980110

> <CNNaffinity_variance>
0.5714157820

$$$$
[H]OC(=O)c1c([H])c([H])c(N2C(=O)N(c3c([H])c([H])c(C#N)c([H])c3[H])C3(C2=O)C([H])([H])C([H])([H])N(C([H])([H])c2nc([H])c([H])c([H])c2C([H])([H])[H])C([H])([H])C3([H])[H])c([H])c1[H]


 38 42  0  0  0  0  0  0  0  0999 V2000
   13.3968   25.2310   -2.6725 N   0  0  0  0  0  0  0  0  0  0  0  0
   13.6357   25.9115   -1.4613 C   0  0  0  0  0  0  0  0  0  0  0  0
   13.7795   24.8217   -0.3875 C   0  0  0  0  0  0  0  0  0  0  0  0
   12.4192   24.2210   -0.2098 C   0  0  0  0  0  0  0  0  0  0  0  0
   11.5404   24.2802   -1.4100 C   0  0  0  0  0  0  0  0  0  0  0  0
   12.2675   24.3897   -2.7247 C   0  0  0  0  0  0  0  0  0  0  0  0
   12.4577   22.9030    0.3951 N   0  0  0  0  0  0  0  0  0  0  0  0
   11.3024   22.8214    1.2431 C   0  0  0  0  0  0  0  0  0  0  0  0
   10.7404   21.7651    1.6733 O   0  0  0  0  0  0  0  0  0  0  0  0
   10.8474   24.1260    1.5542 N   0  0  0  0  0  0  0  0  0  0  0  0
   11.7467   25.0121    0.8794 C   0  0  0  0  0  0  0  0  0  0  0  0
   11.9311   26.2158    1.1521 O   0  0  0  0  0  0  0  0  0  0  0  0
    9.7312   24.4655    2.3667 C   0  0  0  0  0  0  0  0  0  0  0  0
    8.6553   25.1409    1.7788 C   0  0  0  0  0  0  0  0  0  0  0  0
    7.5481   25.5008    2.5008 C   0  0  0  0  0  0  0  0  0  0  0  0
    7.4997   25.1845    3.8457 C   0  0  0  0  0  0  0  0  0  0  0  0
    8.5588   24.5175    4.4327 C   0  0  0  0  0  0  0  0  0  0  0  0
    9.6512   24.1667    3.7040 C   0  0  0  0  0  0  0  0  0  0  0  0
    6.3478   25.5482    4.6389 C   0  0  0  0  0  0  0  0  0  0  0  0
    5.8137   26.8103    4.5218 O   0  0  0  0  0  0  0  0  0  0  0  0
    5.8441   24.7219    5.4224 O   0  0  0  0  0  0  0  0  0  0  0  0
    5.9627   27.4575    5.2967 H   0  0  0  0  0  0  0  0  0  0  0  0
   13.3883   21.8563    0.2443 C   0  0  0  0  0  0  0  0  0  0  0  0
   13.2949   20.8874   -0.7422 C   0  0  0  0  0  0  0  0  0  0  0  0
   14.2216   19.8795   -0.8611 C   0  0  0  0  0  0  0  0  0  0  0  0
   15.2829   19.7884   -0.0052 C   0  0  0  0  0  0  0  0  0  0  0  0
   15.4035   20.7358    0.9853 C   0  0  0  0  0  0  0  0  0  0  0  0
   14.4619   21.7515    1.0980 C   0  0  0  0  0  0  0  0  0  0  0  0
   16.2740   18.7353   -0.1072 C   0  0  0  0  0  0  0  0  0  0  0  0
   17.0678   17.8857   -0.1707 N   0  0  0  0  0  0  0  0  0  0  0  0
   14.0339   25.6282   -3.8451 C   0  0  0  0  0  0  0  0  0  0  0  0
   14.8556   27.3166   -6.0328 C   0  0  0  0  0  0  0  0  0  0  0  0
   15.6386   27.2185   -4.7580 C   0  0  0  0  0  0  0  0  0  0  0  0
   16.7868   28.0046   -4.7188 C   0  0  0  0  0  0  0  0  0  0  0  0
   17.5453   27.9489   -3.5683 C   0  0  0  0  0  0  0  0  0  0  0  0
   17.1505   27.1358   -2.5211 C   0  0  0  0  0  0  0  0  0  0  0  0
   16.0312   26.3998   -2.6195 N   0  0  0  0  0  0  0  0  0  0  0  0
   15.2588   26.4153   -3.7098 C   0  0  0  0  0  0  0  0  0  0  0  0
 32 33  1  0  0  0
 33 34  2  0  0  0
 34 35  1  0  0  0
 35 36  2  0  0  0
 36 37  1  0  0  0
 37 38  2  0  0  0
 38 31  1  0  0  0
 31  1  1  0  0  0
  1  2  1  0  0  0
  2  3  1  0  0  0
  3  4  1  0  0  0
  4  5  1  0  0  0
  5  6  1  0  0  0
  4  7  1  0  0  0
  7  8  1  0  0  0
  8  9  2  0  0  0
  8 10  1  0  0  0
 10 11  1  0  0  0
 11 12  2  0  0  0
 10 13  1  0  0  0
 13 14  2  0  0  0
 14 15  1  0  0  0
 15 16  2  0  0  0
 16 17  1  0  0  0
 17 18  2  0  0  0
 16 19  1  0  0  0
 19 20  1  0  0  0
 19 21  2  0  0  0
  7 23  1  0  0  0
 23 24  2  0  0  0
 24 25  1  0  0  0
 25 26  2  0  0  0
 26 27  1  0  0  0
 27 28  2  0  0  0
 26 29  1  0  0  0
 29 30  3  0  0  0
 38 33  1  0  0  0
  6  1  1  0  0  0
 18 13  1  0  0  0
 28 23  1  0  0  0
 11  4  1  0  0  0
 20 22  1  0  0  0
M  END
> <minimizedAffinity>
3.05503

> <CNNscore>
0.5247534513

> <CNNaffinity>
7.4931006432

> <CNN_VS>
3.9320304394

> <CNNaffinity_variance>
0.4762468338

$$$$
[H]OC(=O)c1c([H])c([H])c(N2C(=O)N(c3c([H])c([H])c(C#N)c([H])c3[H])C3(C2=O)C([H])([H])C([H])([H])N(C([H])([H])c2nc([H])c([H])c([H])c2C([H])([H])[H])C([H])([H])C3([H])[H])c([H])c1[H]


 38 42  0  0  0  0  0  0  0  0999 V2000
   14.5639   24.0976   -3.9639 N   0  0  0  0  0  0  0  0  0  0  0  0
   13.6069   24.9783   -3.4202 C   0  0  0  0  0  0  0  0  0  0  0  0
   13.8124   24.9356   -1.8979 C   0  0  0  0  0  0  0  0  0  0  0  0
   13.3621   23.5800   -1.4482 C   0  0  0  0  0  0  0  0  0  0  0  0
   13.4876   22.5021   -2.4673 C   0  0  0  0  0  0  0  0  0  0  0  0
   14.5180   22.7556   -3.5364 C   0  0  0  0  0  0  0  0  0  0  0  0
   13.9085   23.2017   -0.1587 N   0  0  0  0  0  0  0  0  0  0  0  0
   12.8765   22.4588    0.5073 C   0  0  0  0  0  0  0  0  0  0  0  0
   13.0201   21.6427    1.4717 O   0  0  0  0  0  0  0  0  0  0  0  0
   11.6208   22.7644   -0.0721 N   0  0  0  0  0  0  0  0  0  0  0  0
   11.9019   23.7105   -1.1089 C   0  0  0  0  0  0  0  0  0  0  0  0
   11.0807   24.4936   -1.6281 O   0  0  0  0  0  0  0  0  0  0  0  0
   10.3578   22.2339    0.3082 C   0  0  0  0  0  0  0  0  0  0  0  0
    9.7352   22.7424    1.4542 C   0  0  0  0  0  0  0  0  0  0  0  0
    8.5190   22.2778    1.8809 C   0  0  0  0  0  0  0  0  0  0  0  0
    7.8964   21.2801    1.1543 C   0  0  0  0  0  0  0  0  0  0  0  0
    8.5056   20.7734    0.0215 C   0  0  0  0  0  0  0  0  0  0  0  0
    9.7126   21.2438   -0.3901 C   0  0  0  0  0  0  0  0  0  0  0  0
    6.6129   20.7656    1.5743 C   0  0  0  0  0  0  0  0  0  0  0  0
    6.2832   19.4583    1.3018 O   0  0  0  0  0  0  0  0  0  0  0  0
    5.8128   21.5036    2.1789 O   0  0  0  0  0  0  0  0  0  0  0  0
    5.5845   19.2912    0.5770 H   0  0  0  0  0  0  0  0  0  0  0  0
   15.1716   23.4602    0.4089 C   0  0  0  0  0  0  0  0  0  0  0  0
   15.9400   22.4920    1.0357 C   0  0  0  0  0  0  0  0  0  0  0  0
   17.1694   22.7789    1.5787 C   0  0  0  0  0  0  0  0  0  0  0  0
   17.6911   24.0407    1.5238 C   0  0  0  0  0  0  0  0  0  0  0  0
   16.9521   25.0244    0.9078 C   0  0  0  0  0  0  0  0  0  0  0  0
   15.7100   24.7253    0.3613 C   0  0  0  0  0  0  0  0  0  0  0  0
   18.9844   24.3710    2.0893 C   0  0  0  0  0  0  0  0  0  0  0  0
   20.0161   24.6526    2.5503 N   0  0  0  0  0  0  0  0  0  0  0  0
   15.2837   24.4498   -5.1025 C   0  0  0  0  0  0  0  0  0  0  0  0
   15.3473   25.5672   -7.7594 C   0  0  0  0  0  0  0  0  0  0  0  0
   15.6532   26.3828   -6.5392 C   0  0  0  0  0  0  0  0  0  0  0  0
   15.9680   27.7148   -6.7939 C   0  0  0  0  0  0  0  0  0  0  0  0
   16.2606   28.5087   -5.7048 C   0  0  0  0  0  0  0  0  0  0  0  0
   16.2322   27.9695   -4.4311 C   0  0  0  0  0  0  0  0  0  0  0  0
   15.9210   26.6755   -4.2500 N   0  0  0  0  0  0  0  0  0  0  0  0
   15.6291   25.8610   -5.2683 C   0  0  0  0  0  0  0  0  0  0  0  0
 32 33  1  0  0  0
 33 34  2  0  0  0
 34 35  1  0  0  0
 35 36  2  0  0  0
 36 37  1  0  0  0
 37 38  2  0  0  0
 38 31  1  0  0  0
 31  1  1  0  0  0
  1  2  1  0  0  0
  2  3  1  0  0  0
  3  4  1  0  0  0
  4  5  1  0  0  0
  5  6  1  0  0  0
  4  7  1  0  0  0
  7  8  1  0  0  0
  8  9  2  0  0  0
  8 10  1  0  0  0
 10 11  1  0  0  0
 11 12  2  0  0  0
 10 13  1  0  0  0
 13 14  2  0  0  0
 14 15  1  0  0  0
 15 16  2  0  0  0
 16 17  1  0  0  0
 17 18  2  0  0  0
 16 19  1  0  0  0
 19 20  1  0  0  0
 19 21  2  0  0  0
  7 23  1  0  0  0
 23 24  2  0  0  0
 24 25  1  0  0  0
 25 26  2  0  0  0
 26 27  1  0  0  0
 27 28  2  0  0  0
 26 29  1  0  0  0
 29 30  3  0  0  0
 38 33  1  0  0  0
  6  1  1  0  0  0
 18 13  1  0  0  0
 28 23  1  0  0  0
 11  4  1  0  0  0
 20 22  1  0  0  0
M  END
> <minimizedAffinity>
-1.15705

> <CNNscore>
0.5242483020

> <CNNaffinity>
7.9820547104

> <CNN_VS>
4.1845784187

> <CNNaffinity_variance>
0.7172176242

$$$$
[H]c1nc([H])c(N2C(=O)N(c3c([H])c([H])c(-c4c([H])c([H])c([H])c([H])c4[H])c([H])c3[H])C(=O)C23C([H])([H])C([H])([H])N(C([H])([H])c2nc([H])c([H])c([H])c2C([H])([H])[H])C([H])([H])C3([H])[H])nc1[H]


 38 43  0  0  0  0  0  0  0  0999 V2000
   12.4249   21.1597    2.2708 N   0  0  0  0  0  0  0  0  0  0  0  0
   11.6634   21.9174    3.0885 C   0  0  0  0  0  0  0  0  0  0  0  0
   11.8801   23.4429    2.7741 C   0  0  0  0  0  0  0  0  0  0  0  0
   11.4634   23.7221    1.3818 C   0  0  0  0  0  0  0  0  0  0  0  0
   11.2617   22.4386    0.5600 C   0  0  0  0  0  0  0  0  0  0  0  0
   12.3783   21.4701    0.8410 C   0  0  0  0  0  0  0  0  0  0  0  0
   10.4270   24.6130    1.1943 N   0  0  0  0  0  0  0  0  0  0  0  0
   10.5103   24.9458   -0.2459 C   0  0  0  0  0  0  0  0  0  0  0  0
    9.5252   25.2282   -0.9620 O   0  0  0  0  0  0  0  0  0  0  0  0
   11.9064   24.8603   -0.5911 N   0  0  0  0  0  0  0  0  0  0  0  0
   12.5669   24.4694    0.5826 C   0  0  0  0  0  0  0  0  0  0  0  0
   13.7490   24.6540    0.9307 O   0  0  0  0  0  0  0  0  0  0  0  0
   12.3989   25.1948   -1.9065 C   0  0  0  0  0  0  0  0  0  0  0  0
   13.5240   24.4430   -2.3110 C   0  0  0  0  0  0  0  0  0  0  0  0
   14.2404   24.7387   -3.4506 C   0  0  0  0  0  0  0  0  0  0  0  0
   13.7803   25.8261   -4.1655 C   0  0  0  0  0  0  0  0  0  0  0  0
   12.6950   26.5417   -3.8257 C   0  0  0  0  0  0  0  0  0  0  0  0
   11.9704   26.2191   -2.6498 C   0  0  0  0  0  0  0  0  0  0  0  0
   14.7051   26.2968   -5.2388 C   0  0  0  0  0  0  0  0  0  0  0  0
   15.1120   25.5614   -6.2920 C   0  0  0  0  0  0  0  0  0  0  0  0
   16.1221   26.0612   -7.1135 C   0  0  0  0  0  0  0  0  0  0  0  0
   16.6941   27.2675   -6.8706 C   0  0  0  0  0  0  0  0  0  0  0  0
   16.2518   28.0188   -5.7782 C   0  0  0  0  0  0  0  0  0  0  0  0
   15.2662   27.5153   -4.9797 C   0  0  0  0  0  0  0  0  0  0  0  0
    9.4135   25.3590    1.8976 C   0  0  0  0  0  0  0  0  0  0  0  0
    8.1118   24.9136    1.8860 C   0  0  0  0  0  0  0  0  0  0  0  0
    7.1357   25.4452    2.7017 N   0  0  0  0  0  0  0  0  0  0  0  0
    7.5270   26.4217    3.5227 C   0  0  0  0  0  0  0  0  0  0  0  0
    8.7949   26.9020    3.5573 C   0  0  0  0  0  0  0  0  0  0  0  0
    9.7424   26.3591    2.7277 N   0  0  0  0  0  0  0  0  0  0  0  0
   12.7972   19.8721    2.4228 C   0  0  0  0  0  0  0  0  0  0  0  0
   10.0003   19.8499    2.5111 C   0  0  0  0  0  0  0  0  0  0  0  0
   10.7860   19.0928    3.5652 C   0  0  0  0  0  0  0  0  0  0  0  0
   10.1053   18.4841    4.5800 C   0  0  0  0  0  0  0  0  0  0  0  0
   10.8426   17.6216    5.4243 C   0  0  0  0  0  0  0  0  0  0  0  0
   12.2077   17.4422    5.1987 C   0  0  0  0  0  0  0  0  0  0  0  0
   12.7539   18.1185    4.1771 N   0  0  0  0  0  0  0  0  0  0  0  0
   12.1440   18.9285    3.3453 C   0  0  0  0  0  0  0  0  0  0  0  0
 32 33  1  0  0  0
 33 34  2  0  0  0
 34 35  1  0  0  0
 35 36  2  0  0  0
 36 37  1  0  0  0
 37 38  2  0  0  0
 38 31  1  0  0  0
 31  1  1  0  0  0
  1  2  1  0  0  0
  2  3  1  0  0  0
  3  4  1  0  0  0
  4  5  1  0  0  0
  5  6  1  0  0  0
  4  7  1  0  0  0
  7  8  1  0  0  0
  8  9  2  0  0  0
  8 10  1  0  0  0
 10 11  1  0  0  0
 11 12  2  0  0  0
 10 13  1  0  0  0
 13 14  2  0  0  0
 14 15  1  0  0  0
 15 16  2  0  0  0
 16 17  1  0  0  0
 17 18  2  0  0  0
 16 19  1  0  0  0
 19 20  2  0  0  0
 20 21  1  0  0  0
 21 22  2  0  0  0
 22 23  1  0  0  0
 23 24  2  0  0  0
  7 25  1  0  0  0
 25 26  2  0  0  0
 26 27  1  0  0  0
 27 28  2  0  0  0
 28 29  1  0  0  0
 29 30  2  0  0  0
 38 33  1  0  0  0
  6  1  1  0  0  0
 18 13  1  0  0  0
 24 19  1  0  0  0
 30 25  1  0  0  0
 11  4  1  0  0  0
M  END
> <minimizedAffinity>
14.35254

> <CNNscore>
0.6221234798

> <CNNaffinity>
7.4181261063

> <CNN_VS>
4.6149902344

> <CNNaffinity_variance>
0.9230468869

$$$$
[H]c1nc([H])c(N2C(=O)N(c3c([H])c([H])c(-c4c([H])c([H])c([H])c([H])c4[H])c([H])c3[H])C(=O)C23C([H])([H])C([H])([H])N(C([H])([H])c2nc([H])c([H])c([H])c2C([H])([H])[H])C([H])([H])C3([H])[H])nc1[H]


 38 43  0  0  0  0  0  0  0  0999 V2000
   12.9967   22.0777    0.2239 N   0  0  0  0  0  0  0  0  0  0  0  0
   14.1307   21.7340    0.8709 C   0  0  0  0  0  0  0  0  0  0  0  0
   15.3764   21.9485   -0.0645 C   0  0  0  0  0  0  0  0  0  0  0  0
   15.4791   23.3797   -0.4265 C   0  0  0  0  0  0  0  0  0  0  0  0
   14.2049   24.1667   -0.0794 C   0  0  0  0  0  0  0  0  0  0  0  0
   12.9893   23.3688   -0.4660 C   0  0  0  0  0  0  0  0  0  0  0  0
   16.6158   24.0555   -0.0336 N   0  0  0  0  0  0  0  0  0  0  0  0
   16.5807   25.2952   -0.8422 C   0  0  0  0  0  0  0  0  0  0  0  0
   17.0316   26.3974   -0.4619 O   0  0  0  0  0  0  0  0  0  0  0  0
   15.9366   24.9407   -2.0812 N   0  0  0  0  0  0  0  0  0  0  0  0
   15.5995   23.5848   -1.9622 C   0  0  0  0  0  0  0  0  0  0  0  0
   15.4256   22.7263   -2.8484 O   0  0  0  0  0  0  0  0  0  0  0  0
   15.7856   25.8779   -3.1691 C   0  0  0  0  0  0  0  0  0  0  0  0
   16.8885   26.7426   -3.3444 C   0  0  0  0  0  0  0  0  0  0  0  0
   16.8571   27.8153   -4.2090 C   0  0  0  0  0  0  0  0  0  0  0  0
   15.6674   27.9854   -4.8881 C   0  0  0  0  0  0  0  0  0  0  0  0
   14.6119   27.1626   -4.7682 C   0  0  0  0  0  0  0  0  0  0  0  0
   14.6658   26.0627   -3.8742 C   0  0  0  0  0  0  0  0  0  0  0  0
   15.5494   29.2850   -5.6131 C   0  0  0  0  0  0  0  0  0  0  0  0
   14.6055   30.2191   -5.3856 C   0  0  0  0  0  0  0  0  0  0  0  0
   14.5001   31.2988   -6.2621 C   0  0  0  0  0  0  0  0  0  0  0  0
   15.3285   31.4217   -7.3298 C   0  0  0  0  0  0  0  0  0  0  0  0
   16.3068   30.4466   -7.5433 C   0  0  0  0  0  0  0  0  0  0  0  0
   16.3954   29.3929   -6.6806 C   0  0  0  0  0  0  0  0  0  0  0  0
   17.8034   23.9310    0.7741 C   0  0  0  0  0  0  0  0  0  0  0  0
   19.0401   24.0848    0.1914 C   0  0  0  0  0  0  0  0  0  0  0  0
   20.2014   24.1929    0.9265 N   0  0  0  0  0  0  0  0  0  0  0  0
   20.0605   24.1503    2.2529 C   0  0  0  0  0  0  0  0  0  0  0  0
   18.8639   23.9852    2.8695 C   0  0  0  0  0  0  0  0  0  0  0  0
   17.7268   23.8718    2.1113 N   0  0  0  0  0  0  0  0  0  0  0  0
   11.7252   21.7355    0.5168 C   0  0  0  0  0  0  0  0  0  0  0  0
   10.6149   23.9156   -0.8415 C   0  0  0  0  0  0  0  0  0  0  0  0
   10.4380   23.8042    0.6611 C   0  0  0  0  0  0  0  0  0  0  0  0
    9.8074   24.8170    1.3246 C   0  0  0  0  0  0  0  0  0  0  0  0
    9.4780   24.5917    2.6815 C   0  0  0  0  0  0  0  0  0  0  0  0
    9.8152   23.3759    3.2770 C   0  0  0  0  0  0  0  0  0  0  0  0
   10.4523   22.4756    2.5133 N   0  0  0  0  0  0  0  0  0  0  0  0
   10.7871   22.6004    1.2515 C   0  0  0  0  0  0  0  0  0  0  0  0
 32 33  1  0  0  0
 33 34  2  0  0  0
 34 35  1  0  0  0
 35 36  2  0  0  0
 36 37  1  0  0  0
 37 38  2  0  0  0
 38 31  1  0  0  0
 31  1  1  0  0  0
  1  2  1  0  0  0
  2  3  1  0  0  0
  3  4  1  0  0  0
  4  5  1  0  0  0
  5  6  1  0  0  0
  4  7  1  0  0  0
  7  8  1  0  0  0
  8  9  2  0  0  0
  8 10  1  0  0  0
 10 11  1  0  0  0
 11 12  2  0  0  0
 10 13  1  0  0  0
 13 14  2  0  0  0
 14 15  1  0  0  0
 15 16  2  0  0  0
 16 17  1  0  0  0
 17 18  2  0  0  0
 16 19  1  0  0  0
 19 20  2  0  0  0
 20 21  1  0  0  0
 21 22  2  0  0  0
 22 23  1  0  0  0
 23 24  2  0  0  0
  7 25  1  0  0  0
 25 26  2  0  0  0
 26 27  1  0  0  0
 27 28  2  0  0  0
 28 29  1  0  0  0
 29 30  2  0  0  0
 38 33  1  0  0  0
  6  1  1  0  0  0
 18 13  1  0  0  0
 24 19  1  0  0  0
 30 25  1  0  0  0
 11  4  1  0  0  0
M  END
> <minimizedAffinity>
27.28106

> <CNNscore>
0.6159391403

> <CNNaffinity>
7.9766249657

> <CNN_VS>
4.9131155014

> <CNNaffinity_variance>
0.6016257405

$$$$
[H]c1nc([H])c(N2C(=O)N(c3c([H])c([H])c(-c4c([H])c([H])c([H])c([H])c4[H])c([H])c3[H])C(=O)C23C([H])([H])C([H])([H])N(C([H])([H])c2nc([H])c([H])c([H])c2C([H])([H])[H])C([H])([H])C3([H])[H])nc1[H]


 38 43  0  0  0  0  0  0  0  0999 V2000
    9.8263   22.8769    0.5434 N   0  0  0  0  0  0  0  0  0  0  0  0
   10.5577   21.8233    0.9651 C   0  0  0  0  0  0  0  0  0  0  0  0
   11.7116   21.5182   -0.0587 C   0  0  0  0  0  0  0  0  0  0  0  0
   12.6138   22.6880   -0.1460 C   0  0  0  0  0  0  0  0  0  0  0  0
   12.0112   23.9447    0.5030 C   0  0  0  0  0  0  0  0  0  0  0  0
   10.5608   24.0715    0.1234 C   0  0  0  0  0  0  0  0  0  0  0  0
   13.9296   22.5060    0.2258 N   0  0  0  0  0  0  0  0  0  0  0  0
   14.6132   23.7022   -0.3161 C   0  0  0  0  0  0  0  0  0  0  0  0
   15.6082   24.2448    0.2116 O   0  0  0  0  0  0  0  0  0  0  0  0
   13.8921   24.0622   -1.5103 N   0  0  0  0  0  0  0  0  0  0  0  0
   12.8421   23.1388   -1.6156 C   0  0  0  0  0  0  0  0  0  0  0  0
   12.2179   22.7536   -2.6228 O   0  0  0  0  0  0  0  0  0  0  0  0
   14.3105   25.1455   -2.3683 C   0  0  0  0  0  0  0  0  0  0  0  0
   13.3915   25.4584   -3.3941 C   0  0  0  0  0  0  0  0  0  0  0  0
   13.6917   26.3357   -4.4137 C   0  0  0  0  0  0  0  0  0  0  0  0
   14.9578   26.8830   -4.3614 C   0  0  0  0  0  0  0  0  0  0  0  0
   15.8432   26.6312   -3.3826 C   0  0  0  0  0  0  0  0  0  0  0  0
   15.5133   25.7267   -2.3410 C   0  0  0  0  0  0  0  0  0  0  0  0
   15.3659   27.6166   -5.5959 C   0  0  0  0  0  0  0  0  0  0  0  0
   15.6468   27.0445   -6.7830 C   0  0  0  0  0  0  0  0  0  0  0  0
   16.1965   27.8292   -7.7965 C   0  0  0  0  0  0  0  0  0  0  0  0
   16.4481   29.1490   -7.6063 C   0  0  0  0  0  0  0  0  0  0  0  0
   16.1414   29.7254   -6.3705 C   0  0  0  0  0  0  0  0  0  0  0  0
   15.6086   28.9447   -5.3861 C   0  0  0  0  0  0  0  0  0  0  0  0
   14.8285   21.5608    0.8398 C   0  0  0  0  0  0  0  0  0  0  0  0
   14.6966   20.2197    0.5627 C   0  0  0  0  0  0  0  0  0  0  0  0
   15.6398   19.2859    0.9360 N   0  0  0  0  0  0  0  0  0  0  0  0
   16.7083   19.7588    1.5806 C   0  0  0  0  0  0  0  0  0  0  0  0
   16.8726   21.0695    1.8878 C   0  0  0  0  0  0  0  0  0  0  0  0
   15.9131   21.9739    1.5110 N   0  0  0  0  0  0  0  0  0  0  0  0
    8.5837   23.2423    0.9202 C   0  0  0  0  0  0  0  0  0  0  0  0
    7.0940   21.0267    0.0821 C   0  0  0  0  0  0  0  0  0  0  0  0
    6.8664   21.5972    1.4693 C   0  0  0  0  0  0  0  0  0  0  0  0
    5.8795   21.0612    2.2456 C   0  0  0  0  0  0  0  0  0  0  0  0
    5.8280   21.4728    3.5978 C   0  0  0  0  0  0  0  0  0  0  0  0
    6.7589   22.3990    4.0693 C   0  0  0  0  0  0  0  0  0  0  0  0
    7.6627   22.8602    3.1918 N   0  0  0  0  0  0  0  0  0  0  0  0
    7.7846   22.5273    1.9292 C   0  0  0  0  0  0  0  0  0  0  0  0
 32 33  1  0  0  0
 33 34  2  0  0  0
 34 35  1  0  0  0
 35 36  2  0  0  0
 36 37  1  0  0  0
 37 38  2  0  0  0
 38 31  1  0  0  0
 31  1  1  0  0  0
  1  2  1  0  0  0
  2  3  1  0  0  0
  3  4  1  0  0  0
  4  5  1  0  0  0
  5  6  1  0  0  0
  4  7  1  0  0  0
  7  8  1  0  0  0
  8  9  2  0  0  0
  8 10  1  0  0  0
 10 11  1  0  0  0
 11 12  2  0  0  0
 10 13  1  0  0  0
 13 14  2  0  0  0
 14 15  1  0  0  0
 15 16  2  0  0  0
 16 17  1  0  0  0
 17 18  2  0  0  0
 16 19  1  0  0  0
 19 20  2  0  0  0
 20 21  1  0  0  0
 21 22  2  0  0  0
 22 23  1  0  0  0
 23 24  2  0  0  0
  7 25  1  0  0  0
 25 26  2  0  0  0
 26 27  1  0  0  0
 27 28  2  0  0  0
 28 29  1  0  0  0
 29 30  2  0  0  0
 38 33  1  0  0  0
  6  1  1  0  0  0
 18 13  1  0  0  0
 24 19  1  0  0  0
 30 25  1  0  0  0
 11  4  1  0  0  0
M  END
> <minimizedAffinity>
8.52060

> <CNNscore>
0.5764235854

> <CNNaffinity>
7.8411612511

> <CNN_VS>
4.5198302269

> <CNNaffinity_variance>
0.5143778920

$$$$
[H]c1nc([H])c(N2C(=O)N(c3c([H])c([H])c(-c4c([H])c([H])c([H])c([H])c4[H])c([H])c3[H])C(=O)C23C([H])([H])C([H])([H])N(C([H])([H])c2nc([H])c([H])c([H])c2C([H])([H])[H])C([H])([H])C3([H])[H])nc1[H]


 38 43  0  0  0  0  0  0  0  0999 V2000
   13.9564   25.6520   -3.0245 N   0  0  0  0  0  0  0  0  0  0  0  0
   14.2267   24.3311   -3.0947 C   0  0  0  0  0  0  0  0  0  0  0  0
   14.0796   23.6701   -1.6754 C   0  0  0  0  0  0  0  0  0  0  0  0
   12.6848   23.8211   -1.2047 C   0  0  0  0  0  0  0  0  0  0  0  0
   11.8869   24.8312   -2.0452 C   0  0  0  0  0  0  0  0  0  0  0  0
   12.7316   26.0444   -2.3253 C   0  0  0  0  0  0  0  0  0  0  0  0
   11.9622   22.6686   -0.9755 N   0  0  0  0  0  0  0  0  0  0  0  0
   10.7994   23.1375   -0.1881 C   0  0  0  0  0  0  0  0  0  0  0  0
    9.6621   22.6206   -0.2350 O   0  0  0  0  0  0  0  0  0  0  0  0
   11.2704   24.2606    0.5815 N   0  0  0  0  0  0  0  0  0  0  0  0
   12.6148   24.4332    0.2220 C   0  0  0  0  0  0  0  0  0  0  0  0
   13.5504   24.9507    0.8618 O   0  0  0  0  0  0  0  0  0  0  0  0
   10.4352   24.9450    1.5399 C   0  0  0  0  0  0  0  0  0  0  0  0
    9.1772   24.3377    1.7482 C   0  0  0  0  0  0  0  0  0  0  0  0
    8.1792   24.9376    2.4854 C   0  0  0  0  0  0  0  0  0  0  0  0
    8.4976   26.1774    3.0019 C   0  0  0  0  0  0  0  0  0  0  0  0
    9.6949   26.7678    2.8493 C   0  0  0  0  0  0  0  0  0  0  0  0
   10.7092   26.1321    2.0886 C   0  0  0  0  0  0  0  0  0  0  0  0
    7.3377   26.9282    3.5674 C   0  0  0  0  0  0  0  0  0  0  0  0
    7.2661   28.2677    3.6941 C   0  0  0  0  0  0  0  0  0  0  0  0
    6.2055   28.8215    4.4108 C   0  0  0  0  0  0  0  0  0  0  0  0
    5.2523   28.0377    4.9750 C   0  0  0  0  0  0  0  0  0  0  0  0
    5.3399   26.6509    4.8245 C   0  0  0  0  0  0  0  0  0  0  0  0
    6.3858   26.1223    4.1252 C   0  0  0  0  0  0  0  0  0  0  0  0
   11.9993   21.2376   -1.1469 C   0  0  0  0  0  0  0  0  0  0  0  0
   13.1910   20.6206   -1.4497 C   0  0  0  0  0  0  0  0  0  0  0  0
   13.3499   19.2515   -1.4178 N   0  0  0  0  0  0  0  0  0  0  0  0
   12.2745   18.5457   -1.0626 C   0  0  0  0  0  0  0  0  0  0  0  0
   11.0765   19.1104   -0.7705 C   0  0  0  0  0  0  0  0  0  0  0  0
   10.9466   20.4747   -0.8193 N   0  0  0  0  0  0  0  0  0  0  0  0
   14.2878   26.6254   -3.8975 C   0  0  0  0  0  0  0  0  0  0  0  0
   15.6607   28.8708   -4.8484 C   0  0  0  0  0  0  0  0  0  0  0  0
   14.2588   29.0339   -4.2921 C   0  0  0  0  0  0  0  0  0  0  0  0
   13.7327   30.2900   -4.1960 C   0  0  0  0  0  0  0  0  0  0  0  0
   12.3603   30.3908   -3.8692 C   0  0  0  0  0  0  0  0  0  0  0  0
   11.6197   29.2288   -3.6504 C   0  0  0  0  0  0  0  0  0  0  0  0
   12.2684   28.0596   -3.7577 N   0  0  0  0  0  0  0  0  0  0  0  0
   13.5310   27.8775   -4.0624 C   0  0  0  0  0  0  0  0  0  0  0  0
 32 33  1  0  0  0
 33 34  2  0  0  0
 34 35  1  0  0  0
 35 36  2  0  0  0
 36 37  1  0  0  0
 37 38  2  0  0  0
 38 31  1  0  0  0
 31  1  1  0  0  0
  1  2  1  0  0  0
  2  3  1  0  0  0
  3  4  1  0  0  0
  4  5  1  0  0  0
  5  6  1  0  0  0
  4  7  1  0  0  0
  7  8  1  0  0  0
  8  9  2  0  0  0
  8 10  1  0  0  0
 10 11  1  0  0  0
 11 12  2  0  0  0
 10 13  1  0  0  0
 13 14  2  0  0  0
 14 15  1  0  0  0
 15 16  2  0  0  0
 16 17  1  0  0  0
 17 18  2  0  0  0
 16 19  1  0  0  0
 19 20  2  0  0  0
 20 21  1  0  0  0
 21 22  2  0  0  0
 22 23  1  0  0  0
 23 24  2  0  0  0
  7 25  1  0  0  0
 25 26  2  0  0  0
 26 27  1  0  0  0
 27 28  2  0  0  0
 28 29  1  0  0  0
 29 30  2  0  0  0
 38 33  1  0  0  0
  6  1  1  0  0  0
 18 13  1  0  0  0
 24 19  1  0  0  0
 30 25  1  0  0  0
 11  4  1  0  0  0
M  END
> <minimizedAffinity>
17.18885

> <CNNscore>
0.5365327597

> <CNNaffinity>
7.3312921524

> <CNN_VS>
3.9334783554

> <CNNaffinity_variance>
0.8016611338

$$$$
[H]c1nc([H])c(N2C(=O)N(c3c([H])c([H])c(-c4c([H])c([H])c([H])c([H])c4[H])c([H])c3[H])C(=O)C23C([H])([H])C([H])([H])N(C([H])([H])c2nc([H])c([H])c([H])c2C([H])([H])[H])C([H])([H])C3([H])[H])nc1[H]


 38 43  0  0  0  0  0  0  0  0999 V2000
    9.0478   23.4719    1.4570 N   0  0  0  0  0  0  0  0  0  0  0  0
    9.6944   22.3592    1.8650 C   0  0  0  0  0  0  0  0  0  0  0  0
   10.5613   21.7731    0.6911 C   0  0  0  0  0  0  0  0  0  0  0  0
   11.5818   22.7668    0.2898 C   0  0  0  0  0  0  0  0  0  0  0  0
   11.3065   24.1614    0.8752 C   0  0  0  0  0  0  0  0  0  0  0  0
    9.8417   24.4850    0.7596 C   0  0  0  0  0  0  0  0  0  0  0  0
   12.9070   22.4101    0.4299 N   0  0  0  0  0  0  0  0  0  0  0  0
   13.6269   23.4214   -0.3770 C   0  0  0  0  0  0  0  0  0  0  0  0
   14.7745   23.8434   -0.1170 O   0  0  0  0  0  0  0  0  0  0  0  0
   12.7356   23.7768   -1.4517 N   0  0  0  0  0  0  0  0  0  0  0  0
   11.5672   23.0304   -1.2416 C   0  0  0  0  0  0  0  0  0  0  0  0
   10.7032   22.6564   -2.0579 O   0  0  0  0  0  0  0  0  0  0  0  0
   13.1183   24.6896   -2.5028 C   0  0  0  0  0  0  0  0  0  0  0  0
   14.0877   24.1744   -3.3914 C   0  0  0  0  0  0  0  0  0  0  0  0
   14.7056   24.9542   -4.3450 C   0  0  0  0  0  0  0  0  0  0  0  0
   14.3109   26.2767   -4.3654 C   0  0  0  0  0  0  0  0  0  0  0  0
   13.3690   26.7902   -3.5563 C   0  0  0  0  0  0  0  0  0  0  0  0
   12.7436   25.9697   -2.5830 C   0  0  0  0  0  0  0  0  0  0  0  0
   15.1638   27.1637   -5.2107 C   0  0  0  0  0  0  0  0  0  0  0  0
   15.3787   28.4755   -4.9902 C   0  0  0  0  0  0  0  0  0  0  0  0
   16.0423   29.2229   -5.9628 C   0  0  0  0  0  0  0  0  0  0  0  0
   16.4727   28.6525   -7.1163 C   0  0  0  0  0  0  0  0  0  0  0  0
   16.2478   27.2885   -7.3221 C   0  0  0  0  0  0  0  0  0  0  0  0
   15.5926   26.5703   -6.3643 C   0  0  0  0  0  0  0  0  0  0  0  0
   13.7703   21.3952    0.9803 C   0  0  0  0  0  0  0  0  0  0  0  0
   13.2465   20.4421    1.8230 C   0  0  0  0  0  0  0  0  0  0  0  0
   13.9534   19.3252    2.2148 N   0  0  0  0  0  0  0  0  0  0  0  0
   15.1868   19.2094    1.7186 C   0  0  0  0  0  0  0  0  0  0  0  0
   15.7485   20.1311    0.8974 C   0  0  0  0  0  0  0  0  0  0  0  0
   15.0238   21.2365    0.5319 N   0  0  0  0  0  0  0  0  0  0  0  0
    7.9718   24.0691    2.0095 C   0  0  0  0  0  0  0  0  0  0  0  0
    7.7802   25.3419    4.4942 C   0  0  0  0  0  0  0  0  0  0  0  0
    7.2260   23.9393    4.3299 C   0  0  0  0  0  0  0  0  0  0  0  0
    6.7179   23.3018    5.4249 C   0  0  0  0  0  0  0  0  0  0  0  0
    6.0278   22.0876    5.2014 C   0  0  0  0  0  0  0  0  0  0  0  0
    5.9084   21.5952    3.9015 C   0  0  0  0  0  0  0  0  0  0  0  0
    6.4737   22.3138    2.9199 N   0  0  0  0  0  0  0  0  0  0  0  0
    7.1219   23.4477    3.0387 C   0  0  0  0  0  0  0  0  0  0  0  0
 32 33  1  0  0  0
 33 34  2  0  0  0
 34 35  1  0  0  0
 35 36  2  0  0  0
 36 37  1  0  0  0
 37 38  2  0  0  0
 38 31  1  0  0  0
 31  1  1  0  0  0
  1  2  1  0  0  0
  2  3  1  0  0  0
  3  4  1  0  0  0
  4  5  1  0  0  0
  5  6  1  0  0  0
  4  7  1  0  0  0
  7  8  1  0  0  0
  8  9  2  0  0  0
  8 10  1  0  0  0
 10 11  1  0  0  0
 11 12  2  0  0  0
 10 13  1  0  0  0
 13 14  2  0  0  0
 14 15  1  0  0  0
 15 16  2  0  0  0
 16 17  1  0  0  0
 17 18  2  0  0  0
 16 19  1  0  0  0
 19 20  2  0  0  0
 20 21  1  0  0  0
 21 22  2  0  0  0
 22 23  1  0  0  0
 23 24  2  0  0  0
  7 25  1  0  0  0
 25 26  2  0  0  0
 26 27  1  0  0  0
 27 28  2  0  0  0
 28 29  1  0  0  0
 29 30  2  0  0  0
 38 33  1  0  0  0
  6  1  1  0  0  0
 18 13  1  0  0  0
 24 19  1  0  0  0
 30 25  1  0  0  0
 11  4  1  0  0  0
M  END
> <minimizedAffinity>
3.22321

> <CNNscore>
0.5210961103

> <CNNaffinity>
7.6032929420

> <CNN_VS>
3.9620463848

> <CNNaffinity_variance>
0.5704010725

$$$$
[H]c1nc([H])c(N2C(=O)N(c3c([H])c([H])c(-c4c([H])c([H])c([H])c([H])c4[H])c([H])c3[H])C(=O)C23C([H])([H])C([H])([H])N(C([H])([H])c2nc([H])c([H])c([H])c2C([H])([H])[H])C([H])([H])C3([H])[H])nc1[H]


 38 43  0  0  0  0  0  0  0  0999 V2000
   13.4292   20.8280    1.6451 N   0  0  0  0  0  0  0  0  0  0  0  0
   12.4141   21.2460    2.4311 C   0  0  0  0  0  0  0  0  0  0  0  0
   12.2169   22.7992    2.2840 C   0  0  0  0  0  0  0  0  0  0  0  0
   11.8645   23.1197    0.8829 C   0  0  0  0  0  0  0  0  0  0  0  0
   12.1092   21.9382   -0.0698 C   0  0  0  0  0  0  0  0  0  0  0  0
   13.4247   21.2836    0.2539 C   0  0  0  0  0  0  0  0  0  0  0  0
   10.6393   23.7108    0.6542 N   0  0  0  0  0  0  0  0  0  0  0  0
   10.7535   24.2243   -0.7298 C   0  0  0  0  0  0  0  0  0  0  0  0
    9.7970   24.3119   -1.5300 O   0  0  0  0  0  0  0  0  0  0  0  0
   12.1416   24.5640   -0.9119 N   0  0  0  0  0  0  0  0  0  0  0  0
   12.7779   24.2295    0.2921 C   0  0  0  0  0  0  0  0  0  0  0  0
   13.8231   24.6856    0.7943 O   0  0  0  0  0  0  0  0  0  0  0  0
   12.6348   25.1755   -2.1233 C   0  0  0  0  0  0  0  0  0  0  0  0
   13.6040   24.4073   -2.8055 C   0  0  0  0  0  0  0  0  0  0  0  0
   14.3177   24.8994   -3.8768 C   0  0  0  0  0  0  0  0  0  0  0  0
   14.0190   26.1994   -4.2318 C   0  0  0  0  0  0  0  0  0  0  0  0
   13.0807   26.9453   -3.6247 C   0  0  0  0  0  0  0  0  0  0  0  0
   12.3557   26.4189   -2.5251 C   0  0  0  0  0  0  0  0  0  0  0  0
   14.9697   26.8076   -5.2091 C   0  0  0  0  0  0  0  0  0  0  0  0
   15.4481   28.0657   -5.1482 C   0  0  0  0  0  0  0  0  0  0  0  0
   16.1781   28.5626   -6.2277 C   0  0  0  0  0  0  0  0  0  0  0  0
   16.4131   27.8031   -7.3273 C   0  0  0  0  0  0  0  0  0  0  0  0
   15.9157   26.4975   -7.3672 C   0  0  0  0  0  0  0  0  0  0  0  0
   15.1987   26.0260   -6.3061 C   0  0  0  0  0  0  0  0  0  0  0  0
    9.3972   24.0627    1.2958 C   0  0  0  0  0  0  0  0  0  0  0  0
    8.3843   23.1346    1.3696 C   0  0  0  0  0  0  0  0  0  0  0  0
    7.2601   23.3195    2.1460 N   0  0  0  0  0  0  0  0  0  0  0  0
    7.2094   24.4577    2.8408 C   0  0  0  0  0  0  0  0  0  0  0  0
    8.1770   25.4066    2.7868 C   0  0  0  0  0  0  0  0  0  0  0  0
    9.2797   25.1984    1.9986 N   0  0  0  0  0  0  0  0  0  0  0  0
   14.1359   19.6818    1.7235 C   0  0  0  0  0  0  0  0  0  0  0  0
   15.9319   21.8272    1.6764 C   0  0  0  0  0  0  0  0  0  0  0  0
   16.2194   20.5953    0.8390 C   0  0  0  0  0  0  0  0  0  0  0  0
   17.3110   20.5989    0.0192 C   0  0  0  0  0  0  0  0  0  0  0  0
   17.6651   19.3716   -0.5880 C   0  0  0  0  0  0  0  0  0  0  0  0
   16.8940   18.2355   -0.3404 C   0  0  0  0  0  0  0  0  0  0  0  0
   15.8350   18.3788    0.4705 N   0  0  0  0  0  0  0  0  0  0  0  0
   15.4424   19.4731    1.0774 C   0  0  0  0  0  0  0  0  0  0  0  0
 32 33  1  0  0  0
 33 34  2  0  0  0
 34 35  1  0  0  0
 35 36  2  0  0  0
 36 37  1  0  0  0
 37 38  2  0  0  0
 38 31  1  0  0  0
 31  1  1  0  0  0
  1  2  1  0  0  0
  2  3  1  0  0  0
  3  4  1  0  0  0
  4  5  1  0  0  0
  5  6  1  0  0  0
  4  7  1  0  0  0
  7  8  1  0  0  0
  8  9  2  0  0  0
  8 10  1  0  0  0
 10 11  1  0  0  0
 11 12  2  0  0  0
 10 13  1  0  0  0
 13 14  2  0  0  0
 14 15  1  0  0  0
 15 16  2  0  0  0
 16 17  1  0  0  0
 17 18  2  0  0  0
 16 19  1  0  0  0
 19 20  2  0  0  0
 20 21  1  0  0  0
 21 22  2  0  0  0
 22 23  1  0  0  0
 23 24  2  0  0  0
  7 25  1  0  0  0
 25 26  2  0  0  0
 26 27  1  0  0  0
 27 28  2  0  0  0
 28 29  1  0  0  0
 29 30  2  0  0  0
 38 33  1  0  0  0
  6  1  1  0  0  0
 18 13  1  0  0  0
 24 19  1  0  0  0
 30 25  1  0  0  0
 11  4  1  0  0  0
M  END
> <minimizedAffinity>
17.30615

> <CNNscore>
0.5140115619

> <CNNaffinity>
7.5201401711

> <CNN_VS>
3.8654389381

> <CNNaffinity_variance>
0.6158751249

$$$$
[H]c1nc([H])c(N2C(=O)N(c3c([H])c([H])c(-c4c([H])c([H])c([H])c([H])c4[H])c([H])c3[H])C(=O)C23C([H])([H])C([H])([H])N(C([H])([H])c2nc([H])c([H])c([H])c2C([H])([H])[H])C([H])([H])C3([H])[H])nc1[H]


 38 43  0  0  0  0  0  0  0  0999 V2000
   11.0236   23.6947   -1.3819 N   0  0  0  0  0  0  0  0  0  0  0  0
   10.0771   24.5905   -1.7344 C   0  0  0  0  0  0  0  0  0  0  0  0
   10.6986   26.0325   -1.8202 C   0  0  0  0  0  0  0  0  0  0  0  0
   11.7503   26.0537   -2.8610 C   0  0  0  0  0  0  0  0  0  0  0  0
   12.1580   24.6421   -3.3135 C   0  0  0  0  0  0  0  0  0  0  0  0
   12.2886   23.7389   -2.1172 C   0  0  0  0  0  0  0  0  0  0  0  0
   11.5644   26.8975   -3.9363 N   0  0  0  0  0  0  0  0  0  0  0  0
   12.9038   26.9616   -4.5641 C   0  0  0  0  0  0  0  0  0  0  0  0
   13.1011   27.1105   -5.7896 O   0  0  0  0  0  0  0  0  0  0  0  0
   13.8514   26.8116   -3.4894 N   0  0  0  0  0  0  0  0  0  0  0  0
   13.0865   26.6403   -2.3267 C   0  0  0  0  0  0  0  0  0  0  0  0
   13.3764   26.8829   -1.1394 O   0  0  0  0  0  0  0  0  0  0  0  0
   15.2773   26.8993   -3.6989 C   0  0  0  0  0  0  0  0  0  0  0  0
   15.9852   25.7262   -3.3563 C   0  0  0  0  0  0  0  0  0  0  0  0
   17.3619   25.6778   -3.3176 C   0  0  0  0  0  0  0  0  0  0  0  0
   17.9984   26.8609   -3.6341 C   0  0  0  0  0  0  0  0  0  0  0  0
   17.3557   27.9843   -3.9954 C   0  0  0  0  0  0  0  0  0  0  0  0
   15.9381   28.0121   -4.0310 C   0  0  0  0  0  0  0  0  0  0  0  0
   19.4612   26.8752   -3.3364 C   0  0  0  0  0  0  0  0  0  0  0  0
   20.0391   26.3233   -2.2515 C   0  0  0  0  0  0  0  0  0  0  0  0
   21.3887   26.5743   -2.0051 C   0  0  0  0  0  0  0  0  0  0  0  0
   22.1218   27.3574   -2.8361 C   0  0  0  0  0  0  0  0  0  0  0  0
   21.5059   27.9134   -3.9609 C   0  0  0  0  0  0  0  0  0  0  0  0
   20.1835   27.6637   -4.1870 C   0  0  0  0  0  0  0  0  0  0  0  0
   10.5954   27.7614   -4.5632 C   0  0  0  0  0  0  0  0  0  0  0  0
    9.5535   27.2107   -5.2732 C   0  0  0  0  0  0  0  0  0  0  0  0
    8.4792   27.9531   -5.7153 N   0  0  0  0  0  0  0  0  0  0  0  0
    8.4973   29.2509   -5.4053 C   0  0  0  0  0  0  0  0  0  0  0  0
    9.5100   29.8387   -4.7207 C   0  0  0  0  0  0  0  0  0  0  0  0
   10.5698   29.0761   -4.3014 N   0  0  0  0  0  0  0  0  0  0  0  0
   10.8607   22.4557   -0.8739 C   0  0  0  0  0  0  0  0  0  0  0  0
   13.2353   20.9769   -0.9455 C   0  0  0  0  0  0  0  0  0  0  0  0
   12.4580   21.0774    0.3534 C   0  0  0  0  0  0  0  0  0  0  0  0
   12.8980   20.3742    1.4376 C   0  0  0  0  0  0  0  0  0  0  0  0
   12.2765   20.6472    2.6785 C   0  0  0  0  0  0  0  0  0  0  0  0
   11.2531   21.5935    2.7400 C   0  0  0  0  0  0  0  0  0  0  0  0
   10.9062   22.1962    1.5929 N   0  0  0  0  0  0  0  0  0  0  0  0
   11.4331   22.0081    0.4067 C   0  0  0  0  0  0  0  0  0  0  0  0
 32 33  1  0  0  0
 33 34  2  0  0  0
 34 35  1  0  0  0
 35 36  2  0  0  0
 36 37  1  0  0  0
 37 38  2  0  0  0
 38 31  1  0  0  0
 31  1  1  0  0  0
  1  2  1  0  0  0
  2  3  1  0  0  0
  3  4  1  0  0  0
  4  5  1  0  0  0
  5  6  1  0  0  0
  4  7  1  0  0  0
  7  8  1  0  0  0
  8  9  2  0  0  0
  8 10  1  0  0  0
 10 11  1  0  0  0
 11 12  2  0  0  0
 10 13  1  0  0  0
 13 14  2  0  0  0
 14 15  1  0  0  0
 15 16  2  0  0  0
 16 17  1  0  0  0
 17 18  2  0  0  0
 16 19  1  0  0  0
 19 20  2  0  0  0
 20 21  1  0  0  0
 21 22  2  0  0  0
 22 23  1  0  0  0
 23 24  2  0  0  0
  7 25  1  0  0  0
 25 26  2  0  0  0
 26 27  1  0  0  0
 27 28  2  0  0  0
 28 29  1  0  0  0
 29 30  2  0  0  0
 38 33  1  0  0  0
  6  1  1  0  0  0
 18 13  1  0  0  0
 24 19  1  0  0  0
 30 25  1  0  0  0
 11  4  1  0  0  0
M  END
> <minimizedAffinity>
55.10010

> <CNNscore>
0.4912062883

> <CNNaffinity>
7.1586327553

> <CNN_VS>
3.5163655281

> <CNNaffinity_variance>
1.2013164759

$$$$
[H]c1nc([H])c(N2C(=O)N(c3c([H])c([H])c(-c4c([H])c([H])c([H])c([H])c4[H])c([H])c3[H])C(=O)C23C([H])([H])C([H])([H])N(C([H])([H])c2nc([H])c([H])c([H])c2C([H])([H])[H])C([H])([H])C3([H])[H])nc1[H]


 38 43  0  0  0  0  0  0  0  0999 V2000
   14.4355   25.8883   -3.3915 N   0  0  0  0  0  0  0  0  0  0  0  0
   15.6298   26.0959   -2.7971 C   0  0  0  0  0  0  0  0  0  0  0  0
   15.4747   26.0440   -1.2330 C   0  0  0  0  0  0  0  0  0  0  0  0
   14.9970   24.7025   -0.8304 C   0  0  0  0  0  0  0  0  0  0  0  0
   14.4855   23.8782   -2.0231 C   0  0  0  0  0  0  0  0  0  0  0  0
   13.6489   24.7458   -2.9237 C   0  0  0  0  0  0  0  0  0  0  0  0
   15.8168   23.9546   -0.0109 N   0  0  0  0  0  0  0  0  0  0  0  0
   14.9249   22.8847    0.4909 C   0  0  0  0  0  0  0  0  0  0  0  0
   15.3028   21.7268    0.7728 O   0  0  0  0  0  0  0  0  0  0  0  0
   13.6089   23.4669    0.5591 N   0  0  0  0  0  0  0  0  0  0  0  0
   13.7480   24.7814    0.0909 C   0  0  0  0  0  0  0  0  0  0  0  0
   13.0557   25.7896    0.3295 O   0  0  0  0  0  0  0  0  0  0  0  0
   12.4717   22.7468    1.0813 C   0  0  0  0  0  0  0  0  0  0  0  0
   11.2802   23.5037    1.1287 C   0  0  0  0  0  0  0  0  0  0  0  0
   10.1405   23.0505    1.7573 C   0  0  0  0  0  0  0  0  0  0  0  0
   10.2500   21.8044    2.3408 C   0  0  0  0  0  0  0  0  0  0  0  0
   11.3577   21.0458    2.2859 C   0  0  0  0  0  0  0  0  0  0  0  0
   12.5193   21.5303    1.6319 C   0  0  0  0  0  0  0  0  0  0  0  0
    9.1123   21.4384    3.2355 C   0  0  0  0  0  0  0  0  0  0  0  0
    9.2030   20.6527    4.3264 C   0  0  0  0  0  0  0  0  0  0  0  0
    8.0308   20.2407    4.9599 C   0  0  0  0  0  0  0  0  0  0  0  0
    6.8117   20.6182    4.4988 C   0  0  0  0  0  0  0  0  0  0  0  0
    6.7395   21.4406    3.3710 C   0  0  0  0  0  0  0  0  0  0  0  0
    7.8942   21.8321    2.7580 C   0  0  0  0  0  0  0  0  0  0  0  0
   17.1380   23.9167    0.5646 C   0  0  0  0  0  0  0  0  0  0  0  0
   18.2345   23.8052   -0.2588 C   0  0  0  0  0  0  0  0  0  0  0  0
   19.5256   23.9765    0.1931 N   0  0  0  0  0  0  0  0  0  0  0  0
   19.6582   24.2709    1.4879 C   0  0  0  0  0  0  0  0  0  0  0  0
   18.6074   24.3758    2.3390 C   0  0  0  0  0  0  0  0  0  0  0  0
   17.3349   24.1914    1.8621 N   0  0  0  0  0  0  0  0  0  0  0  0
   14.0621   26.1839   -4.6536 C   0  0  0  0  0  0  0  0  0  0  0  0
   15.8910   28.2504   -5.1177 C   0  0  0  0  0  0  0  0  0  0  0  0
   15.6693   27.1965   -6.1862 C   0  0  0  0  0  0  0  0  0  0  0  0
   16.3119   27.3301   -7.3832 C   0  0  0  0  0  0  0  0  0  0  0  0
   16.2471   26.2345   -8.2754 C   0  0  0  0  0  0  0  0  0  0  0  0
   15.5340   25.0925   -7.9094 C   0  0  0  0  0  0  0  0  0  0  0  0
   14.9327   25.1039   -6.7103 N   0  0  0  0  0  0  0  0  0  0  0  0
   14.9486   26.0701   -5.8236 C   0  0  0  0  0  0  0  0  0  0  0  0
 32 33  1  0  0  0
 33 34  2  0  0  0
 34 35  1  0  0  0
 35 36  2  0  0  0
 36 37  1  0  0  0
 37 38  2  0  0  0
 38 31  1  0  0  0
 31  1  1  0  0  0
  1  2  1  0  0  0
  2  3  1  0  0  0
  3  4  1  0  0  0
  4  5  1  0  0  0
  5  6  1  0  0  0
  4  7  1  0  0  0
  7  8  1  0  0  0
  8  9  2  0  0  0
  8 10  1  0  0  0
 10 11  1  0  0  0
 11 12  2  0  0  0
 10 13  1  0  0  0
 13 14  2  0  0  0
 14 15  1  0  0  0
 15 16  2  0  0  0
 16 17  1  0  0  0
 17 18  2  0  0  0
 16 19  1  0  0  0
 19 20  2  0  0  0
 20 21  1  0  0  0
 21 22  2  0  0  0
 22 23  1  0  0  0
 23 24  2  0  0  0
  7 25  1  0  0  0
 25 26  2  0  0  0
 26 27  1  0  0  0
 27 28  2  0  0  0
 28 29  1  0  0  0
 29 30  2  0  0  0
 38 33  1  0  0  0
  6  1  1  0  0  0
 18 13  1  0  0  0
 24 19  1  0  0  0
 30 25  1  0  0  0
 11  4  1  0  0  0
M  END
> <minimizedAffinity>
5.34772

> <CNNscore>
0.4636948109

> <CNNaffinity>
7.8435349464

> <CNN_VS>
3.6370065212

> <CNNaffinity_variance>
0.5732468367

$$$$
[H]c1nc([H])c(N2C(=O)N(c3c([H])c([H])c(-c4c([H])c([H])c([H])c([H])c4[H])c([H])c3[H])C(=O)C23C([H])([H])C([H])([H])N(C([H])([H])c2nc([H])c([H])c([H])c2C([H])([H])[H])C([H])([H])C3([H])[H])nc1[H]


 38 43  0  0  0  0  0  0  0  0999 V2000
   14.6134   24.2797   -3.7750 N   0  0  0  0  0  0  0  0  0  0  0  0
   14.9822   25.3038   -2.9763 C   0  0  0  0  0  0  0  0  0  0  0  0
   13.7628   25.7794   -2.1045 C   0  0  0  0  0  0  0  0  0  0  0  0
   13.3158   24.6677   -1.2360 C   0  0  0  0  0  0  0  0  0  0  0  0
   13.9219   23.3172   -1.6511 C   0  0  0  0  0  0  0  0  0  0  0  0
   13.8823   23.1770   -3.1486 C   0  0  0  0  0  0  0  0  0  0  0  0
   13.3868   24.8580    0.1284 N   0  0  0  0  0  0  0  0  0  0  0  0
   12.5500   23.7663    0.6762 C   0  0  0  0  0  0  0  0  0  0  0  0
   12.7539   23.2057    1.7748 O   0  0  0  0  0  0  0  0  0  0  0  0
   11.5237   23.5246   -0.3056 N   0  0  0  0  0  0  0  0  0  0  0  0
   11.7885   24.4093   -1.3609 C   0  0  0  0  0  0  0  0  0  0  0  0
   11.0150   24.8878   -2.2125 O   0  0  0  0  0  0  0  0  0  0  0  0
   10.4595   22.5724   -0.0922 C   0  0  0  0  0  0  0  0  0  0  0  0
   10.5721   21.3966   -0.8665 C   0  0  0  0  0  0  0  0  0  0  0  0
    9.5667   20.4565   -0.9341 C   0  0  0  0  0  0  0  0  0  0  0  0
    8.4398   20.7501   -0.1931 C   0  0  0  0  0  0  0  0  0  0  0  0
    8.3141   21.8429    0.5785 C   0  0  0  0  0  0  0  0  0  0  0  0
    9.3619   22.7971    0.6358 C   0  0  0  0  0  0  0  0  0  0  0  0
    7.2668   19.8713   -0.4767 C   0  0  0  0  0  0  0  0  0  0  0  0
    6.2148   19.6897    0.3455 C   0  0  0  0  0  0  0  0  0  0  0  0
    5.2832   18.6979    0.0395 C   0  0  0  0  0  0  0  0  0  0  0  0
    5.4188   17.9221   -1.0655 C   0  0  0  0  0  0  0  0  0  0  0  0
    6.5123   18.1323   -1.9102 C   0  0  0  0  0  0  0  0  0  0  0  0
    7.4189   19.1026   -1.5960 C   0  0  0  0  0  0  0  0  0  0  0  0
   13.8874   25.7582    1.1371 C   0  0  0  0  0  0  0  0  0  0  0  0
   15.2395   25.8175    1.3837 C   0  0  0  0  0  0  0  0  0  0  0  0
   15.8107   26.7946    2.1709 N   0  0  0  0  0  0  0  0  0  0  0  0
   14.9728   27.6997    2.6804 C   0  0  0  0  0  0  0  0  0  0  0  0
   13.6323   27.6713    2.4761 C   0  0  0  0  0  0  0  0  0  0  0  0
   13.0919   26.6818    1.6954 N   0  0  0  0  0  0  0  0  0  0  0  0
   15.2227   23.8194   -4.8869 C   0  0  0  0  0  0  0  0  0  0  0  0
   14.5461   26.5337   -4.8113 C   0  0  0  0  0  0  0  0  0  0  0  0
   15.1662   25.9542   -6.0688 C   0  0  0  0  0  0  0  0  0  0  0  0
   15.3044   26.7586   -7.1631 C   0  0  0  0  0  0  0  0  0  0  0  0
   16.0664   26.2534   -8.2423 C   0  0  0  0  0  0  0  0  0  0  0  0
   16.6223   24.9769   -8.1518 C   0  0  0  0  0  0  0  0  0  0  0  0
   16.3902   24.2861   -7.0255 N   0  0  0  0  0  0  0  0  0  0  0  0
   15.7047   24.6808   -5.9794 C   0  0  0  0  0  0  0  0  0  0  0  0
 32 33  1  0  0  0
 33 34  2  0  0  0
 34 35  1  0  0  0
 35 36  2  0  0  0
 36 37  1  0  0  0
 37 38  2  0  0  0
 38 31  1  0  0  0
 31  1  1  0  0  0
  1  2  1  0  0  0
  2  3  1  0  0  0
  3  4  1  0  0  0
  4  5  1  0  0  0
  5  6  1  0  0  0
  4  7  1  0  0  0
  7  8  1  0  0  0
  8  9  2  0  0  0
  8 10  1  0  0  0
 10 11  1  0  0  0
 11 12  2  0  0  0
 10 13  1  0  0  0
 13 14  2  0  0  0
 14 15  1  0  0  0
 15 16  2  0  0  0
 16 17  1  0  0  0
 17 18  2  0  0  0
 16 19  1  0  0  0
 19 20  2  0  0  0
 20 21  1  0  0  0
 21 22  2  0  0  0
 22 23  1  0  0  0
 23 24  2  0  0  0
  7 25  1  0  0  0
 25 26  2  0  0  0
 26 27  1  0  0  0
 27 28  2  0  0  0
 28 29  1  0  0  0
 29 30  2  0  0  0
 38 33  1  0  0  0
  6  1  1  0  0  0
 18 13  1  0  0  0
 24 19  1  0  0  0
 30 25  1  0  0  0
 11  4  1  0  0  0
M  END
> <minimizedAffinity>
9.07832

> <CNNscore>
0.4255978167

> <CNNaffinity>
7.7010202408

> <CNN_VS>
3.2775373459

> <CNNaffinity_variance>
0.7683510780

$$$$
[H]OC(=O)c1c([H])c([H])c(N2C(=O)N(c3c([H])c([H])c(-c4c([H])c([H])c([H])c([H])c4[H])c([H])c3[H])C3(C2=O)C([H])([H])C([H])([H])N(C([H])([H])c2c([H])c([H])c([H])c([H])c2C([H])([H])[H])C([H])([H])C3([H])[H])c([H])c1[H]


 42 47  0  0  0  0  0  0  0  0999 V2000
   14.1188   25.3497   -4.0014 N   0  0  0  0  0  0  0  0  0  0  0  0
   12.8599   25.0283   -3.3323 C   0  0  0  0  0  0  0  0  0  0  0  0
   13.1544   25.1302   -1.8519 C   0  0  0  0  0  0  0  0  0  0  0  0
   13.9033   23.8301   -1.5259 C   0  0  0  0  0  0  0  0  0  0  0  0
   14.8720   23.5457   -2.5829 C   0  0  0  0  0  0  0  0  0  0  0  0
   15.2193   24.6685   -3.5436 C   0  0  0  0  0  0  0  0  0  0  0  0
   14.3272   23.7987   -0.1676 N   0  0  0  0  0  0  0  0  0  0  0  0
   13.0807   23.7264    0.5738 C   0  0  0  0  0  0  0  0  0  0  0  0
   12.8894   24.1556    1.7541 O   0  0  0  0  0  0  0  0  0  0  0  0
   12.1160   23.0911   -0.2539 N   0  0  0  0  0  0  0  0  0  0  0  0
   12.7946   22.7935   -1.4691 C   0  0  0  0  0  0  0  0  0  0  0  0
   12.5331   21.8879   -2.2929 O   0  0  0  0  0  0  0  0  0  0  0  0
   10.7498   22.7862    0.0123 C   0  0  0  0  0  0  0  0  0  0  0  0
    9.7927   23.7559    0.2220 C   0  0  0  0  0  0  0  0  0  0  0  0
    8.4999   23.3458    0.4747 C   0  0  0  0  0  0  0  0  0  0  0  0
    8.1362   22.0152    0.5243 C   0  0  0  0  0  0  0  0  0  0  0  0
    9.0961   21.0679    0.3139 C   0  0  0  0  0  0  0  0  0  0  0  0
   10.3913   21.4550    0.0603 C   0  0  0  0  0  0  0  0  0  0  0  0
    6.7332   21.6777    0.8007 C   0  0  0  0  0  0  0  0  0  0  0  0
    5.9292   21.1498   -0.1925 O   0  0  0  0  0  0  0  0  0  0  0  0
    6.2339   21.8585    1.9361 O   0  0  0  0  0  0  0  0  0  0  0  0
    6.2549   20.7838   -1.0674 H   0  0  0  0  0  0  0  0  0  0  0  0
   15.5783   23.8256    0.4909 C   0  0  0  0  0  0  0  0  0  0  0  0
   16.3710   24.9379    0.3015 C   0  0  0  0  0  0  0  0  0  0  0  0
   17.6094   25.0699    0.9097 C   0  0  0  0  0  0  0  0  0  0  0  0
   18.0649   24.0543    1.7321 C   0  0  0  0  0  0  0  0  0  0  0  0
   17.2820   22.9375    1.9288 C   0  0  0  0  0  0  0  0  0  0  0  0
   16.0672   22.8394    1.3145 C   0  0  0  0  0  0  0  0  0  0  0  0
   19.3584   24.1041    2.4112 C   0  0  0  0  0  0  0  0  0  0  0  0
   20.5474   24.1800    1.7104 C   0  0  0  0  0  0  0  0  0  0  0  0
   21.7498   24.2276    2.3681 C   0  0  0  0  0  0  0  0  0  0  0  0
   21.8471   24.2039    3.7448 C   0  0  0  0  0  0  0  0  0  0  0  0
   20.6584   24.1285    4.4372 C   0  0  0  0  0  0  0  0  0  0  0  0
   19.4374   24.0795    3.7864 C   0  0  0  0  0  0  0  0  0  0  0  0
   13.9581   26.1351   -5.1015 C   0  0  0  0  0  0  0  0  0  0  0  0
   15.8625   28.1757   -5.0143 C   0  0  0  0  0  0  0  0  0  0  0  0
   15.7754   27.3279   -6.2153 C   0  0  0  0  0  0  0  0  0  0  0  0
   16.6310   27.5631   -7.2562 C   0  0  0  0  0  0  0  0  0  0  0  0
   16.5758   26.7884   -8.3675 C   0  0  0  0  0  0  0  0  0  0  0  0
   15.6748   25.7843   -8.4434 C   0  0  0  0  0  0  0  0  0  0  0  0
   14.7880   25.5374   -7.3694 C   0  0  0  0  0  0  0  0  0  0  0  0
   14.8088   26.2854   -6.2466 C   0  0  0  0  0  0  0  0  0  0  0  0
 36 37  1  0  0  0
 37 38  2  0  0  0
 38 39  1  0  0  0
 39 40  2  0  0  0
 40 41  1  0  0  0
 41 42  2  0  0  0
 42 35  1  0  0  0
 35  1  1  0  0  0
  1  2  1  0  0  0
  2  3  1  0  0  0
  3  4  1  0  0  0
  4  5  1  0  0  0
  5  6  1  0  0  0
  4  7  1  0  0  0
  7  8  1  0  0  0
  8  9  2  0  0  0
  8 10  1  0  0  0
 10 11  1  0  0  0
 11 12  2  0  0  0
 10 13  1  0  0  0
 13 14  2  0  0  0
 14 15  1  0  0  0
 15 16  2  0  0  0
 16 17  1  0  0  0
 17 18  2  0  0  0
 16 19  1  0  0  0
 19 20  1  0  0  0
 19 21  2  0  0  0
  7 23  1  0  0  0
 23 24  2  0  0  0
 24 25  1  0  0  0
 25 26  2  0  0  0
 26 27  1  0  0  0
 27 28  2  0  0  0
 26 29  1  0  0  0
 29 30  2  0  0  0
 30 31  1  0  0  0
 31 32  2  0  0  0
 32 33  1  0  0  0
 33 34  2  0  0  0
 42 37  1  0  0  0
  6  1  1  0  0  0
 18 13  1  0  0  0
 28 23  1  0  0  0
 34 29  1  0  0  0
 11  4  1  0  0  0
 20 22  1  0  0  0
M  END
> <minimizedAffinity>
22.83789

> <CNNscore>
0.5705078244

> <CNNaffinity>
7.9471321106

> <CNN_VS>
4.5339012146

> <CNNaffinity_variance>
0.3746182919

$$$$
[H]OC(=O)c1c([H])c([H])c(N2C(=O)N(c3c([H])c([H])c(-c4c([H])c([H])c([H])c([H])c4[H])c([H])c3[H])C3(C2=O)C([H])([H])C([H])([H])N(C([H])([H])c2c([H])c([H])c([H])c([H])c2C([H])([H])[H])C([H])([H])C3([H])[H])c([H])c1[H]


 42 47  0  0  0  0  0  0  0  0999 V2000
   13.0389   26.1003   -3.8784 N   0  0  0  0  0  0  0  0  0  0  0  0
   14.2267   25.7698   -3.0937 C   0  0  0  0  0  0  0  0  0  0  0  0
   14.0185   24.3445   -2.6310 C   0  0  0  0  0  0  0  0  0  0  0  0
   13.0251   24.4672   -1.4667 C   0  0  0  0  0  0  0  0  0  0  0  0
   11.9776   25.4247   -1.8166 C   0  0  0  0  0  0  0  0  0  0  0  0
   11.8381   25.8169   -3.2764 C   0  0  0  0  0  0  0  0  0  0  0  0
   12.6576   23.1900   -0.9575 N   0  0  0  0  0  0  0  0  0  0  0  0
   13.8887   22.6941   -0.3683 C   0  0  0  0  0  0  0  0  0  0  0  0
   14.2124   21.4728   -0.2352 O   0  0  0  0  0  0  0  0  0  0  0  0
   14.6642   23.8155    0.0323 N   0  0  0  0  0  0  0  0  0  0  0  0
   13.8910   24.9576   -0.3192 C   0  0  0  0  0  0  0  0  0  0  0  0
   13.9228   26.0961    0.2002 O   0  0  0  0  0  0  0  0  0  0  0  0
   15.9445   23.8587    0.6563 C   0  0  0  0  0  0  0  0  0  0  0  0
   16.4579   22.8085    1.3869 C   0  0  0  0  0  0  0  0  0  0  0  0
   17.7080   22.9614    1.9501 C   0  0  0  0  0  0  0  0  0  0  0  0
   18.4530   24.1148    1.8094 C   0  0  0  0  0  0  0  0  0  0  0  0
   17.9300   25.1450    1.0823 C   0  0  0  0  0  0  0  0  0  0  0  0
   16.6852   25.0135    0.5122 C   0  0  0  0  0  0  0  0  0  0  0  0
   19.7747   24.1827    2.4474 C   0  0  0  0  0  0  0  0  0  0  0  0
   19.8874   24.2479    3.8238 O   0  0  0  0  0  0  0  0  0  0  0  0
   20.8257   24.1829    1.7644 O   0  0  0  0  0  0  0  0  0  0  0  0
   19.1475   24.0621    4.4746 H   0  0  0  0  0  0  0  0  0  0  0  0
   11.4671   22.4271   -0.9337 C   0  0  0  0  0  0  0  0  0  0  0  0
   10.8403   22.2678    0.2841 C   0  0  0  0  0  0  0  0  0  0  0  0
    9.6626   21.5488    0.4158 C   0  0  0  0  0  0  0  0  0  0  0  0
    9.0985   20.9729   -0.7090 C   0  0  0  0  0  0  0  0  0  0  0  0
    9.7160   21.1248   -1.9316 C   0  0  0  0  0  0  0  0  0  0  0  0
   10.8750   21.8392   -2.0262 C   0  0  0  0  0  0  0  0  0  0  0  0
    7.8621   20.1942   -0.6656 C   0  0  0  0  0  0  0  0  0  0  0  0
    7.5256   19.3038   -1.6678 C   0  0  0  0  0  0  0  0  0  0  0  0
    6.3613   18.5821   -1.6058 C   0  0  0  0  0  0  0  0  0  0  0  0
    5.4692   18.6961   -0.5586 C   0  0  0  0  0  0  0  0  0  0  0  0
    5.8107   19.5851    0.4371 C   0  0  0  0  0  0  0  0  0  0  0  0
    6.9826   20.3205    0.3873 C   0  0  0  0  0  0  0  0  0  0  0  0
   13.3189   26.8139   -5.0033 C   0  0  0  0  0  0  0  0  0  0  0  0
   15.5815   28.4348   -4.7751 C   0  0  0  0  0  0  0  0  0  0  0  0
   15.5138   27.4486   -5.8667 C   0  0  0  0  0  0  0  0  0  0  0  0
   16.5625   27.3531   -6.7396 C   0  0  0  0  0  0  0  0  0  0  0  0
   16.5264   26.4451   -7.7458 C   0  0  0  0  0  0  0  0  0  0  0  0
   15.4534   25.6355   -7.8833 C   0  0  0  0  0  0  0  0  0  0  0  0
   14.3667   25.7307   -6.9829 C   0  0  0  0  0  0  0  0  0  0  0  0
   14.3618   26.6212   -5.9691 C   0  0  0  0  0  0  0  0  0  0  0  0
 36 37  1  0  0  0
 37 38  2  0  0  0
 38 39  1  0  0  0
 39 40  2  0  0  0
 40 41  1  0  0  0
 41 42  2  0  0  0
 42 35  1  0  0  0
 35  1  1  0  0  0
  1  2  1  0  0  0
  2  3  1  0  0  0
  3  4  1  0  0  0
  4  5  1  0  0  0
  5  6  1  0  0  0
  4  7  1  0  0  0
  7  8  1  0  0  0
  8  9  2  0  0  0
  8 10  1  0  0  0
 10 11  1  0  0  0
 11 12  2  0  0  0
 10 13  1  0  0  0
 13 14  2  0  0  0
 14 15  1  0  0  0
 15 16  2  0  0  0
 16 17  1  0  0  0
 17 18  2  0  0  0
 16 19  1  0  0  0
 19 20  1  0  0  0
 19 21  2  0  0  0
  7 23  1  0  0  0
 23 24  2  0  0  0
 24 25  1  0  0  0
 25 26  2  0  0  0
 26 27  1  0  0  0
 27 28  2  0  0  0
 26 29  1  0  0  0
 29 30  2  0  0  0
 30 31  1  0  0  0
 31 32  2  0  0  0
 32 33  1  0  0  0
 33 34  2  0  0  0
 42 37  1  0  0  0
  6  1  1  0  0  0
 18 13  1  0  0  0
 28 23  1  0  0  0
 34 29  1  0  0  0
 11  4  1  0  0  0
 20 22  1  0  0  0
M  END
> <minimizedAffinity>
9.16857

> <CNNscore>
0.5572285652

> <CNNaffinity>
7.9041624069

> <CNN_VS>
4.4044251442

> <CNNaffinity_variance>
0.7349606752

$$$$
[H]OC(=O)c1c([H])c([H])c(N2C(=O)N(c3c([H])c([H])c(-c4c([H])c([H])c([H])c([H])c4[H])c([H])c3[H])C3(C2=O)C([H])([H])C([H])([H])N(C([H])([H])c2c([H])c([H])c([H])c([H])c2C([H])([H])[H])C([H])([H])C3([H])[H])c([H])c1[H]


 42 47  0  0  0  0  0  0  0  0999 V2000
   12.9076   26.0005   -3.7635 N   0  0  0  0  0  0  0  0  0  0  0  0
   14.1104   25.6837   -2.9961 C   0  0  0  0  0  0  0  0  0  0  0  0
   13.9235   24.2575   -2.5272 C   0  0  0  0  0  0  0  0  0  0  0  0
   12.9466   24.3730   -1.3483 C   0  0  0  0  0  0  0  0  0  0  0  0
   11.8845   25.3192   -1.6844 C   0  0  0  0  0  0  0  0  0  0  0  0
   11.7189   25.7066   -3.1427 C   0  0  0  0  0  0  0  0  0  0  0  0
   12.5997   23.0935   -0.8308 N   0  0  0  0  0  0  0  0  0  0  0  0
   13.8445   22.6112   -0.2592 C   0  0  0  0  0  0  0  0  0  0  0  0
   14.1823   21.3936   -0.1284 O   0  0  0  0  0  0  0  0  0  0  0  0
   14.6147   23.7412    0.1271 N   0  0  0  0  0  0  0  0  0  0  0  0
   13.8249   24.8747   -0.2151 C   0  0  0  0  0  0  0  0  0  0  0  0
   13.8532   26.0147    0.3013 O   0  0  0  0  0  0  0  0  0  0  0  0
   15.9038   23.7986    0.7315 C   0  0  0  0  0  0  0  0  0  0  0  0
   16.4196   22.7737    1.4956 C   0  0  0  0  0  0  0  0  0  0  0  0
   17.6785   22.9387    2.0354 C   0  0  0  0  0  0  0  0  0  0  0  0
   18.4298   24.0798    1.8396 C   0  0  0  0  0  0  0  0  0  0  0  0
   17.9044   25.0849    1.0800 C   0  0  0  0  0  0  0  0  0  0  0  0
   16.6509   24.9410    0.5324 C   0  0  0  0  0  0  0  0  0  0  0  0
   19.7607   24.1621    2.4565 C   0  0  0  0  0  0  0  0  0  0  0  0
   19.8946   24.2284    3.8310 O   0  0  0  0  0  0  0  0  0  0  0  0
   20.8006   24.1738    1.7569 O   0  0  0  0  0  0  0  0  0  0  0  0
   19.1673   24.0346    4.4934 H   0  0  0  0  0  0  0  0  0  0  0  0
   11.4174   22.3188   -0.7872 C   0  0  0  0  0  0  0  0  0  0  0  0
   10.7021   22.3190    0.3917 C   0  0  0  0  0  0  0  0  0  0  0  0
    9.5241   21.6031    0.5366 C   0  0  0  0  0  0  0  0  0  0  0  0
    9.0511   20.8653   -0.5344 C   0  0  0  0  0  0  0  0  0  0  0  0
    9.7575   20.8569   -1.7177 C   0  0  0  0  0  0  0  0  0  0  0  0
   10.9141   21.5730   -1.8266 C   0  0  0  0  0  0  0  0  0  0  0  0
    7.8217   20.0769   -0.4727 C   0  0  0  0  0  0  0  0  0  0  0  0
    6.7701   20.4294    0.3521 C   0  0  0  0  0  0  0  0  0  0  0  0
    5.6250   19.6762    0.3928 C   0  0  0  0  0  0  0  0  0  0  0  0
    5.4529   18.5406   -0.3728 C   0  0  0  0  0  0  0  0  0  0  0  0
    6.5047   18.1948   -1.1928 C   0  0  0  0  0  0  0  0  0  0  0  0
    7.6667   18.9458   -1.2438 C   0  0  0  0  0  0  0  0  0  0  0  0
   13.1634   26.7142   -4.8941 C   0  0  0  0  0  0  0  0  0  0  0  0
   14.4085   25.4181   -7.0314 C   0  0  0  0  0  0  0  0  0  0  0  0
   15.0476   26.6081   -6.4447 C   0  0  0  0  0  0  0  0  0  0  0  0
   16.2347   27.0467   -6.9636 C   0  0  0  0  0  0  0  0  0  0  0  0
   16.8357   28.1463   -6.4460 C   0  0  0  0  0  0  0  0  0  0  0  0
   16.2593   28.8071   -5.4181 C   0  0  0  0  0  0  0  0  0  0  0  0
   15.0316   28.3571   -4.8783 C   0  0  0  0  0  0  0  0  0  0  0  0
   14.4013   27.2669   -5.3628 C   0  0  0  0  0  0  0  0  0  0  0  0
 36 37  1  0  0  0
 37 38  2  0  0  0
 38 39  1  0  0  0
 39 40  2  0  0  0
 40 41  1  0  0  0
 41 42  2  0  0  0
 42 35  1  0  0  0
 35  1  1  0  0  0
  1  2  1  0  0  0
  2  3  1  0  0  0
  3  4  1  0  0  0
  4  5  1  0  0  0
  5  6  1  0  0  0
  4  7  1  0  0  0
  7  8  1  0  0  0
  8  9  2  0  0  0
  8 10  1  0  0  0
 10 11  1  0  0  0
 11 12  2  0  0  0
 10 13  1  0  0  0
 13 14  2  0  0  0
 14 15  1  0  0  0
 15 16  2  0  0  0
 16 17  1  0  0  0
 17 18  2  0  0  0
 16 19  1  0  0  0
 19 20  1  0  0  0
 19 21  2  0  0  0
  7 23  1  0  0  0
 23 24  2  0  0  0
 24 25  1  0  0  0
 25 26  2  0  0  0
 26 27  1  0  0  0
 27 28  2  0  0  0
 26 29  1  0  0  0
 29 30  2  0  0  0
 30 31  1  0  0  0
 31 32  2  0  0  0
 32 33  1  0  0  0
 33 34  2  0  0  0
 42 37  1  0  0  0
  6  1  1  0  0  0
 18 13  1  0  0  0
 28 23  1  0  0  0
 34 29  1  0  0  0
 11  4  1  0  0  0
 20 22  1  0  0  0
M  END
> <minimizedAffinity>
11.24655

> <CNNscore>
0.5483382344

> <CNNaffinity>
7.8849625587

> <CNN_VS>
4.3236265182

> <CNNaffinity_variance>
0.7456997633

$$$$
[H]OC(=O)c1c([H])c([H])c(N2C(=O)N(c3c([H])c([H])c(-c4c([H])c([H])c([H])c([H])c4[H])c([H])c3[H])C3(C2=O)C([H])([H])C([H])([H])N(C([H])([H])c2c([H])c([H])c([H])c([H])c2C([H])([H])[H])C([H])([H])C3([H])[H])c([H])c1[H]


 42 47  0  0  0  0  0  0  0  0999 V2000
    8.3132   25.5575    0.9622 N   0  0  0  0  0  0  0  0  0  0  0  0
    8.8367   24.4767    1.7952 C   0  0  0  0  0  0  0  0  0  0  0  0
   10.3281   24.4602    1.5412 C   0  0  0  0  0  0  0  0  0  0  0  0
   10.4712   23.7644    0.1801 C   0  0  0  0  0  0  0  0  0  0  0  0
    9.4437   24.2609   -0.7333 C   0  0  0  0  0  0  0  0  0  0  0  0
    8.7147   25.5362   -0.3504 C   0  0  0  0  0  0  0  0  0  0  0  0
   11.8275   23.7334   -0.2500 N   0  0  0  0  0  0  0  0  0  0  0  0
   12.4658   22.8489    0.7085 C   0  0  0  0  0  0  0  0  0  0  0  0
   13.6882   22.8807    1.0533 O   0  0  0  0  0  0  0  0  0  0  0  0
   11.4822   21.9434    1.1902 N   0  0  0  0  0  0  0  0  0  0  0  0
   10.2788   22.2959    0.5169 C   0  0  0  0  0  0  0  0  0  0  0  0
    9.2964   21.5620    0.2650 O   0  0  0  0  0  0  0  0  0  0  0  0
   11.6058   20.8880    2.1395 C   0  0  0  0  0  0  0  0  0  0  0  0
   10.8073   20.7896    3.2588 C   0  0  0  0  0  0  0  0  0  0  0  0
   11.0172   19.7263    4.1125 C   0  0  0  0  0  0  0  0  0  0  0  0
   11.9866   18.7699    3.8877 C   0  0  0  0  0  0  0  0  0  0  0  0
   12.7683   18.8820    2.7742 C   0  0  0  0  0  0  0  0  0  0  0  0
   12.5758   19.9344    1.9099 C   0  0  0  0  0  0  0  0  0  0  0  0
   12.1340   17.6743    4.8555 C   0  0  0  0  0  0  0  0  0  0  0  0
   11.0200   17.0860    5.4250 O   0  0  0  0  0  0  0  0  0  0  0  0
   13.2655   17.2486    5.1863 O   0  0  0  0  0  0  0  0  0  0  0  0
   10.0770   17.2008    5.1042 H   0  0  0  0  0  0  0  0  0  0  0  0
   12.5578   24.3348   -1.3011 C   0  0  0  0  0  0  0  0  0  0  0  0
   12.0396   25.4859   -1.8558 C   0  0  0  0  0  0  0  0  0  0  0  0
   12.6816   26.1604   -2.8825 C   0  0  0  0  0  0  0  0  0  0  0  0
   13.8792   25.6635   -3.3661 C   0  0  0  0  0  0  0  0  0  0  0  0
   14.4070   24.5135   -2.8200 C   0  0  0  0  0  0  0  0  0  0  0  0
   13.7489   23.8739   -1.8098 C   0  0  0  0  0  0  0  0  0  0  0  0
   14.6241   26.3043   -4.4484 C   0  0  0  0  0  0  0  0  0  0  0  0
   15.2480   27.5262   -4.2803 C   0  0  0  0  0  0  0  0  0  0  0  0
   15.9432   28.1084   -5.3090 C   0  0  0  0  0  0  0  0  0  0  0  0
   16.0625   27.5223   -6.5530 C   0  0  0  0  0  0  0  0  0  0  0  0
   15.4386   26.3044   -6.7137 C   0  0  0  0  0  0  0  0  0  0  0  0
   14.7331   25.7052   -5.6842 C   0  0  0  0  0  0  0  0  0  0  0  0
    7.3572   26.3009    1.5838 C   0  0  0  0  0  0  0  0  0  0  0  0
    5.8455   28.4283    2.5776 C   0  0  0  0  0  0  0  0  0  0  0  0
    6.0232   27.2257    3.4089 C   0  0  0  0  0  0  0  0  0  0  0  0
    5.4418   27.1835    4.6463 C   0  0  0  0  0  0  0  0  0  0  0  0
    5.5832   26.0824    5.4246 C   0  0  0  0  0  0  0  0  0  0  0  0
    6.2987   25.0281    4.9748 C   0  0  0  0  0  0  0  0  0  0  0  0
    6.9017   25.0673    3.6959 C   0  0  0  0  0  0  0  0  0  0  0  0
    6.7867   26.1439    2.8905 C   0  0  0  0  0  0  0  0  0  0  0  0
 36 37  1  0  0  0
 37 38  2  0  0  0
 38 39  1  0  0  0
 39 40  2  0  0  0
 40 41  1  0  0  0
 41 42  2  0  0  0
 42 35  1  0  0  0
 35  1  1  0  0  0
  1  2  1  0  0  0
  2  3  1  0  0  0
  3  4  1  0  0  0
  4  5  1  0  0  0
  5  6  1  0  0  0
  4  7  1  0  0  0
  7  8  1  0  0  0
  8  9  2  0  0  0
  8 10  1  0  0  0
 10 11  1  0  0  0
 11 12  2  0  0  0
 10 13  1  0  0  0
 13 14  2  0  0  0
 14 15  1  0  0  0
 15 16  2  0  0  0
 16 17  1  0  0  0
 17 18  2  0  0  0
 16 19  1  0  0  0
 19 20  1  0  0  0
 19 21  2  0  0  0
  7 23  1  0  0  0
 23 24  2  0  0  0
 24 25  1  0  0  0
 25 26  2  0  0  0
 26 27  1  0  0  0
 27 28  2  0  0  0
 26 29  1  0  0  0
 29 30  2  0  0  0
 30 31  1  0  0  0
 31 32  2  0  0  0
 32 33  1  0  0  0
 33 34  2  0  0  0
 42 37  1  0  0  0
  6  1  1  0  0  0
 18 13  1  0  0  0
 28 23  1  0  0  0
 34 29  1  0  0  0
 11  4  1  0  0  0
 20 22  1  0  0  0
M  END
> <minimizedAffinity>
10.71062

> <CNNscore>
0.5397021770

> <CNNaffinity>
7.2562460899

> <CNN_VS>
3.9162118435

> <CNNaffinity_variance>
0.5514504313

$$$$
[H]OC(=O)c1c([H])c([H])c(N2C(=O)N(c3c([H])c([H])c(-c4c([H])c([H])c([H])c([H])c4[H])c([H])c3[H])C3(C2=O)C([H])([H])C([H])([H])N(C([H])([H])c2c([H])c([H])c([H])c([H])c2C([H])([H])[H])C([H])([H])C3([H])[H])c([H])c1[H]


 42 47  0  0  0  0  0  0  0  0999 V2000
   12.7147   26.3043   -3.7518 N   0  0  0  0  0  0  0  0  0  0  0  0
   11.5990   25.7643   -2.9774 C   0  0  0  0  0  0  0  0  0  0  0  0
   12.1016   25.6820   -1.5528 C   0  0  0  0  0  0  0  0  0  0  0  0
   12.9920   24.4313   -1.5385 C   0  0  0  0  0  0  0  0  0  0  0  0
   13.8121   24.4011   -2.7481 C   0  0  0  0  0  0  0  0  0  0  0  0
   13.9219   25.6795   -3.5592 C   0  0  0  0  0  0  0  0  0  0  0  0
   13.6145   24.2484   -0.2718 N   0  0  0  0  0  0  0  0  0  0  0  0
   12.5020   23.9445    0.6107 C   0  0  0  0  0  0  0  0  0  0  0  0
   12.4549   24.1782    1.8585 O   0  0  0  0  0  0  0  0  0  0  0  0
   11.4787   23.3401   -0.1683 N   0  0  0  0  0  0  0  0  0  0  0  0
   11.9904   23.2903   -1.4955 C   0  0  0  0  0  0  0  0  0  0  0  0
   11.6822   22.4905   -2.4079 O   0  0  0  0  0  0  0  0  0  0  0  0
   10.1960   22.8633    0.2290 C   0  0  0  0  0  0  0  0  0  0  0  0
   10.0107   21.6583    0.8723 C   0  0  0  0  0  0  0  0  0  0  0  0
    8.7228   21.2948    1.2082 C   0  0  0  0  0  0  0  0  0  0  0  0
    7.6275   22.0858    0.9259 C   0  0  0  0  0  0  0  0  0  0  0  0
    7.8286   23.2761    0.2889 C   0  0  0  0  0  0  0  0  0  0  0  0
    9.1045   23.6577   -0.0550 C   0  0  0  0  0  0  0  0  0  0  0  0
    6.2947   21.6121    1.3235 C   0  0  0  0  0  0  0  0  0  0  0  0
    5.9548   21.5124    2.6599 O   0  0  0  0  0  0  0  0  0  0  0  0
    5.4386   21.2892    0.4669 O   0  0  0  0  0  0  0  0  0  0  0  0
    6.4697   21.9159    3.4199 H   0  0  0  0  0  0  0  0  0  0  0  0
   14.9435   24.3071    0.2077 C   0  0  0  0  0  0  0  0  0  0  0  0
   15.6142   23.1127    0.3656 C   0  0  0  0  0  0  0  0  0  0  0  0
   16.9232   23.0592    0.8180 C   0  0  0  0  0  0  0  0  0  0  0  0
   17.5775   24.2405    1.1208 C   0  0  0  0  0  0  0  0  0  0  0  0
   16.9175   25.4405    0.9674 C   0  0  0  0  0  0  0  0  0  0  0  0
   15.6284   25.4576    0.5197 C   0  0  0  0  0  0  0  0  0  0  0  0
   18.9552   24.2814    1.6077 C   0  0  0  0  0  0  0  0  0  0  0  0
   20.0328   24.0894    0.7638 C   0  0  0  0  0  0  0  0  0  0  0  0
   21.3173   24.1339    1.2418 C   0  0  0  0  0  0  0  0  0  0  0  0
   21.6099   24.3693    2.5701 C   0  0  0  0  0  0  0  0  0  0  0  0
   20.5314   24.5601    3.4059 C   0  0  0  0  0  0  0  0  0  0  0  0
   19.2294   24.5176    2.9371 C   0  0  0  0  0  0  0  0  0  0  0  0
   12.3298   27.2191   -4.6834 C   0  0  0  0  0  0  0  0  0  0  0  0
   13.2538   29.5199   -3.3985 C   0  0  0  0  0  0  0  0  0  0  0  0
   11.8694   29.4862   -3.8997 C   0  0  0  0  0  0  0  0  0  0  0  0
   11.0733   30.5842   -3.7223 C   0  0  0  0  0  0  0  0  0  0  0  0
    9.7989   30.5794   -4.1848 C   0  0  0  0  0  0  0  0  0  0  0  0
    9.3183   29.4887   -4.8212 C   0  0  0  0  0  0  0  0  0  0  0  0
   10.1380   28.3509   -5.0069 C   0  0  0  0  0  0  0  0  0  0  0  0
   11.4109   28.3137   -4.5610 C   0  0  0  0  0  0  0  0  0  0  0  0
 36 37  1  0  0  0
 37 38  2  0  0  0
 38 39  1  0  0  0
 39 40  2  0  0  0
 40 41  1  0  0  0
 41 42  2  0  0  0
 42 35  1  0  0  0
 35  1  1  0  0  0
  1  2  1  0  0  0
  2  3  1  0  0  0
  3  4  1  0  0  0
  4  5  1  0  0  0
  5  6  1  0  0  0
  4  7  1  0  0  0
  7  8  1  0  0  0
  8  9  2  0  0  0
  8 10  1  0  0  0
 10 11  1  0  0  0
 11 12  2  0  0  0
 10 13  1  0  0  0
 13 14  2  0  0  0
 14 15  1  0  0  0
 15 16  2  0  0  0
 16 17  1  0  0  0
 17 18  2  0  0  0
 16 19  1  0  0  0
 19 20  1  0  0  0
 19 21  2  0  0  0
  7 23  1  0  0  0
 23 24  2  0  0  0
 24 25  1  0  0  0
 25 26  2  0  0  0
 26 27  1  0  0  0
 27 28  2  0  0  0
 26 29  1  0  0  0
 29 30  2  0  0  0
 30 31  1  0  0  0
 31 32  2  0  0  0
 32 33  1  0  0  0
 33 34  2  0  0  0
 42 37  1  0  0  0
  6  1  1  0  0  0
 18 13  1  0  0  0
 28 23  1  0  0  0
 34 29  1  0  0  0
 11  4  1  0  0  0
 20 22  1  0  0  0
M  END
> <minimizedAffinity>
33.40536

> <CNNscore>
0.5158761144

> <CNNaffinity>
7.4673547745

> <CNN_VS>
3.8522300720

> <CNNaffinity_variance>
0.6427059770

$$$$
[H]OC(=O)c1c([H])c([H])c(N2C(=O)N(c3c([H])c([H])c(-c4c([H])c([H])c([H])c([H])c4[H])c([H])c3[H])C3(C2=O)C([H])([H])C([H])([H])N(C([H])([H])c2c([H])c([H])c([H])c([H])c2C([H])([H])[H])C([H])([H])C3([H])[H])c([H])c1[H]


 42 47  0  0  0  0  0  0  0  0999 V2000
   12.1436   26.0794   -3.1088 N   0  0  0  0  0  0  0  0  0  0  0  0
   13.4299   25.7873   -2.4793 C   0  0  0  0  0  0  0  0  0  0  0  0
   13.4033   24.3045   -2.1806 C   0  0  0  0  0  0  0  0  0  0  0  0
   12.5247   24.1879   -0.9269 C   0  0  0  0  0  0  0  0  0  0  0  0
   11.3625   25.0640   -1.0612 C   0  0  0  0  0  0  0  0  0  0  0  0
   11.0411   25.6044   -2.4428 C   0  0  0  0  0  0  0  0  0  0  0  0
   12.3312   22.8293   -0.5498 N   0  0  0  0  0  0  0  0  0  0  0  0
   13.6562   22.4009   -0.1379 C   0  0  0  0  0  0  0  0  0  0  0  0
   14.1044   21.2132   -0.1867 O   0  0  0  0  0  0  0  0  0  0  0  0
   14.3598   23.5440    0.3287 N   0  0  0  0  0  0  0  0  0  0  0  0
   13.4518   24.6315    0.1915 C   0  0  0  0  0  0  0  0  0  0  0  0
   13.4290   25.6999    0.8435 O   0  0  0  0  0  0  0  0  0  0  0  0
   15.6866   23.6494    0.8376 C   0  0  0  0  0  0  0  0  0  0  0  0
   16.2921   22.6469    1.5646 C   0  0  0  0  0  0  0  0  0  0  0  0
   17.5804   22.8584    2.0110 C   0  0  0  0  0  0  0  0  0  0  0  0
   18.2749   24.0240    1.7582 C   0  0  0  0  0  0  0  0  0  0  0  0
   17.6607   25.0063    1.0363 C   0  0  0  0  0  0  0  0  0  0  0  0
   16.3766   24.8161    0.5818 C   0  0  0  0  0  0  0  0  0  0  0  0
   19.6434   24.1557    2.2764 C   0  0  0  0  0  0  0  0  0  0  0  0
   20.7140   24.2745    1.4096 O   0  0  0  0  0  0  0  0  0  0  0  0
   19.8727   24.1638    3.5086 O   0  0  0  0  0  0  0  0  0  0  0  0
   20.6457   24.4736    0.4292 H   0  0  0  0  0  0  0  0  0  0  0  0
   11.2258   21.9481   -0.5157 C   0  0  0  0  0  0  0  0  0  0  0  0
   10.7728   21.4520   -1.7199 C   0  0  0  0  0  0  0  0  0  0  0  0
    9.7040   20.5729   -1.7972 C   0  0  0  0  0  0  0  0  0  0  0  0
    9.0717   20.1810   -0.6303 C   0  0  0  0  0  0  0  0  0  0  0  0
    9.5150   20.6703    0.5793 C   0  0  0  0  0  0  0  0  0  0  0  0
   10.5704   21.5347    0.6198 C   0  0  0  0  0  0  0  0  0  0  0  0
    7.9349   19.2621   -0.6147 C   0  0  0  0  0  0  0  0  0  0  0  0
    6.6783   19.6637   -0.2024 C   0  0  0  0  0  0  0  0  0  0  0  0
    5.6253   18.7852   -0.1976 C   0  0  0  0  0  0  0  0  0  0  0  0
    5.7509   17.4700   -0.5973 C   0  0  0  0  0  0  0  0  0  0  0  0
    7.0059   17.0762   -1.0074 C   0  0  0  0  0  0  0  0  0  0  0  0
    8.0780   17.9522   -1.0170 C   0  0  0  0  0  0  0  0  0  0  0  0
   12.2413   26.9427   -4.1567 C   0  0  0  0  0  0  0  0  0  0  0  0
   14.8574   27.6947   -4.7807 C   0  0  0  0  0  0  0  0  0  0  0  0
   13.8680   28.7386   -4.4641 C   0  0  0  0  0  0  0  0  0  0  0  0
   14.2579   30.0495   -4.4849 C   0  0  0  0  0  0  0  0  0  0  0  0
   13.3615   31.0279   -4.2070 C   0  0  0  0  0  0  0  0  0  0  0  0
   12.0834   30.7049   -3.9105 C   0  0  0  0  0  0  0  0  0  0  0  0
   11.6757   29.3505   -3.8878 C   0  0  0  0  0  0  0  0  0  0  0  0
   12.5361   28.3465   -4.1568 C   0  0  0  0  0  0  0  0  0  0  0  0
 36 37  1  0  0  0
 37 38  2  0  0  0
 38 39  1  0  0  0
 39 40  2  0  0  0
 40 41  1  0  0  0
 41 42  2  0  0  0
 42 35  1  0  0  0
 35  1  1  0  0  0
  1  2  1  0  0  0
  2  3  1  0  0  0
  3  4  1  0  0  0
  4  5  1  0  0  0
  5  6  1  0  0  0
  4  7  1  0  0  0
  7  8  1  0  0  0
  8  9  2  0  0  0
  8 10  1  0  0  0
 10 11  1  0  0  0
 11 12  2  0  0  0
 10 13  1  0  0  0
 13 14  2  0  0  0
 14 15  1  0  0  0
 15 16  2  0  0  0
 16 17  1  0  0  0
 17 18  2  0  0  0
 16 19  1  0  0  0
 19 20  1  0  0  0
 19 21  2  0  0  0
  7 23  1  0  0  0
 23 24  2  0  0  0
 24 25  1  0  0  0
 25 26  2  0  0  0
 26 27  1  0  0  0
 27 28  2  0  0  0
 26 29  1  0  0  0
 29 30  2  0  0  0
 30 31  1  0  0  0
 31 32  2  0  0  0
 32 33  1  0  0  0
 33 34  2  0  0  0
 42 37  1  0  0  0
  6  1  1  0  0  0
 18 13  1  0  0  0
 28 23  1  0  0  0
 34 29  1  0  0  0
 11  4  1  0  0  0
 20 22  1  0  0  0
M  END
> <minimizedAffinity>
23.61355

> <CNNscore>
0.5024451017

> <CNNaffinity>
7.4923830032

> <CNN_VS>
3.7645111084

> <CNNaffinity_variance>
0.4581628442

$$$$
[H]OC(=O)c1c([H])c([H])c(N2C(=O)N(c3c([H])c([H])c(-c4c([H])c([H])c([H])c([H])c4[H])c([H])c3[H])C3(C2=O)C([H])([H])C([H])([H])N(C([H])([H])c2c([H])c([H])c([H])c([H])c2C([H])([H])[H])C([H])([H])C3([H])[H])c([H])c1[H]


 42 47  0  0  0  0  0  0  0  0999 V2000
    9.7365   20.8324   -0.7521 N   0  0  0  0  0  0  0  0  0  0  0  0
    9.0130   21.9510   -0.1511 C   0  0  0  0  0  0  0  0  0  0  0  0
    9.9801   23.1142   -0.1754 C   0  0  0  0  0  0  0  0  0  0  0  0
   10.9381   22.8328    0.9910 C   0  0  0  0  0  0  0  0  0  0  0  0
   11.2912   21.4145    1.0023 C   0  0  0  0  0  0  0  0  0  0  0  0
   10.9909   20.6017   -0.2441 C   0  0  0  0  0  0  0  0  0  0  0  0
   11.9727   23.8074    1.0633 N   0  0  0  0  0  0  0  0  0  0  0  0
   11.2664   25.0238    1.4243 C   0  0  0  0  0  0  0  0  0  0  0  0
   11.6287   26.2081    1.1412 O   0  0  0  0  0  0  0  0  0  0  0  0
   10.1015   24.6540    2.1492 N   0  0  0  0  0  0  0  0  0  0  0  0
   10.1280   23.2324    2.2121 C   0  0  0  0  0  0  0  0  0  0  0  0
    9.6042   22.4919    3.0749 O   0  0  0  0  0  0  0  0  0  0  0  0
    9.0863   25.4762    2.7184 C   0  0  0  0  0  0  0  0  0  0  0  0
    9.3450   26.4276    3.6817 C   0  0  0  0  0  0  0  0  0  0  0  0
    8.2839   27.1652    4.1648 C   0  0  0  0  0  0  0  0  0  0  0  0
    6.9887   26.9857    3.7228 C   0  0  0  0  0  0  0  0  0  0  0  0
    6.7500   26.0397    2.7681 C   0  0  0  0  0  0  0  0  0  0  0  0
    7.7936   25.2932    2.2729 C   0  0  0  0  0  0  0  0  0  0  0  0
    5.9253   27.8202    4.2985 C   0  0  0  0  0  0  0  0  0  0  0  0
    5.4388   28.9138    3.6065 O   0  0  0  0  0  0  0  0  0  0  0  0
    5.4360   27.5631    5.4234 O   0  0  0  0  0  0  0  0  0  0  0  0
    5.6056   29.1062    2.6366 H   0  0  0  0  0  0  0  0  0  0  0  0
   13.3732   23.7962    0.8678 C   0  0  0  0  0  0  0  0  0  0  0  0
   13.9694   24.9789    0.4840 C   0  0  0  0  0  0  0  0  0  0  0  0
   15.3362   25.0795    0.2771 C   0  0  0  0  0  0  0  0  0  0  0  0
   16.1271   23.9588    0.4609 C   0  0  0  0  0  0  0  0  0  0  0  0
   15.5427   22.7710    0.8439 C   0  0  0  0  0  0  0  0  0  0  0  0
   14.1935   22.7065    1.0392 C   0  0  0  0  0  0  0  0  0  0  0  0
   17.5752   23.9691    0.2617 C   0  0  0  0  0  0  0  0  0  0  0  0
   18.1374   24.0769   -0.9964 C   0  0  0  0  0  0  0  0  0  0  0  0
   19.4989   24.0864   -1.1600 C   0  0  0  0  0  0  0  0  0  0  0  0
   20.3771   23.9916   -0.0993 C   0  0  0  0  0  0  0  0  0  0  0  0
   19.8103   23.8847    1.1519 C   0  0  0  0  0  0  0  0  0  0  0  0
   18.4376   23.8735    1.3318 C   0  0  0  0  0  0  0  0  0  0  0  0
    8.9680   20.0819   -1.5881 C   0  0  0  0  0  0  0  0  0  0  0  0
    6.4564   20.3519   -2.7790 C   0  0  0  0  0  0  0  0  0  0  0  0
    6.6997   19.2202   -1.8686 C   0  0  0  0  0  0  0  0  0  0  0  0
    5.6878   18.3310   -1.6313 C   0  0  0  0  0  0  0  0  0  0  0  0
    5.8925   17.2757   -0.8050 C   0  0  0  0  0  0  0  0  0  0  0  0
    7.0974   17.1049   -0.2179 C   0  0  0  0  0  0  0  0  0  0  0  0
    8.1467   18.0219   -0.4603 C   0  0  0  0  0  0  0  0  0  0  0  0
    7.9847   19.0858   -1.2744 C   0  0  0  0  0  0  0  0  0  0  0  0
 36 37  1  0  0  0
 37 38  2  0  0  0
 38 39  1  0  0  0
 39 40  2  0  0  0
 40 41  1  0  0  0
 41 42  2  0  0  0
 42 35  1  0  0  0
 35  1  1  0  0  0
  1  2  1  0  0  0
  2  3  1  0  0  0
  3  4  1  0  0  0
  4  5  1  0  0  0
  5  6  1  0  0  0
  4  7  1  0  0  0
  7  8  1  0  0  0
  8  9  2  0  0  0
  8 10  1  0  0  0
 10 11  1  0  0  0
 11 12  2  0  0  0
 10 13  1  0  0  0
 13 14  2  0  0  0
 14 15  1  0  0  0
 15 16  2  0  0  0
 16 17  1  0  0  0
 17 18  2  0  0  0
 16 19  1  0  0  0
 19 20  1  0  0  0
 19 21  2  0  0  0
  7 23  1  0  0  0
 23 24  2  0  0  0
 24 25  1  0  0  0
 25 26  2  0  0  0
 26 27  1  0  0  0
 27 28  2  0  0  0
 26 29  1  0  0  0
 29 30  2  0  0  0
 30 31  1  0  0  0
 31 32  2  0  0  0
 32 33  1  0  0  0
 33 34  2  0  0  0
 42 37  1  0  0  0
  6  1  1  0  0  0
 18 13  1  0  0  0
 28 23  1  0  0  0
 34 29  1  0  0  0
 11  4  1  0  0  0
 20 22  1  0  0  0
M  END
> <minimizedAffinity>
8.77875

> <CNNscore>
0.4789135158

> <CNNaffinity>
7.0900321007

> <CNN_VS>
3.3955121040

> <CNNaffinity_variance>
0.3217417896

$$$$
[H]OC(=O)c1c([H])c([H])c(N2C(=O)N(c3c([H])c([H])c(-c4c([H])c([H])c([H])c([H])c4[H])c([H])c3[H])C3(C2=O)C([H])([H])C([H])([H])N(C([H])([H])c2c([H])c([H])c([H])c([H])c2C([H])([H])[H])C([H])([H])C3([H])[H])c([H])c1[H]


 42 47  0  0  0  0  0  0  0  0999 V2000
   14.0657   25.5142   -3.7468 N   0  0  0  0  0  0  0  0  0  0  0  0
   12.8703   24.9091   -3.1628 C   0  0  0  0  0  0  0  0  0  0  0  0
   13.1561   24.8051   -1.6808 C   0  0  0  0  0  0  0  0  0  0  0  0
   14.0868   23.5898   -1.5605 C   0  0  0  0  0  0  0  0  0  0  0  0
   15.0799   23.6266   -2.6323 C   0  0  0  0  0  0  0  0  0  0  0  0
   15.2557   24.9313   -3.3880 C   0  0  0  0  0  0  0  0  0  0  0  0
   14.5190   23.3944   -0.2186 N   0  0  0  0  0  0  0  0  0  0  0  0
   13.3005   23.0222    0.4781 C   0  0  0  0  0  0  0  0  0  0  0  0
   13.0564   23.2177    1.7094 O   0  0  0  0  0  0  0  0  0  0  0  0
   12.4326   22.4016   -0.4605 N   0  0  0  0  0  0  0  0  0  0  0  0
   13.1396   22.4101   -1.6957 C   0  0  0  0  0  0  0  0  0  0  0  0
   13.0066   21.6259   -2.6622 O   0  0  0  0  0  0  0  0  0  0  0  0
   11.1262   21.8641   -0.2729 C   0  0  0  0  0  0  0  0  0  0  0  0
   10.0457   22.6341    0.1009 C   0  0  0  0  0  0  0  0  0  0  0  0
    8.8266   22.0071    0.2565 C   0  0  0  0  0  0  0  0  0  0  0  0
    8.6537   20.6528    0.0537 C   0  0  0  0  0  0  0  0  0  0  0  0
    9.7340   19.9051   -0.3166 C   0  0  0  0  0  0  0  0  0  0  0  0
   10.9586   20.5102   -0.4773 C   0  0  0  0  0  0  0  0  0  0  0  0
    7.3158   20.0766    0.2448 C   0  0  0  0  0  0  0  0  0  0  0  0
    6.6848   19.4088   -0.7884 O   0  0  0  0  0  0  0  0  0  0  0  0
    6.7174   20.1751    1.3417 O   0  0  0  0  0  0  0  0  0  0  0  0
    7.1274   19.0994   -1.6333 H   0  0  0  0  0  0  0  0  0  0  0  0
   15.7571   23.4907    0.4578 C   0  0  0  0  0  0  0  0  0  0  0  0
   16.4290   24.6925    0.3827 C   0  0  0  0  0  0  0  0  0  0  0  0
   17.6437   24.8961    1.0184 C   0  0  0  0  0  0  0  0  0  0  0  0
   18.1997   23.8619    1.7508 C   0  0  0  0  0  0  0  0  0  0  0  0
   17.5378   22.6559    1.8328 C   0  0  0  0  0  0  0  0  0  0  0  0
   16.3431   22.4889    1.1945 C   0  0  0  0  0  0  0  0  0  0  0  0
   19.4775   23.9833    2.4504 C   0  0  0  0  0  0  0  0  0  0  0  0
   20.6813   24.0043    1.7715 C   0  0  0  0  0  0  0  0  0  0  0  0
   21.8684   24.1209    2.4479 C   0  0  0  0  0  0  0  0  0  0  0  0
   21.9351   24.2234    3.8229 C   0  0  0  0  0  0  0  0  0  0  0  0
   20.7318   24.2021    4.4934 C   0  0  0  0  0  0  0  0  0  0  0  0
   19.5259   24.0845    3.8235 C   0  0  0  0  0  0  0  0  0  0  0  0
   13.7865   26.4400   -4.7048 C   0  0  0  0  0  0  0  0  0  0  0  0
   16.0178   27.9436   -5.4530 C   0  0  0  0  0  0  0  0  0  0  0  0
   14.8168   28.6398   -4.9612 C   0  0  0  0  0  0  0  0  0  0  0  0
   14.8270   30.0054   -4.8847 C   0  0  0  0  0  0  0  0  0  0  0  0
   13.7290   30.6679   -4.4448 C   0  0  0  0  0  0  0  0  0  0  0  0
   12.6259   29.9764   -4.0833 C   0  0  0  0  0  0  0  0  0  0  0  0
   12.6108   28.5641   -4.1608 C   0  0  0  0  0  0  0  0  0  0  0  0
   13.6823   27.8662   -4.5915 C   0  0  0  0  0  0  0  0  0  0  0  0
 36 37  1  0  0  0
 37 38  2  0  0  0
 38 39  1  0  0  0
 39 40  2  0  0  0
 40 41  1  0  0  0
 41 42  2  0  0  0
 42 35  1  0  0  0
 35  1  1  0  0  0
  1  2  1  0  0  0
  2  3  1  0  0  0
  3  4  1  0  0  0
  4  5  1  0  0  0
  5  6  1  0  0  0
  4  7  1  0  0  0
  7  8  1  0  0  0
  8  9  2  0  0  0
  8 10  1  0  0  0
 10 11  1  0  0  0
 11 12  2  0  0  0
 10 13  1  0  0  0
 13 14  2  0  0  0
 14 15  1  0  0  0
 15 16  2  0  0  0
 16 17  1  0  0  0
 17 18  2  0  0  0
 16 19  1  0  0  0
 19 20  1  0  0  0
 19 21  2  0  0  0
  7 23  1  0  0  0
 23 24  2  0  0  0
 24 25  1  0  0  0
 25 26  2  0  0  0
 26 27  1  0  0  0
 27 28  2  0  0  0
 26 29  1  0  0  0
 29 30  2  0  0  0
 30 31  1  0  0  0
 31 32  2  0  0  0
 32 33  1  0  0  0
 33 34  2  0  0  0
 42 37  1  0  0  0
  6  1  1  0  0  0
 18 13  1  0  0  0
 28 23  1  0  0  0
 34 29  1  0  0  0
 11  4  1  0  0  0
 20 22  1  0  0  0
M  END
> <minimizedAffinity>
34.37430

> <CNNscore>
0.4747358561

> <CNNaffinity>
7.7825498581

> <CNN_VS>
3.6946554184

> <CNNaffinity_variance>
0.3715159595

$$$$
[H]OC(=O)c1c([H])c([H])c(N2C(=O)N(c3c([H])c([H])c(-c4c([H])c([H])c([H])c([H])c4[H])c([H])c3[H])C3(C2=O)C([H])([H])C([H])([H])N(C([H])([H])c2c([H])c([H])c([H])c([H])c2C([H])([H])[H])C([H])([H])C3([H])[H])c([H])c1[H]


 42 47  0  0  0  0  0  0  0  0999 V2000
   16.1083   22.4875    1.2732 N   0  0  0  0  0  0  0  0  0  0  0  0
   16.1462   23.4229    0.1510 C   0  0  0  0  0  0  0  0  0  0  0  0
   14.7454   23.9855    0.0496 C   0  0  0  0  0  0  0  0  0  0  0  0
   13.9398   22.8710   -0.6332 C   0  0  0  0  0  0  0  0  0  0  0  0
   14.3135   21.5780   -0.0630 C   0  0  0  0  0  0  0  0  0  0  0  0
   15.0795   21.5788    1.2475 C   0  0  0  0  0  0  0  0  0  0  0  0
   12.5622   23.2123   -0.7384 N   0  0  0  0  0  0  0  0  0  0  0  0
   12.5598   24.3233   -1.6735 C   0  0  0  0  0  0  0  0  0  0  0  0
   11.6997   25.2572   -1.7195 O   0  0  0  0  0  0  0  0  0  0  0  0
   13.6877   24.1796   -2.5259 N   0  0  0  0  0  0  0  0  0  0  0  0
   14.3430   22.9928   -2.0925 C   0  0  0  0  0  0  0  0  0  0  0  0
   15.0778   22.2327   -2.7629 O   0  0  0  0  0  0  0  0  0  0  0  0
   14.1256   25.0062   -3.6008 C   0  0  0  0  0  0  0  0  0  0  0  0
   13.5538   26.2272   -3.8882 C   0  0  0  0  0  0  0  0  0  0  0  0
   14.0565   26.9424   -4.9555 C   0  0  0  0  0  0  0  0  0  0  0  0
   15.0986   26.4837   -5.7357 C   0  0  0  0  0  0  0  0  0  0  0  0
   15.6537   25.2729   -5.4371 C   0  0  0  0  0  0  0  0  0  0  0  0
   15.1677   24.5434   -4.3772 C   0  0  0  0  0  0  0  0  0  0  0  0
   15.5642   27.3182   -6.8517 C   0  0  0  0  0  0  0  0  0  0  0  0
   16.0186   26.7370   -8.0210 O   0  0  0  0  0  0  0  0  0  0  0  0
   15.5607   28.5690   -6.7721 O   0  0  0  0  0  0  0  0  0  0  0  0
   15.8913   25.7759   -8.2772 H   0  0  0  0  0  0  0  0  0  0  0  0
   11.3642   22.7256   -0.1660 C   0  0  0  0  0  0  0  0  0  0  0  0
   11.1914   22.9035    1.1904 C   0  0  0  0  0  0  0  0  0  0  0  0
   10.0494   22.4745    1.8483 C   0  0  0  0  0  0  0  0  0  0  0  0
    9.0518   21.8480    1.1219 C   0  0  0  0  0  0  0  0  0  0  0  0
    9.2132   21.6640   -0.2343 C   0  0  0  0  0  0  0  0  0  0  0  0
   10.3505   22.0987   -0.8509 C   0  0  0  0  0  0  0  0  0  0  0  0
    7.8161   21.3588    1.7305 C   0  0  0  0  0  0  0  0  0  0  0  0
    6.7937   20.8196    0.9726 C   0  0  0  0  0  0  0  0  0  0  0  0
    5.6435   20.3649    1.5647 C   0  0  0  0  0  0  0  0  0  0  0  0
    5.4380   20.4150    2.9288 C   0  0  0  0  0  0  0  0  0  0  0  0
    6.4610   20.9533    3.6785 C   0  0  0  0  0  0  0  0  0  0  0  0
    7.6274   21.4165    3.0940 C   0  0  0  0  0  0  0  0  0  0  0  0
   17.2154   22.5495    2.0628 C   0  0  0  0  0  0  0  0  0  0  0  0
   18.2082   23.1376   -0.4803 C   0  0  0  0  0  0  0  0  0  0  0  0
   18.8580   23.7354    0.6984 C   0  0  0  0  0  0  0  0  0  0  0  0
   19.9309   24.5637    0.5150 C   0  0  0  0  0  0  0  0  0  0  0  0
   20.5381   25.1336    1.5849 C   0  0  0  0  0  0  0  0  0  0  0  0
   20.0806   24.8818    2.8311 C   0  0  0  0  0  0  0  0  0  0  0  0
   18.9713   24.0259    3.0255 C   0  0  0  0  0  0  0  0  0  0  0  0
   18.3394   23.4376    1.9886 C   0  0  0  0  0  0  0  0  0  0  0  0
 36 37  1  0  0  0
 37 38  2  0  0  0
 38 39  1  0  0  0
 39 40  2  0  0  0
 40 41  1  0  0  0
 41 42  2  0  0  0
 42 35  1  0  0  0
 35  1  1  0  0  0
  1  2  1  0  0  0
  2  3  1  0  0  0
  3  4  1  0  0  0
  4  5  1  0  0  0
  5  6  1  0  0  0
  4  7  1  0  0  0
  7  8  1  0  0  0
  8  9  2  0  0  0
  8 10  1  0  0  0
 10 11  1  0  0  0
 11 12  2  0  0  0
 10 13  1  0  0  0
 13 14  2  0  0  0
 14 15  1  0  0  0
 15 16  2  0  0  0
 16 17  1  0  0  0
 17 18  2  0  0  0
 16 19  1  0  0  0
 19 20  1  0  0  0
 19 21  2  0  0  0
  7 23  1  0  0  0
 23 24  2  0  0  0
 24 25  1  0  0  0
 25 26  2  0  0  0
 26 27  1  0  0  0
 27 28  2  0  0  0
 26 29  1  0  0  0
 29 30  2  0  0  0
 30 31  1  0  0  0
 31 32  2  0  0  0
 32 33  1  0  0  0
 33 34  2  0  0  0
 42 37  1  0  0  0
  6  1  1  0  0  0
 18 13  1  0  0  0
 28 23  1  0  0  0
 34 29  1  0  0  0
 11  4  1  0  0  0
 20 22  1  0  0  0
M  END
> <minimizedAffinity>
13.72313

> <CNNscore>
0.4740208685

> <CNNaffinity>
7.7312927246

> <CNN_VS>
3.6647942066

> <CNNaffinity_variance>
0.2987698913

$$$$
[H]OC(=O)c1c([H])c([H])c(N2C(=O)N(c3c([H])c([H])c([H])c([H])c3[H])C3(C2=O)C([H])([H])C([H])([H])N(C([H])([H])c2nc([H])c([H])c([H])c2C([H])([H])[H])C([H])([H])C3([H])[H])c([H])c1[H]


 36 40  0  0  0  0  0  0  0  0999 V2000
   10.9661   29.4046   -4.3624 N   0  0  0  0  0  0  0  0  0  0  0  0
   10.7996   27.9507   -4.1792 C   0  0  0  0  0  0  0  0  0  0  0  0
   11.9686   27.2570   -4.7488 C   0  0  0  0  0  0  0  0  0  0  0  0
   13.1238   27.5651   -3.7715 C   0  0  0  0  0  0  0  0  0  0  0  0
   13.2924   29.0031   -3.6454 C   0  0  0  0  0  0  0  0  0  0  0  0
   12.2094   29.8970   -4.1858 C   0  0  0  0  0  0  0  0  0  0  0  0
   14.1616   26.6897   -4.1698 N   0  0  0  0  0  0  0  0  0  0  0  0
   13.8301   25.3912   -3.5773 C   0  0  0  0  0  0  0  0  0  0  0  0
   14.2536   24.2719   -3.9631 O   0  0  0  0  0  0  0  0  0  0  0  0
   12.9540   25.6456   -2.4897 N   0  0  0  0  0  0  0  0  0  0  0  0
   12.7512   27.0330   -2.4099 C   0  0  0  0  0  0  0  0  0  0  0  0
   12.3467   27.6553   -1.3939 O   0  0  0  0  0  0  0  0  0  0  0  0
   12.3392   24.6240   -1.6950 C   0  0  0  0  0  0  0  0  0  0  0  0
   11.0175   24.3162   -1.8922 C   0  0  0  0  0  0  0  0  0  0  0  0
   10.3619   23.3940   -1.0914 C   0  0  0  0  0  0  0  0  0  0  0  0
   11.0441   22.7720   -0.0847 C   0  0  0  0  0  0  0  0  0  0  0  0
   12.3957   23.0873    0.1195 C   0  0  0  0  0  0  0  0  0  0  0  0
   13.0472   23.9993   -0.6674 C   0  0  0  0  0  0  0  0  0  0  0  0
   10.3962   21.8277    0.7903 C   0  0  0  0  0  0  0  0  0  0  0  0
    8.9861   21.9017    0.8628 O   0  0  0  0  0  0  0  0  0  0  0  0
   10.9863   20.9945    1.4506 O   0  0  0  0  0  0  0  0  0  0  0  0
    8.3794   21.5357    0.1559 H   0  0  0  0  0  0  0  0  0  0  0  0
   15.2696   26.7809   -5.0134 C   0  0  0  0  0  0  0  0  0  0  0  0
   16.3537   27.4488   -4.4857 C   0  0  0  0  0  0  0  0  0  0  0  0
   17.4706   27.6657   -5.2447 C   0  0  0  0  0  0  0  0  0  0  0  0
   17.5409   27.2185   -6.5642 C   0  0  0  0  0  0  0  0  0  0  0  0
   16.4522   26.5527   -7.0704 C   0  0  0  0  0  0  0  0  0  0  0  0
   15.3136   26.3360   -6.2841 C   0  0  0  0  0  0  0  0  0  0  0  0
    9.7162   29.9644   -4.0773 C   0  0  0  0  0  0  0  0  0  0  0  0
    7.3646   30.1601   -2.3860 C   0  0  0  0  0  0  0  0  0  0  0  0
    7.3167   29.5649   -3.7394 C   0  0  0  0  0  0  0  0  0  0  0  0
    6.0978   29.1611   -4.2511 C   0  0  0  0  0  0  0  0  0  0  0  0
    5.9983   28.6037   -5.5058 C   0  0  0  0  0  0  0  0  0  0  0  0
    7.1459   28.4552   -6.2427 C   0  0  0  0  0  0  0  0  0  0  0  0
    8.3048   28.8554   -5.7191 N   0  0  0  0  0  0  0  0  0  0  0  0
    8.4622   29.4086   -4.5003 C   0  0  0  0  0  0  0  0  0  0  0  0
 30 31  1  0  0  0
 31 32  2  0  0  0
 32 33  1  0  0  0
 33 34  2  0  0  0
 34 35  1  0  0  0
 35 36  2  0  0  0
 36 29  1  0  0  0
 29  1  1  0  0  0
  1  2  1  0  0  0
  2  3  1  0  0  0
  3  4  1  0  0  0
  4  5  1  0  0  0
  5  6  1  0  0  0
  4  7  1  0  0  0
  7  8  1  0  0  0
  8  9  2  0  0  0
  8 10  1  0  0  0
 10 11  1  0  0  0
 11 12  2  0  0  0
 10 13  1  0  0  0
 13 14  2  0  0  0
 14 15  1  0  0  0
 15 16  2  0  0  0
 16 17  1  0  0  0
 17 18  2  0  0  0
 16 19  1  0  0  0
 19 20  1  0  0  0
 19 21  2  0  0  0
  7 23  1  0  0  0
 23 24  2  0  0  0
 24 25  1  0  0  0
 25 26  2  0  0  0
 26 27  1  0  0  0
 27 28  2  0  0  0
 36 31  1  0  0  0
  6  1  1  0  0  0
 18 13  1  0  0  0
 28 23  1  0  0  0
 11  4  1  0  0  0
 20 22  1  0  0  0
M  END
> <minimizedAffinity>
22.13498

> <CNNscore>
0.5867934227

> <CNNaffinity>
6.9846878052

> <CNN_VS>
4.0985689163

> <CNNaffinity_variance>
0.8690822721

$$$$
[H]OC(=O)c1c([H])c([H])c(N2C(=O)N(c3c([H])c([H])c([H])c([H])c3[H])C3(C2=O)C([H])([H])C([H])([H])N(C([H])([H])c2nc([H])c([H])c([H])c2C([H])([H])[H])C([H])([H])C3([H])[H])c([H])c1[H]


 36 40  0  0  0  0  0  0  0  0999 V2000
   12.4063   26.4501   -3.2370 N   0  0  0  0  0  0  0  0  0  0  0  0
   13.1377   26.4626   -1.9564 C   0  0  0  0  0  0  0  0  0  0  0  0
   12.3772   25.6867   -0.9604 C   0  0  0  0  0  0  0  0  0  0  0  0
   12.5407   24.2152   -1.3996 C   0  0  0  0  0  0  0  0  0  0  0  0
   12.0670   24.0526   -2.7639 C   0  0  0  0  0  0  0  0  0  0  0  0
   11.8102   25.2900   -3.5806 C   0  0  0  0  0  0  0  0  0  0  0  0
   12.0437   23.4669   -0.3065 N   0  0  0  0  0  0  0  0  0  0  0  0
   13.1316   23.4336    0.6746 C   0  0  0  0  0  0  0  0  0  0  0  0
   13.0109   23.2107    1.9061 O   0  0  0  0  0  0  0  0  0  0  0  0
   14.3343   23.6909   -0.0342 N   0  0  0  0  0  0  0  0  0  0  0  0
   14.0103   23.8748   -1.3883 C   0  0  0  0  0  0  0  0  0  0  0  0
   14.8107   23.7640   -2.3528 O   0  0  0  0  0  0  0  0  0  0  0  0
   15.6212   23.8184    0.5832 C   0  0  0  0  0  0  0  0  0  0  0  0
   16.2488   25.0376    0.5946 C   0  0  0  0  0  0  0  0  0  0  0  0
   17.5280   25.1882    1.1071 C   0  0  0  0  0  0  0  0  0  0  0  0
   18.1806   24.1019    1.6170 C   0  0  0  0  0  0  0  0  0  0  0  0
   17.5405   22.8538    1.6041 C   0  0  0  0  0  0  0  0  0  0  0  0
   16.2778   22.6994    1.0968 C   0  0  0  0  0  0  0  0  0  0  0  0
   19.5218   24.2058    2.1343 C   0  0  0  0  0  0  0  0  0  0  0  0
   19.6486   24.3082    3.5388 O   0  0  0  0  0  0  0  0  0  0  0  0
   20.5210   24.2097    1.4415 O   0  0  0  0  0  0  0  0  0  0  0  0
   19.5601   23.5263    4.1571 H   0  0  0  0  0  0  0  0  0  0  0  0
   10.8143   22.9004    0.0329 C   0  0  0  0  0  0  0  0  0  0  0  0
   10.6160   21.6151   -0.4239 C   0  0  0  0  0  0  0  0  0  0  0  0
    9.4211   20.9826   -0.2168 C   0  0  0  0  0  0  0  0  0  0  0  0
    8.3791   21.6182    0.4586 C   0  0  0  0  0  0  0  0  0  0  0  0
    8.5973   22.8968    0.9085 C   0  0  0  0  0  0  0  0  0  0  0  0
    9.8249   23.5349    0.6909 C   0  0  0  0  0  0  0  0  0  0  0  0
   13.0175   27.4288   -4.0280 C   0  0  0  0  0  0  0  0  0  0  0  0
   15.8251   27.3478   -3.2933 C   0  0  0  0  0  0  0  0  0  0  0  0
   15.3580   27.0425   -4.6633 C   0  0  0  0  0  0  0  0  0  0  0  0
   16.2775   26.6255   -5.6075 C   0  0  0  0  0  0  0  0  0  0  0  0
   15.8945   26.3266   -6.8955 C   0  0  0  0  0  0  0  0  0  0  0  0
   14.5688   26.4544   -7.2243 C   0  0  0  0  0  0  0  0  0  0  0  0
   13.7086   26.8587   -6.2896 N   0  0  0  0  0  0  0  0  0  0  0  0
   14.0249   27.1623   -5.0151 C   0  0  0  0  0  0  0  0  0  0  0  0
 30 31  1  0  0  0
 31 32  2  0  0  0
 32 33  1  0  0  0
 33 34  2  0  0  0
 34 35  1  0  0  0
 35 36  2  0  0  0
 36 29  1  0  0  0
 29  1  1  0  0  0
  1  2  1  0  0  0
  2  3  1  0  0  0
  3  4  1  0  0  0
  4  5  1  0  0  0
  5  6  1  0  0  0
  4  7  1  0  0  0
  7  8  1  0  0  0
  8  9  2  0  0  0
  8 10  1  0  0  0
 10 11  1  0  0  0
 11 12  2  0  0  0
 10 13  1  0  0  0
 13 14  2  0  0  0
 14 15  1  0  0  0
 15 16  2  0  0  0
 16 17  1  0  0  0
 17 18  2  0  0  0
 16 19  1  0  0  0
 19 20  1  0  0  0
 19 21  2  0  0  0
  7 23  1  0  0  0
 23 24  2  0  0  0
 24 25  1  0  0  0
 25 26  2  0  0  0
 26 27  1  0  0  0
 27 28  2  0  0  0
 36 31  1  0  0  0
  6  1  1  0  0  0
 18 13  1  0  0  0
 28 23  1  0  0  0
 11  4  1  0  0  0
 20 22  1  0  0  0
M  END
> <minimizedAffinity>
11.83365

> <CNNscore>
0.5864534378

> <CNNaffinity>
7.5337996483

> <CNN_VS>
4.4182229042

> <CNNaffinity_variance>
0.6483599544

$$$$
[H]OC(=O)c1c([H])c([H])c(N2C(=O)N(c3c([H])c([H])c([H])c([H])c3[H])C3(C2=O)C([H])([H])C([H])([H])N(C([H])([H])c2nc([H])c([H])c([H])c2C([H])([H])[H])C([H])([H])C3([H])[H])c([H])c1[H]


 36 40  0  0  0  0  0  0  0  0999 V2000
   15.1959   25.5898   -3.7270 N   0  0  0  0  0  0  0  0  0  0  0  0
   14.5849   24.3848   -3.1357 C   0  0  0  0  0  0  0  0  0  0  0  0
   15.5104   23.8155   -2.1398 C   0  0  0  0  0  0  0  0  0  0  0  0
   15.4671   24.8027   -0.9529 C   0  0  0  0  0  0  0  0  0  0  0  0
   15.8315   26.1345   -1.4062 C   0  0  0  0  0  0  0  0  0  0  0  0
   15.8799   26.3941   -2.8875 C   0  0  0  0  0  0  0  0  0  0  0  0
   16.1374   24.1231    0.0915 N   0  0  0  0  0  0  0  0  0  0  0  0
   15.1516   23.1965    0.6543 C   0  0  0  0  0  0  0  0  0  0  0  0
   15.4053   22.1644    1.3260 O   0  0  0  0  0  0  0  0  0  0  0  0
   13.8696   23.6944    0.3025 N   0  0  0  0  0  0  0  0  0  0  0  0
   14.0495   24.8717   -0.4417 C   0  0  0  0  0  0  0  0  0  0  0  0
   13.1826   25.7673   -0.6137 O   0  0  0  0  0  0  0  0  0  0  0  0
   12.6370   23.0281    0.6025 C   0  0  0  0  0  0  0  0  0  0  0  0
   12.5678   21.6612    0.5165 C   0  0  0  0  0  0  0  0  0  0  0  0
   11.3757   20.9829    0.7175 C   0  0  0  0  0  0  0  0  0  0  0  0
   10.2427   21.6867    1.0122 C   0  0  0  0  0  0  0  0  0  0  0  0
   10.3116   23.0851    1.0985 C   0  0  0  0  0  0  0  0  0  0  0  0
   11.4863   23.7600    0.8985 C   0  0  0  0  0  0  0  0  0  0  0  0
    8.9758   21.0261    1.2012 C   0  0  0  0  0  0  0  0  0  0  0  0
    8.5565   20.8396    2.5386 O   0  0  0  0  0  0  0  0  0  0  0  0
    8.2702   20.6323    0.2926 O   0  0  0  0  0  0  0  0  0  0  0  0
    8.1642   21.5705    3.0986 H   0  0  0  0  0  0  0  0  0  0  0  0
   17.4459   24.0886    0.5754 C   0  0  0  0  0  0  0  0  0  0  0  0
   17.5829   24.3853    1.9145 C   0  0  0  0  0  0  0  0  0  0  0  0
   18.8237   24.4550    2.4854 C   0  0  0  0  0  0  0  0  0  0  0  0
   19.9755   24.2283    1.7318 C   0  0  0  0  0  0  0  0  0  0  0  0
   19.8180   23.9310    0.4007 C   0  0  0  0  0  0  0  0  0  0  0  0
   18.5424   23.8621   -0.1735 C   0  0  0  0  0  0  0  0  0  0  0  0
   14.4148   25.8959   -4.8466 C   0  0  0  0  0  0  0  0  0  0  0  0
   15.9616   28.2680   -5.4862 C   0  0  0  0  0  0  0  0  0  0  0  0
   15.7400   27.1818   -6.4656 C   0  0  0  0  0  0  0  0  0  0  0  0
   16.3558   27.2573   -7.7009 C   0  0  0  0  0  0  0  0  0  0  0  0
   16.1844   26.2720   -8.6468 C   0  0  0  0  0  0  0  0  0  0  0  0
   15.3807   25.2052   -8.3341 C   0  0  0  0  0  0  0  0  0  0  0  0
   14.8021   25.1636   -7.1338 N   0  0  0  0  0  0  0  0  0  0  0  0
   14.9352   26.0956   -6.1693 C   0  0  0  0  0  0  0  0  0  0  0  0
 30 31  1  0  0  0
 31 32  2  0  0  0
 32 33  1  0  0  0
 33 34  2  0  0  0
 34 35  1  0  0  0
 35 36  2  0  0  0
 36 29  1  0  0  0
 29  1  1  0  0  0
  1  2  1  0  0  0
  2  3  1  0  0  0
  3  4  1  0  0  0
  4  5  1  0  0  0
  5  6  1  0  0  0
  4  7  1  0  0  0
  7  8  1  0  0  0
  8  9  2  0  0  0
  8 10  1  0  0  0
 10 11  1  0  0  0
 11 12  2  0  0  0
 10 13  1  0  0  0
 13 14  2  0  0  0
 14 15  1  0  0  0
 15 16  2  0  0  0
 16 17  1  0  0  0
 17 18  2  0  0  0
 16 19  1  0  0  0
 19 20  1  0  0  0
 19 21  2  0  0  0
  7 23  1  0  0  0
 23 24  2  0  0  0
 24 25  1  0  0  0
 25 26  2  0  0  0
 26 27  1  0  0  0
 27 28  2  0  0  0
 36 31  1  0  0  0
  6  1  1  0  0  0
 18 13  1  0  0  0
 28 23  1  0  0  0
 11  4  1  0  0  0
 20 22  1  0  0  0
M  END
> <minimizedAffinity>
7.97571

> <CNNscore>
0.5861263275

> <CNNaffinity>
7.7855072021

> <CNN_VS>
4.5632905960

> <CNNaffinity_variance>
1.0482847691

$$$$
[H]OC(=O)c1c([H])c([H])c(N2C(=O)N(c3c([H])c([H])c([H])c([H])c3[H])C3(C2=O)C([H])([H])C([H])([H])N(C([H])([H])c2nc([H])c([H])c([H])c2C([H])([H])[H])C([H])([H])C3([H])[H])c([H])c1[H]


 36 40  0  0  0  0  0  0  0  0999 V2000
   11.9669   22.0533   -1.2692 N   0  0  0  0  0  0  0  0  0  0  0  0
   13.4318   22.0207   -1.1019 C   0  0  0  0  0  0  0  0  0  0  0  0
   14.0576   22.7929   -2.1902 C   0  0  0  0  0  0  0  0  0  0  0  0
   13.7379   24.2674   -1.8607 C   0  0  0  0  0  0  0  0  0  0  0  0
   12.2997   24.4486   -1.7576 C   0  0  0  0  0  0  0  0  0  0  0  0
   11.4315   23.2223   -1.6768 C   0  0  0  0  0  0  0  0  0  0  0  0
   14.5565   25.0086   -2.7453 N   0  0  0  0  0  0  0  0  0  0  0  0
   15.8873   25.0217   -2.1321 C   0  0  0  0  0  0  0  0  0  0  0  0
   16.9744   25.2326   -2.7275 O   0  0  0  0  0  0  0  0  0  0  0  0
   15.7065   24.7610   -0.7484 N   0  0  0  0  0  0  0  0  0  0  0  0
   14.3321   24.5944   -0.5132 C   0  0  0  0  0  0  0  0  0  0  0  0
   13.7625   24.7081    0.6030 O   0  0  0  0  0  0  0  0  0  0  0  0
   16.7793   24.6155    0.1904 C   0  0  0  0  0  0  0  0  0  0  0  0
   16.9342   25.5411    1.1903 C   0  0  0  0  0  0  0  0  0  0  0  0
   18.0050   25.4848    2.0689 C   0  0  0  0  0  0  0  0  0  0  0  0
   18.9267   24.4847    1.9429 C   0  0  0  0  0  0  0  0  0  0  0  0
   18.7705   23.5383    0.9193 C   0  0  0  0  0  0  0  0  0  0  0  0
   17.7158   23.5909    0.0474 C   0  0  0  0  0  0  0  0  0  0  0  0
   20.0708   24.4030    2.8156 C   0  0  0  0  0  0  0  0  0  0  0  0
   19.8055   24.4194    4.2043 O   0  0  0  0  0  0  0  0  0  0  0  0
   21.2201   24.3233    2.4270 O   0  0  0  0  0  0  0  0  0  0  0  0
   19.4687   23.6234    4.7090 H   0  0  0  0  0  0  0  0  0  0  0  0
   14.3914   25.5826   -4.0065 C   0  0  0  0  0  0  0  0  0  0  0  0
   15.2096   25.0744   -4.9926 C   0  0  0  0  0  0  0  0  0  0  0  0
   15.1908   25.6078   -6.2518 C   0  0  0  0  0  0  0  0  0  0  0  0
   14.3475   26.6729   -6.5687 C   0  0  0  0  0  0  0  0  0  0  0  0
   13.5381   27.1628   -5.5739 C   0  0  0  0  0  0  0  0  0  0  0  0
   13.5655   26.6088   -4.2879 C   0  0  0  0  0  0  0  0  0  0  0  0
   11.4679   21.0775   -0.3998 C   0  0  0  0  0  0  0  0  0  0  0  0
    8.6865   21.5942    0.2527 C   0  0  0  0  0  0  0  0  0  0  0  0
    9.7359   21.4948    1.2905 C   0  0  0  0  0  0  0  0  0  0  0  0
    9.3711   21.5692    2.6217 C   0  0  0  0  0  0  0  0  0  0  0  0
   10.3082   21.4799    3.6261 C   0  0  0  0  0  0  0  0  0  0  0  0
   11.6237   21.3155    3.2733 C   0  0  0  0  0  0  0  0  0  0  0  0
   11.9410   21.2475    1.9803 N   0  0  0  0  0  0  0  0  0  0  0  0
   11.0683   21.3262    0.9562 C   0  0  0  0  0  0  0  0  0  0  0  0
 30 31  1  0  0  0
 31 32  2  0  0  0
 32 33  1  0  0  0
 33 34  2  0  0  0
 34 35  1  0  0  0
 35 36  2  0  0  0
 36 29  1  0  0  0
 29  1  1  0  0  0
  1  2  1  0  0  0
  2  3  1  0  0  0
  3  4  1  0  0  0
  4  5  1  0  0  0
  5  6  1  0  0  0
  4  7  1  0  0  0
  7  8  1  0  0  0
  8  9  2  0  0  0
  8 10  1  0  0  0
 10 11  1  0  0  0
 11 12  2  0  0  0
 10 13  1  0  0  0
 13 14  2  0  0  0
 14 15  1  0  0  0
 15 16  2  0  0  0
 16 17  1  0  0  0
 17 18  2  0  0  0
 16 19  1  0  0  0
 19 20  1  0  0  0
 19 21  2  0  0  0
  7 23  1  0  0  0
 23 24  2  0  0  0
 24 25  1  0  0  0
 25 26  2  0  0  0
 26 27  1  0  0  0
 27 28  2  0  0  0
 36 31  1  0  0  0
  6  1  1  0  0  0
 18 13  1  0  0  0
 28 23  1  0  0  0
 11  4  1  0  0  0
 20 22  1  0  0  0
M  END
> <minimizedAffinity>
9.24943

> <CNNscore>
0.5734835863

> <CNNaffinity>
7.9240274429

> <CNN_VS>
4.5442996025

> <CNNaffinity_variance>
0.8447259665

$$$$
[H]OC(=O)c1c([H])c([H])c(N2C(=O)N(c3c([H])c([H])c([H])c([H])c3[H])C3(C2=O)C([H])([H])C([H])([H])N(C([H])([H])c2nc([H])c([H])c([H])c2C([H])([H])[H])C([H])([H])C3([H])[H])c([H])c1[H]


 36 40  0  0  0  0  0  0  0  0999 V2000
   16.5312   24.2723    0.1471 N   0  0  0  0  0  0  0  0  0  0  0  0
   15.1259   24.5279    0.5142 C   0  0  0  0  0  0  0  0  0  0  0  0
   14.4759   25.2864   -0.5696 C   0  0  0  0  0  0  0  0  0  0  0  0
   14.3184   24.2701   -1.7216 C   0  0  0  0  0  0  0  0  0  0  0  0
   15.6172   23.7238   -2.0779 C   0  0  0  0  0  0  0  0  0  0  0  0
   16.7720   23.9665   -1.1443 C   0  0  0  0  0  0  0  0  0  0  0  0
   13.4644   24.9180   -2.6451 N   0  0  0  0  0  0  0  0  0  0  0  0
   12.1080   24.7355   -2.1215 C   0  0  0  0  0  0  0  0  0  0  0  0
   11.1050   25.4393   -2.4034 O   0  0  0  0  0  0  0  0  0  0  0  0
   12.1492   23.6150   -1.2508 N   0  0  0  0  0  0  0  0  0  0  0  0
   13.4654   23.1253   -1.2342 C   0  0  0  0  0  0  0  0  0  0  0  0
   13.8100   21.9674   -0.8826 O   0  0  0  0  0  0  0  0  0  0  0  0
   11.0342   23.1551   -0.4772 C   0  0  0  0  0  0  0  0  0  0  0  0
   10.6763   23.8296    0.6620 C   0  0  0  0  0  0  0  0  0  0  0  0
    9.6577   23.3726    1.4837 C   0  0  0  0  0  0  0  0  0  0  0  0
    8.9895   22.2278    1.1536 C   0  0  0  0  0  0  0  0  0  0  0  0
    9.3559   21.5358   -0.0103 C   0  0  0  0  0  0  0  0  0  0  0  0
   10.3630   21.9818   -0.8241 C   0  0  0  0  0  0  0  0  0  0  0  0
    7.9431   21.7003    1.9925 C   0  0  0  0  0  0  0  0  0  0  0  0
    8.3559   21.0259    3.1647 O   0  0  0  0  0  0  0  0  0  0  0  0
    6.7565   21.8036    1.7482 O   0  0  0  0  0  0  0  0  0  0  0  0
    8.6650   21.4988    3.9909 H   0  0  0  0  0  0  0  0  0  0  0  0
   13.6457   25.7045   -3.7835 C   0  0  0  0  0  0  0  0  0  0  0  0
   14.6252   25.2656   -4.6482 C   0  0  0  0  0  0  0  0  0  0  0  0
   14.9444   25.9940   -5.7610 C   0  0  0  0  0  0  0  0  0  0  0  0
   14.2902   27.1922   -6.0477 C   0  0  0  0  0  0  0  0  0  0  0  0
   13.3155   27.6107   -5.1761 C   0  0  0  0  0  0  0  0  0  0  0  0
   12.9967   26.8568   -4.0397 C   0  0  0  0  0  0  0  0  0  0  0  0
   17.1499   23.8247    1.3193 C   0  0  0  0  0  0  0  0  0  0  0  0
   19.2029   23.5998   -0.7211 C   0  0  0  0  0  0  0  0  0  0  0  0
   19.5088   24.0185    0.6644 C   0  0  0  0  0  0  0  0  0  0  0  0
   20.8008   24.3941    0.9811 C   0  0  0  0  0  0  0  0  0  0  0  0
   21.1373   24.7942    2.2545 C   0  0  0  0  0  0  0  0  0  0  0  0
   20.1538   24.8105    3.2107 C   0  0  0  0  0  0  0  0  0  0  0  0
   18.9183   24.4423    2.8713 N   0  0  0  0  0  0  0  0  0  0  0  0
   18.5308   24.0446    1.6433 C   0  0  0  0  0  0  0  0  0  0  0  0
 30 31  1  0  0  0
 31 32  2  0  0  0
 32 33  1  0  0  0
 33 34  2  0  0  0
 34 35  1  0  0  0
 35 36  2  0  0  0
 36 29  1  0  0  0
 29  1  1  0  0  0
  1  2  1  0  0  0
  2  3  1  0  0  0
  3  4  1  0  0  0
  4  5  1  0  0  0
  5  6  1  0  0  0
  4  7  1  0  0  0
  7  8  1  0  0  0
  8  9  2  0  0  0
  8 10  1  0  0  0
 10 11  1  0  0  0
 11 12  2  0  0  0
 10 13  1  0  0  0
 13 14  2  0  0  0
 14 15  1  0  0  0
 15 16  2  0  0  0
 16 17  1  0  0  0
 17 18  2  0  0  0
 16 19  1  0  0  0
 19 20  1  0  0  0
 19 21  2  0  0  0
  7 23  1  0  0  0
 23 24  2  0  0  0
 24 25  1  0  0  0
 25 26  2  0  0  0
 26 27  1  0  0  0
 27 28  2  0  0  0
 36 31  1  0  0  0
  6  1  1  0  0  0
 18 13  1  0  0  0
 28 23  1  0  0  0
 11  4  1  0  0  0
 20 22  1  0  0  0
M  END
> <minimizedAffinity>
16.07753

> <CNNscore>
0.5716450214

> <CNNaffinity>
7.5336236954

> <CNN_VS>
4.3065586090

> <CNNaffinity_variance>
0.6014032960

$$$$
[H]OC(=O)c1c([H])c([H])c(N2C(=O)N(c3c([H])c([H])c([H])c([H])c3[H])C3(C2=O)C([H])([H])C([H])([H])N(C([H])([H])c2nc([H])c([H])c([H])c2C([H])([H])[H])C([H])([H])C3([H])[H])c([H])c1[H]


 36 40  0  0  0  0  0  0  0  0999 V2000
   11.9438   21.9727   -1.3228 N   0  0  0  0  0  0  0  0  0  0  0  0
   13.4038   21.9645   -1.1146 C   0  0  0  0  0  0  0  0  0  0  0  0
   14.0467   22.7483   -2.1845 C   0  0  0  0  0  0  0  0  0  0  0  0
   13.6932   24.2168   -1.8632 C   0  0  0  0  0  0  0  0  0  0  0  0
   12.2498   24.3738   -1.8003 C   0  0  0  0  0  0  0  0  0  0  0  0
   11.4005   23.1330   -1.7444 C   0  0  0  0  0  0  0  0  0  0  0  0
   14.5236   24.9726   -2.7241 N   0  0  0  0  0  0  0  0  0  0  0  0
   15.8363   25.0075   -2.0740 C   0  0  0  0  0  0  0  0  0  0  0  0
   16.9360   25.2372   -2.6388 O   0  0  0  0  0  0  0  0  0  0  0  0
   15.6214   24.7423   -0.6961 N   0  0  0  0  0  0  0  0  0  0  0  0
   14.2439   24.5523   -0.4994 C   0  0  0  0  0  0  0  0  0  0  0  0
   13.6416   24.6553    0.6005 O   0  0  0  0  0  0  0  0  0  0  0  0
   16.6699   24.6137    0.2722 C   0  0  0  0  0  0  0  0  0  0  0  0
   17.0090   25.6911    1.0500 C   0  0  0  0  0  0  0  0  0  0  0  0
   18.0702   25.6355    1.9401 C   0  0  0  0  0  0  0  0  0  0  0  0
   18.7948   24.4830    2.0519 C   0  0  0  0  0  0  0  0  0  0  0  0
   18.4503   23.3809    1.2554 C   0  0  0  0  0  0  0  0  0  0  0  0
   17.4043   23.4315    0.3729 C   0  0  0  0  0  0  0  0  0  0  0  0
   19.9235   24.3887    2.9432 C   0  0  0  0  0  0  0  0  0  0  0  0
   21.1992   24.3152    2.3378 O   0  0  0  0  0  0  0  0  0  0  0  0
   19.8347   24.3695    4.1556 O   0  0  0  0  0  0  0  0  0  0  0  0
   21.6732   25.1099    1.9564 H   0  0  0  0  0  0  0  0  0  0  0  0
   14.3841   25.5451   -3.9892 C   0  0  0  0  0  0  0  0  0  0  0  0
   15.1970   25.0114   -4.9661 C   0  0  0  0  0  0  0  0  0  0  0  0
   15.2027   25.5395   -6.2277 C   0  0  0  0  0  0  0  0  0  0  0  0
   14.3902   26.6248   -6.5562 C   0  0  0  0  0  0  0  0  0  0  0  0
   13.5855   27.1400   -5.5704 C   0  0  0  0  0  0  0  0  0  0  0  0
   13.5876   26.5913   -4.2819 C   0  0  0  0  0  0  0  0  0  0  0  0
   11.4372   20.9877   -0.4682 C   0  0  0  0  0  0  0  0  0  0  0  0
   10.5824   22.2631    1.9958 C   0  0  0  0  0  0  0  0  0  0  0  0
    9.6336   21.5795    1.0899 C   0  0  0  0  0  0  0  0  0  0  0  0
    8.2830   21.6171    1.3819 C   0  0  0  0  0  0  0  0  0  0  0  0
    7.3585   20.9993    0.5703 C   0  0  0  0  0  0  0  0  0  0  0  0
    7.8115   20.3386   -0.5434 C   0  0  0  0  0  0  0  0  0  0  0  0
    9.1205   20.3221   -0.7955 N   0  0  0  0  0  0  0  0  0  0  0  0
   10.0694   20.9097   -0.0401 C   0  0  0  0  0  0  0  0  0  0  0  0
 30 31  1  0  0  0
 31 32  2  0  0  0
 32 33  1  0  0  0
 33 34  2  0  0  0
 34 35  1  0  0  0
 35 36  2  0  0  0
 36 29  1  0  0  0
 29  1  1  0  0  0
  1  2  1  0  0  0
  2  3  1  0  0  0
  3  4  1  0  0  0
  4  5  1  0  0  0
  5  6  1  0  0  0
  4  7  1  0  0  0
  7  8  1  0  0  0
  8  9  2  0  0  0
  8 10  1  0  0  0
 10 11  1  0  0  0
 11 12  2  0  0  0
 10 13  1  0  0  0
 13 14  2  0  0  0
 14 15  1  0  0  0
 15 16  2  0  0  0
 16 17  1  0  0  0
 17 18  2  0  0  0
 16 19  1  0  0  0
 19 20  1  0  0  0
 19 21  2  0  0  0
  7 23  1  0  0  0
 23 24  2  0  0  0
 24 25  1  0  0  0
 25 26  2  0  0  0
 26 27  1  0  0  0
 27 28  2  0  0  0
 36 31  1  0  0  0
  6  1  1  0  0  0
 18 13  1  0  0  0
 28 23  1  0  0  0
 11  4  1  0  0  0
 20 22  1  0  0  0
M  END
> <minimizedAffinity>
9.51173

> <CNNscore>
0.5557084680

> <CNNaffinity>
7.8081383705

> <CNN_VS>
4.3390483856

> <CNNaffinity_variance>
0.7342652082

$$$$
[H]OC(=O)c1c([H])c([H])c(N2C(=O)N(c3c([H])c([H])c([H])c([H])c3[H])C3(C2=O)C([H])([H])C([H])([H])N(C([H])([H])c2nc([H])c([H])c([H])c2C([H])([H])[H])C([H])([H])C3([H])[H])c([H])c1[H]


 36 40  0  0  0  0  0  0  0  0999 V2000
   12.8251   26.4767   -3.1690 N   0  0  0  0  0  0  0  0  0  0  0  0
   12.3777   25.0722   -3.2165 C   0  0  0  0  0  0  0  0  0  0  0  0
   13.3282   24.2387   -2.4587 C   0  0  0  0  0  0  0  0  0  0  0  0
   13.0737   24.5983   -0.9786 C   0  0  0  0  0  0  0  0  0  0  0  0
   13.2514   26.0270   -0.7809 C   0  0  0  0  0  0  0  0  0  0  0  0
   13.3340   26.9092   -1.9971 C   0  0  0  0  0  0  0  0  0  0  0  0
   13.7869   23.6153   -0.2525 N   0  0  0  0  0  0  0  0  0  0  0  0
   12.9281   22.4280   -0.2496 C   0  0  0  0  0  0  0  0  0  0  0  0
   13.3032   21.2439   -0.0547 O   0  0  0  0  0  0  0  0  0  0  0  0
   11.6043   22.8758   -0.4986 N   0  0  0  0  0  0  0  0  0  0  0  0
   11.6383   24.2718   -0.6487 C   0  0  0  0  0  0  0  0  0  0  0  0
   10.6538   25.0448   -0.5209 O   0  0  0  0  0  0  0  0  0  0  0  0
   10.4752   22.0065   -0.6493 C   0  0  0  0  0  0  0  0  0  0  0  0
    9.7807   21.6000    0.4612 C   0  0  0  0  0  0  0  0  0  0  0  0
    8.7346   20.6951    0.3693 C   0  0  0  0  0  0  0  0  0  0  0  0
    8.3808   20.1976   -0.8526 C   0  0  0  0  0  0  0  0  0  0  0  0
    9.0916   20.6110   -1.9891 C   0  0  0  0  0  0  0  0  0  0  0  0
   10.1273   21.5029   -1.9034 C   0  0  0  0  0  0  0  0  0  0  0  0
    7.3185   19.2336   -0.9924 C   0  0  0  0  0  0  0  0  0  0  0  0
    7.0674   18.7589   -2.3004 O   0  0  0  0  0  0  0  0  0  0  0  0
    6.6467   18.8207   -0.0669 O   0  0  0  0  0  0  0  0  0  0  0  0
    7.6369   18.0727   -2.7548 H   0  0  0  0  0  0  0  0  0  0  0  0
   15.0590   23.5267    0.3144 C   0  0  0  0  0  0  0  0  0  0  0  0
   15.8707   24.6209    0.1051 C   0  0  0  0  0  0  0  0  0  0  0  0
   17.1641   24.6194    0.5496 C   0  0  0  0  0  0  0  0  0  0  0  0
   17.6916   23.5173    1.2227 C   0  0  0  0  0  0  0  0  0  0  0  0
   16.8664   22.4388    1.4243 C   0  0  0  0  0  0  0  0  0  0  0  0
   15.5434   22.4512    0.9649 C   0  0  0  0  0  0  0  0  0  0  0  0
   12.0639   27.1460   -4.1333 C   0  0  0  0  0  0  0  0  0  0  0  0
    9.6315   28.2034   -5.3139 C   0  0  0  0  0  0  0  0  0  0  0  0
   10.6070   29.0645   -4.6103 C   0  0  0  0  0  0  0  0  0  0  0  0
   10.3149   30.4044   -4.4364 C   0  0  0  0  0  0  0  0  0  0  0  0
   11.1874   31.2480   -3.7867 C   0  0  0  0  0  0  0  0  0  0  0  0
   12.3638   30.7251   -3.3129 C   0  0  0  0  0  0  0  0  0  0  0  0
   12.6139   29.4287   -3.4974 N   0  0  0  0  0  0  0  0  0  0  0  0
   11.7983   28.5565   -4.1223 C   0  0  0  0  0  0  0  0  0  0  0  0
 30 31  1  0  0  0
 31 32  2  0  0  0
 32 33  1  0  0  0
 33 34  2  0  0  0
 34 35  1  0  0  0
 35 36  2  0  0  0
 36 29  1  0  0  0
 29  1  1  0  0  0
  1  2  1  0  0  0
  2  3  1  0  0  0
  3  4  1  0  0  0
  4  5  1  0  0  0
  5  6  1  0  0  0
  4  7  1  0  0  0
  7  8  1  0  0  0
  8  9  2  0  0  0
  8 10  1  0  0  0
 10 11  1  0  0  0
 11 12  2  0  0  0
 10 13  1  0  0  0
 13 14  2  0  0  0
 14 15  1  0  0  0
 15 16  2  0  0  0
 16 17  1  0  0  0
 17 18  2  0  0  0
 16 19  1  0  0  0
 19 20  1  0  0  0
 19 21  2  0  0  0
  7 23  1  0  0  0
 23 24  2  0  0  0
 24 25  1  0  0  0
 25 26  2  0  0  0
 26 27  1  0  0  0
 27 28  2  0  0  0
 36 31  1  0  0  0
  6  1  1  0  0  0
 18 13  1  0  0  0
 28 23  1  0  0  0
 11  4  1  0  0  0
 20 22  1  0  0  0
M  END
> <minimizedAffinity>
15.67361

> <CNNscore>
0.5446454287

> <CNNaffinity>
7.3058357239

> <CNN_VS>
3.9790899754

> <CNNaffinity_variance>
1.4089918137

$$$$
[H]OC(=O)c1c([H])c([H])c(N2C(=O)N(c3c([H])c([H])c([H])c([H])c3[H])C3(C2=O)C([H])([H])C([H])([H])N(C([H])([H])c2nc([H])c([H])c([H])c2C([H])([H])[H])C([H])([H])C3([H])[H])c([H])c1[H]


 36 40  0  0  0  0  0  0  0  0999 V2000
   13.9941   21.0980    1.1887 N   0  0  0  0  0  0  0  0  0  0  0  0
   13.9012   21.5536   -0.2109 C   0  0  0  0  0  0  0  0  0  0  0  0
   12.4909   21.5129   -0.6374 C   0  0  0  0  0  0  0  0  0  0  0  0
   11.8178   22.6803    0.1170 C   0  0  0  0  0  0  0  0  0  0  0  0
   12.0081   22.5169    1.5485 C   0  0  0  0  0  0  0  0  0  0  0  0
   13.0134   21.5023    2.0218 C   0  0  0  0  0  0  0  0  0  0  0  0
   10.5467   22.8034   -0.4922 N   0  0  0  0  0  0  0  0  0  0  0  0
   10.7740   23.5580   -1.7276 C   0  0  0  0  0  0  0  0  0  0  0  0
   10.0204   23.5744   -2.7339 O   0  0  0  0  0  0  0  0  0  0  0  0
   11.9939   24.2645   -1.5609 N   0  0  0  0  0  0  0  0  0  0  0  0
   12.4997   23.9643   -0.2856 C   0  0  0  0  0  0  0  0  0  0  0  0
   13.3398   24.6538    0.3484 O   0  0  0  0  0  0  0  0  0  0  0  0
   12.6071   25.0639   -2.5799 C   0  0  0  0  0  0  0  0  0  0  0  0
   13.7583   24.6259   -3.1828 C   0  0  0  0  0  0  0  0  0  0  0  0
   14.4291   25.4043   -4.1133 C   0  0  0  0  0  0  0  0  0  0  0  0
   13.9343   26.6339   -4.4437 C   0  0  0  0  0  0  0  0  0  0  0  0
   12.7579   27.0839   -3.8263 C   0  0  0  0  0  0  0  0  0  0  0  0
   12.0928   26.3198   -2.9047 C   0  0  0  0  0  0  0  0  0  0  0  0
   14.6132   27.4889   -5.3845 C   0  0  0  0  0  0  0  0  0  0  0  0
   15.4273   28.5067   -4.8363 O   0  0  0  0  0  0  0  0  0  0  0  0
   14.5224   27.3809   -6.5922 O   0  0  0  0  0  0  0  0  0  0  0  0
   16.3389   28.3381   -4.4593 H   0  0  0  0  0  0  0  0  0  0  0  0
    9.2675   22.3109   -0.2306 C   0  0  0  0  0  0  0  0  0  0  0  0
    8.4849   23.1119    0.5732 C   0  0  0  0  0  0  0  0  0  0  0  0
    7.2390   22.7001    0.9590 C   0  0  0  0  0  0  0  0  0  0  0  0
    6.7313   21.4666    0.5507 C   0  0  0  0  0  0  0  0  0  0  0  0
    7.5246   20.6849   -0.2521 C   0  0  0  0  0  0  0  0  0  0  0  0
    8.7988   21.1167   -0.6412 C   0  0  0  0  0  0  0  0  0  0  0  0
   15.3562   20.8813    1.4233 C   0  0  0  0  0  0  0  0  0  0  0  0
   15.5165   22.5165   -0.9704 C   0  0  0  0  0  0  0  0  0  0  0  0
   16.4107   22.7244    0.1896 C   0  0  0  0  0  0  0  0  0  0  0  0
   17.2991   23.7833    0.1695 C   0  0  0  0  0  0  0  0  0  0  0  0
   18.1509   24.0221    1.2242 C   0  0  0  0  0  0  0  0  0  0  0  0
   18.0991   23.1776    2.3041 C   0  0  0  0  0  0  0  0  0  0  0  0
   17.2305   22.1664    2.2909 N   0  0  0  0  0  0  0  0  0  0  0  0
   16.3727   21.8859    1.2900 C   0  0  0  0  0  0  0  0  0  0  0  0
 30 31  1  0  0  0
 31 32  2  0  0  0
 32 33  1  0  0  0
 33 34  2  0  0  0
 34 35  1  0  0  0
 35 36  2  0  0  0
 36 29  1  0  0  0
 29  1  1  0  0  0
  1  2  1  0  0  0
  2  3  1  0  0  0
  3  4  1  0  0  0
  4  5  1  0  0  0
  5  6  1  0  0  0
  4  7  1  0  0  0
  7  8  1  0  0  0
  8  9  2  0  0  0
  8 10  1  0  0  0
 10 11  1  0  0  0
 11 12  2  0  0  0
 10 13  1  0  0  0
 13 14  2  0  0  0
 14 15  1  0  0  0
 15 16  2  0  0  0
 16 17  1  0  0  0
 17 18  2  0  0  0
 16 19  1  0  0  0
 19 20  1  0  0  0
 19 21  2  0  0  0
  7 23  1  0  0  0
 23 24  2  0  0  0
 24 25  1  0  0  0
 25 26  2  0  0  0
 26 27  1  0  0  0
 27 28  2  0  0  0
 36 31  1  0  0  0
  6  1  1  0  0  0
 18 13  1  0  0  0
 28 23  1  0  0  0
 11  4  1  0  0  0
 20 22  1  0  0  0
M  END
> <minimizedAffinity>
7.06624

> <CNNscore>
0.5287470818

> <CNNaffinity>
7.3588533401

> <CNN_VS>
3.8909721375

> <CNNaffinity_variance>
0.6324509382

$$$$
[H]OC(=O)c1c([H])c([H])c(N2C(=O)N(c3c([H])c([H])c([H])c([H])c3[H])C3(C2=O)C([H])([H])C([H])([H])N(C([H])([H])c2nc([H])c([H])c([H])c2C([H])([H])[H])C([H])([H])C3([H])[H])c([H])c1[H]


 36 40  0  0  0  0  0  0  0  0999 V2000
    9.9912   23.2738   -1.2966 N   0  0  0  0  0  0  0  0  0  0  0  0
   11.2413   22.4990   -1.1870 C   0  0  0  0  0  0  0  0  0  0  0  0
   12.1898   22.9685   -2.2129 C   0  0  0  0  0  0  0  0  0  0  0  0
   12.6413   24.3617   -1.7233 C   0  0  0  0  0  0  0  0  0  0  0  0
   11.4832   25.2224   -1.5499 C   0  0  0  0  0  0  0  0  0  0  0  0
   10.1179   24.5900   -1.5630 C   0  0  0  0  0  0  0  0  0  0  0  0
   13.7374   24.6869   -2.5568 N   0  0  0  0  0  0  0  0  0  0  0  0
   14.8854   23.9707   -1.9945 C   0  0  0  0  0  0  0  0  0  0  0  0
   15.9443   23.6749   -2.6045 O   0  0  0  0  0  0  0  0  0  0  0  0
   14.5720   23.6887   -0.6389 N   0  0  0  0  0  0  0  0  0  0  0  0
   13.2931   24.2040   -0.3720 C   0  0  0  0  0  0  0  0  0  0  0  0
   12.8346   24.4663    0.7700 O   0  0  0  0  0  0  0  0  0  0  0  0
   15.4110   22.9296    0.2403 C   0  0  0  0  0  0  0  0  0  0  0  0
   15.0905   21.6269    0.5248 C   0  0  0  0  0  0  0  0  0  0  0  0
   15.8269   20.8824    1.4332 C   0  0  0  0  0  0  0  0  0  0  0  0
   16.8990   21.4530    2.0583 C   0  0  0  0  0  0  0  0  0  0  0  0
   17.2268   22.7860    1.7697 C   0  0  0  0  0  0  0  0  0  0  0  0
   16.5011   23.5265    0.8750 C   0  0  0  0  0  0  0  0  0  0  0  0
   17.6761   20.7262    3.0305 C   0  0  0  0  0  0  0  0  0  0  0  0
   17.5195   21.1165    4.3805 O   0  0  0  0  0  0  0  0  0  0  0  0
   18.4381   19.8199    2.7543 O   0  0  0  0  0  0  0  0  0  0  0  0
   16.7313   20.8568    4.9399 H   0  0  0  0  0  0  0  0  0  0  0  0
   13.9048   25.3976   -3.7461 C   0  0  0  0  0  0  0  0  0  0  0  0
   14.8853   24.9126   -4.5848 C   0  0  0  0  0  0  0  0  0  0  0  0
   15.1913   25.5686   -5.7453 C   0  0  0  0  0  0  0  0  0  0  0  0
   14.5225   26.7378   -6.1079 C   0  0  0  0  0  0  0  0  0  0  0  0
   13.5471   27.2030   -5.2610 C   0  0  0  0  0  0  0  0  0  0  0  0
   13.2419   26.5231   -4.0752 C   0  0  0  0  0  0  0  0  0  0  0  0
    9.0555   22.5893   -0.5137 C   0  0  0  0  0  0  0  0  0  0  0  0
   10.3682   20.9506    1.4915 C   0  0  0  0  0  0  0  0  0  0  0  0
    9.5175   22.1067    1.8495 C   0  0  0  0  0  0  0  0  0  0  0  0
    9.4069   22.4712    3.1783 C   0  0  0  0  0  0  0  0  0  0  0  0
    8.6304   23.5404    3.5643 C   0  0  0  0  0  0  0  0  0  0  0  0
    7.9619   24.2410    2.5926 C   0  0  0  0  0  0  0  0  0  0  0  0
    8.0907   23.8627    1.3207 N   0  0  0  0  0  0  0  0  0  0  0  0
    8.8368   22.8285    0.8846 C   0  0  0  0  0  0  0  0  0  0  0  0
 30 31  1  0  0  0
 31 32  2  0  0  0
 32 33  1  0  0  0
 33 34  2  0  0  0
 34 35  1  0  0  0
 35 36  2  0  0  0
 36 29  1  0  0  0
 29  1  1  0  0  0
  1  2  1  0  0  0
  2  3  1  0  0  0
  3  4  1  0  0  0
  4  5  1  0  0  0
  5  6  1  0  0  0
  4  7  1  0  0  0
  7  8  1  0  0  0
  8  9  2  0  0  0
  8 10  1  0  0  0
 10 11  1  0  0  0
 11 12  2  0  0  0
 10 13  1  0  0  0
 13 14  2  0  0  0
 14 15  1  0  0  0
 15 16  2  0  0  0
 16 17  1  0  0  0
 17 18  2  0  0  0
 16 19  1  0  0  0
 19 20  1  0  0  0
 19 21  2  0  0  0
  7 23  1  0  0  0
 23 24  2  0  0  0
 24 25  1  0  0  0
 25 26  2  0  0  0
 26 27  1  0  0  0
 27 28  2  0  0  0
 36 31  1  0  0  0
  6  1  1  0  0  0
 18 13  1  0  0  0
 28 23  1  0  0  0
 11  4  1  0  0  0
 20 22  1  0  0  0
M  END
> <minimizedAffinity>
17.39383

> <CNNscore>
0.5280593038

> <CNNaffinity>
7.3596382141

> <CNN_VS>
3.8863253593

> <CNNaffinity_variance>
0.6373309493

$$$$
[H]OC(=O)C([H])([H])N([H])C(=O)C1=C(O[H])C([H])([H])C([H])([H])N(C([H])([H])c2c([H])c([H])c(Oc3c([H])c([H])c([H])c(F)c3[H])c([H])c2[H])C1=O


 33 35  0  0  0  0  0  0  0  0999 V2000
   15.5673   25.5046   -2.6964 C   0  0  0  0  0  0  0  0  0  0  0  0
   15.8028   26.5970   -3.4221 C   0  0  0  0  0  0  0  0  0  0  0  0
   17.0961   27.1436   -3.5544 O   0  0  0  0  0  0  0  0  0  0  0  0
   14.7457   27.3404   -4.1554 C   0  0  0  0  0  0  0  0  0  0  0  0
   13.5839   26.4406   -4.5163 C   0  0  0  0  0  0  0  0  0  0  0  0
   13.1545   25.7090   -3.3126 N   0  0  0  0  0  0  0  0  0  0  0  0
   14.2016   25.0184   -2.6200 C   0  0  0  0  0  0  0  0  0  0  0  0
   13.8621   24.0072   -1.9717 O   0  0  0  0  0  0  0  0  0  0  0  0
   17.3461   27.7956   -2.8056 H   0  0  0  0  0  0  0  0  0  0  0  0
   17.0750   24.9775   -0.6979 N   0  0  0  0  0  0  0  0  0  0  0  0
   16.6799   24.8715   -2.0307 C   0  0  0  0  0  0  0  0  0  0  0  0
   17.4177   24.1002   -2.7542 O   0  0  0  0  0  0  0  0  0  0  0  0
   16.5585   25.5732   -0.0255 H   0  0  0  0  0  0  0  0  0  0  0  0
   18.2302   24.2695   -0.1476 C   0  0  0  0  0  0  0  0  0  0  0  0
   18.9678   24.3501    2.1852 O   0  0  0  0  0  0  0  0  0  0  0  0
   18.0592   23.8529    1.2463 C   0  0  0  0  0  0  0  0  0  0  0  0
   17.1668   23.0923    1.6469 O   0  0  0  0  0  0  0  0  0  0  0  0
   18.8471   25.3124    2.5188 H   0  0  0  0  0  0  0  0  0  0  0  0
   11.7762   25.7116   -2.8958 C   0  0  0  0  0  0  0  0  0  0  0  0
   11.5344   25.0542   -1.5956 C   0  0  0  0  0  0  0  0  0  0  0  0
   12.1455   25.4735   -0.4361 C   0  0  0  0  0  0  0  0  0  0  0  0
   11.9004   24.8292    0.7842 C   0  0  0  0  0  0  0  0  0  0  0  0
   11.0436   23.7690    0.8320 C   0  0  0  0  0  0  0  0  0  0  0  0
   10.4259   23.3353   -0.3045 C   0  0  0  0  0  0  0  0  0  0  0  0
   10.6728   23.9805   -1.5205 C   0  0  0  0  0  0  0  0  0  0  0  0
   10.8016   23.1332    2.0350 O   0  0  0  0  0  0  0  0  0  0  0  0
   10.0062   23.7577    2.9968 C   0  0  0  0  0  0  0  0  0  0  0  0
    9.6002   23.1043    4.1399 C   0  0  0  0  0  0  0  0  0  0  0  0
    8.8172   23.7194    5.0866 C   0  0  0  0  0  0  0  0  0  0  0  0
    8.3993   25.0320    4.9315 C   0  0  0  0  0  0  0  0  0  0  0  0
    8.8047   25.6876    3.7880 C   0  0  0  0  0  0  0  0  0  0  0  0
    8.3931   26.9758    3.6382 F   0  0  0  0  0  0  0  0  0  0  0  0
    9.5988   25.0638    2.8278 C   0  0  0  0  0  0  0  0  0  0  0  0
 15 16  1  0  0  0
 16 17  2  0  0  0
 16 14  1  0  0  0
 14 10  1  0  0  0
 10 11  1  0  0  0
 11 12  2  0  0  0
 11  1  1  0  0  0
  1  2  2  0  0  0
  2  3  1  0  0  0
  2  4  1  0  0  0
  4  5  1  0  0  0
  5  6  1  0  0  0
  6 19  1  0  0  0
 19 20  1  0  0  0
 20 21  2  0  0  0
 21 22  1  0  0  0
 22 23  2  0  0  0
 23 26  1  0  0  0
 26 27  1  0  0  0
 27 28  2  0  0  0
 28 29  1  0  0  0
 29 30  2  0  0  0
 30 31  1  0  0  0
 31 32  1  0  0  0
 31 33  2  0  0  0
 23 24  1  0  0  0
 24 25  2  0  0  0
  6  7  1  0  0  0
  7  8  2  0  0  0
  7  1  1  0  0  0
 25 20  1  0  0  0
 33 27  1  0  0  0
 15 18  1  0  0  0
 10 13  1  0  0  0
  3  9  1  0  0  0
M  END
> <minimizedAffinity>
-1.79633

> <CNNscore>
0.5255545378

> <CNNaffinity>
6.8487372398

> <CNN_VS>
3.5993850231

> <CNNaffinity_variance>
0.7866148949

$$$$
[H]OC(=O)C([H])([H])N([H])C(=O)C1=C(O[H])C([H])([H])C([H])([H])N(C([H])([H])c2c([H])c([H])c(Oc3c([H])c([H])c([H])c(F)c3[H])c([H])c2[H])C1=O


 33 35  0  0  0  0  0  0  0  0999 V2000
   16.2838   23.7850    0.1525 C   0  0  0  0  0  0  0  0  0  0  0  0
   15.7630   22.6815    0.6878 C   0  0  0  0  0  0  0  0  0  0  0  0
   16.3368   22.0517    1.8116 O   0  0  0  0  0  0  0  0  0  0  0  0
   14.5441   22.0110    0.1657 C   0  0  0  0  0  0  0  0  0  0  0  0
   13.6426   22.9860   -0.5598 C   0  0  0  0  0  0  0  0  0  0  0  0
   14.4441   23.7408   -1.5377 N   0  0  0  0  0  0  0  0  0  0  0  0
   15.6215   24.3594   -1.0045 C   0  0  0  0  0  0  0  0  0  0  0  0
   16.0177   25.3889   -1.5887 O   0  0  0  0  0  0  0  0  0  0  0  0
   17.0752   21.3826    1.5763 H   0  0  0  0  0  0  0  0  0  0  0  0
   18.7548   23.7992    0.8150 N   0  0  0  0  0  0  0  0  0  0  0  0
   17.4722   24.3420    0.7520 C   0  0  0  0  0  0  0  0  0  0  0  0
   17.3458   25.4981    1.3088 O   0  0  0  0  0  0  0  0  0  0  0  0
   18.9718   22.8728    0.4046 H   0  0  0  0  0  0  0  0  0  0  0  0
   19.8806   24.4798    1.4537 C   0  0  0  0  0  0  0  0  0  0  0  0
   19.3333   26.1488    3.1590 O   0  0  0  0  0  0  0  0  0  0  0  0
   19.6456   24.8195    2.8592 C   0  0  0  0  0  0  0  0  0  0  0  0
   19.7050   24.0107    3.7960 O   0  0  0  0  0  0  0  0  0  0  0  0
   18.3786   26.4779    2.9801 H   0  0  0  0  0  0  0  0  0  0  0  0
   14.0412   23.8274   -2.9173 C   0  0  0  0  0  0  0  0  0  0  0  0
   13.5011   25.1447   -3.3100 C   0  0  0  0  0  0  0  0  0  0  0  0
   13.9828   25.8421   -4.3941 C   0  0  0  0  0  0  0  0  0  0  0  0
   13.4539   27.0923   -4.7426 C   0  0  0  0  0  0  0  0  0  0  0  0
   12.4453   27.6335   -4.0008 C   0  0  0  0  0  0  0  0  0  0  0  0
   11.9513   26.9607   -2.9216 C   0  0  0  0  0  0  0  0  0  0  0  0
   12.4815   25.7133   -2.5766 C   0  0  0  0  0  0  0  0  0  0  0  0
   11.9234   28.8663   -4.3439 O   0  0  0  0  0  0  0  0  0  0  0  0
   10.5824   28.9674   -4.7169 C   0  0  0  0  0  0  0  0  0  0  0  0
   10.0105   28.0949   -5.6170 C   0  0  0  0  0  0  0  0  0  0  0  0
    8.6903   28.1948   -5.9840 C   0  0  0  0  0  0  0  0  0  0  0  0
    7.8716   29.1837   -5.4613 C   0  0  0  0  0  0  0  0  0  0  0  0
    8.4422   30.0579   -4.5601 C   0  0  0  0  0  0  0  0  0  0  0  0
    7.6365   31.0277   -4.0486 F   0  0  0  0  0  0  0  0  0  0  0  0
    9.7812   29.9567   -4.1879 C   0  0  0  0  0  0  0  0  0  0  0  0
 15 16  1  0  0  0
 16 17  2  0  0  0
 16 14  1  0  0  0
 14 10  1  0  0  0
 10 11  1  0  0  0
 11 12  2  0  0  0
 11  1  1  0  0  0
  1  2  2  0  0  0
  2  3  1  0  0  0
  2  4  1  0  0  0
  4  5  1  0  0  0
  5  6  1  0  0  0
  6 19  1  0  0  0
 19 20  1  0  0  0
 20 21  2  0  0  0
 21 22  1  0  0  0
 22 23  2  0  0  0
 23 26  1  0  0  0
 26 27  1  0  0  0
 27 28  2  0  0  0
 28 29  1  0  0  0
 29 30  2  0  0  0
 30 31  1  0  0  0
 31 32  1  0  0  0
 31 33  2  0  0  0
 23 24  1  0  0  0
 24 25  2  0  0  0
  6  7  1  0  0  0
  7  8  2  0  0  0
  7  1  1  0  0  0
 25 20  1  0  0  0
 33 27  1  0  0  0
 15 18  1  0  0  0
 10 13  1  0  0  0
  3  9  1  0  0  0
M  END
> <minimizedAffinity>
20.51535

> <CNNscore>
0.5245484114

> <CNNaffinity>
6.1826152802

> <CNN_VS>
3.2430810928

> <CNNaffinity_variance>
0.6410937905

$$$$
[H]OC(=O)C([H])([H])N([H])C(=O)C1=C(O[H])C([H])([H])C([H])([H])N(C([H])([H])c2c([H])c([H])c(Oc3c([H])c([H])c([H])c(F)c3[H])c([H])c2[H])C1=O


 33 35  0  0  0  0  0  0  0  0999 V2000
   13.6250   22.6510   -0.3726 C   0  0  0  0  0  0  0  0  0  0  0  0
   13.6198   23.4120    0.7211 C   0  0  0  0  0  0  0  0  0  0  0  0
   12.7763   23.1403    1.8183 O   0  0  0  0  0  0  0  0  0  0  0  0
   14.4872   24.6057    0.8961 C   0  0  0  0  0  0  0  0  0  0  0  0
   15.7473   24.5021    0.0649 C   0  0  0  0  0  0  0  0  0  0  0  0
   15.3798   24.1573   -1.3188 N   0  0  0  0  0  0  0  0  0  0  0  0
   14.5284   23.0123   -1.4500 C   0  0  0  0  0  0  0  0  0  0  0  0
   14.6199   22.3752   -2.5195 O   0  0  0  0  0  0  0  0  0  0  0  0
   11.8441   23.5550    1.7335 H   0  0  0  0  0  0  0  0  0  0  0  0
   11.3469   21.5011   -0.5529 N   0  0  0  0  0  0  0  0  0  0  0  0
   12.7348   21.5166   -0.4220 C   0  0  0  0  0  0  0  0  0  0  0  0
   13.2832   20.3529   -0.3343 O   0  0  0  0  0  0  0  0  0  0  0  0
   10.7999   22.3780   -0.6272 H   0  0  0  0  0  0  0  0  0  0  0  0
   10.5615   20.2682   -0.5957 C   0  0  0  0  0  0  0  0  0  0  0  0
    9.3376   21.0738   -2.5567 O   0  0  0  0  0  0  0  0  0  0  0  0
    9.3035   20.3941   -1.3356 C   0  0  0  0  0  0  0  0  0  0  0  0
    8.2159   19.9404   -0.9528 O   0  0  0  0  0  0  0  0  0  0  0  0
    9.7044   20.5821   -3.3786 H   0  0  0  0  0  0  0  0  0  0  0  0
   15.8606   24.9370   -2.4297 C   0  0  0  0  0  0  0  0  0  0  0  0
   14.8000   25.6314   -3.1875 C   0  0  0  0  0  0  0  0  0  0  0  0
   13.5492   25.8579   -2.6602 C   0  0  0  0  0  0  0  0  0  0  0  0
   12.5600   26.5168   -3.4028 C   0  0  0  0  0  0  0  0  0  0  0  0
   12.8332   26.9439   -4.6691 C   0  0  0  0  0  0  0  0  0  0  0  0
   14.0661   26.7309   -5.2131 C   0  0  0  0  0  0  0  0  0  0  0  0
   15.0509   26.0729   -4.4692 C   0  0  0  0  0  0  0  0  0  0  0  0
   11.8582   27.5936   -5.4019 O   0  0  0  0  0  0  0  0  0  0  0  0
   11.2115   28.7038   -4.8569 C   0  0  0  0  0  0  0  0  0  0  0  0
    9.9176   29.0317   -5.1989 C   0  0  0  0  0  0  0  0  0  0  0  0
    9.2813   30.1247   -4.6622 C   0  0  0  0  0  0  0  0  0  0  0  0
    9.9174   30.9498   -3.7477 C   0  0  0  0  0  0  0  0  0  0  0  0
   11.2125   30.6231   -3.4042 C   0  0  0  0  0  0  0  0  0  0  0  0
   11.8346   31.4346   -2.5065 F   0  0  0  0  0  0  0  0  0  0  0  0
   11.8579   29.5146   -3.9485 C   0  0  0  0  0  0  0  0  0  0  0  0
 15 16  1  0  0  0
 16 17  2  0  0  0
 16 14  1  0  0  0
 14 10  1  0  0  0
 10 11  1  0  0  0
 11 12  2  0  0  0
 11  1  1  0  0  0
  1  2  2  0  0  0
  2  3  1  0  0  0
  2  4  1  0  0  0
  4  5  1  0  0  0
  5  6  1  0  0  0
  6 19  1  0  0  0
 19 20  1  0  0  0
 20 21  2  0  0  0
 21 22  1  0  0  0
 22 23  2  0  0  0
 23 26  1  0  0  0
 26 27  1  0  0  0
 27 28  2  0  0  0
 28 29  1  0  0  0
 29 30  2  0  0  0
 30 31  1  0  0  0
 31 32  1  0  0  0
 31 33  2  0  0  0
 23 24  1  0  0  0
 24 25  2  0  0  0
  6  7  1  0  0  0
  7  8  2  0  0  0
  7  1  1  0  0  0
 25 20  1  0  0  0
 33 27  1  0  0  0
 15 18  1  0  0  0
 10 13  1  0  0  0
  3  9  1  0  0  0
M  END
> <minimizedAffinity>
6.74158

> <CNNscore>
0.4772523046

> <CNNaffinity>
6.4634261131

> <CNN_VS>
3.0846850872

> <CNNaffinity_variance>
0.3982834518

$$$$
[H]OC(=O)C([H])([H])N([H])C(=O)C1=C(O[H])C([H])([H])C([H])([H])N(C([H])([H])c2c([H])c([H])c(Oc3c([H])c([H])c([H])c(F)c3[H])c([H])c2[H])C1=O


 33 35  0  0  0  0  0  0  0  0999 V2000
   12.6754   21.9931    0.4665 C   0  0  0  0  0  0  0  0  0  0  0  0
   13.2408   20.7942    0.3300 C   0  0  0  0  0  0  0  0  0  0  0  0
   12.5084   19.5990    0.4848 O   0  0  0  0  0  0  0  0  0  0  0  0
   14.6771   20.5949    0.0058 C   0  0  0  0  0  0  0  0  0  0  0  0
   15.2449   21.7781   -0.7473 C   0  0  0  0  0  0  0  0  0  0  0  0
   14.9027   23.0140   -0.0234 N   0  0  0  0  0  0  0  0  0  0  0  0
   13.5126   23.1657    0.2890 C   0  0  0  0  0  0  0  0  0  0  0  0
   13.0940   24.3371    0.3926 O   0  0  0  0  0  0  0  0  0  0  0  0
   12.4531   19.2726    1.4537 H   0  0  0  0  0  0  0  0  0  0  0  0
   10.5910   21.4903    1.8619 N   0  0  0  0  0  0  0  0  0  0  0  0
   11.2690   22.0550    0.7825 C   0  0  0  0  0  0  0  0  0  0  0  0
   10.5261   22.7196   -0.0354 O   0  0  0  0  0  0  0  0  0  0  0  0
   11.0861   20.9311    2.5801 H   0  0  0  0  0  0  0  0  0  0  0  0
    9.1505   21.6375    2.0669 C   0  0  0  0  0  0  0  0  0  0  0  0
    7.3344   20.9672    3.5653 O   0  0  0  0  0  0  0  0  0  0  0  0
    8.6979   21.2269    3.3983 C   0  0  0  0  0  0  0  0  0  0  0  0
    9.4397   21.0951    4.3819 O   0  0  0  0  0  0  0  0  0  0  0  0
    6.9631   20.0731    3.2270 H   0  0  0  0  0  0  0  0  0  0  0  0
   15.9178   23.9736    0.3261 C   0  0  0  0  0  0  0  0  0  0  0  0
   16.1937   24.9745   -0.7243 C   0  0  0  0  0  0  0  0  0  0  0  0
   15.4325   26.1111   -0.8734 C   0  0  0  0  0  0  0  0  0  0  0  0
   15.7146   27.0432   -1.8812 C   0  0  0  0  0  0  0  0  0  0  0  0
   16.7588   26.8280   -2.7320 C   0  0  0  0  0  0  0  0  0  0  0  0
   17.5277   25.7084   -2.6037 C   0  0  0  0  0  0  0  0  0  0  0  0
   17.2433   24.7802   -1.5968 C   0  0  0  0  0  0  0  0  0  0  0  0
   17.0374   27.7467   -3.7261 O   0  0  0  0  0  0  0  0  0  0  0  0
   16.4534   27.5984   -4.9850 C   0  0  0  0  0  0  0  0  0  0  0  0
   15.7455   26.4675   -5.3292 C   0  0  0  0  0  0  0  0  0  0  0  0
   15.1708   26.3217   -6.5685 C   0  0  0  0  0  0  0  0  0  0  0  0
   15.2789   27.3124   -7.5322 C   0  0  0  0  0  0  0  0  0  0  0  0
   15.9871   28.4450   -7.1894 C   0  0  0  0  0  0  0  0  0  0  0  0
   16.0918   29.4158   -8.1371 F   0  0  0  0  0  0  0  0  0  0  0  0
   16.5700   28.5929   -5.9325 C   0  0  0  0  0  0  0  0  0  0  0  0
 15 16  1  0  0  0
 16 17  2  0  0  0
 16 14  1  0  0  0
 14 10  1  0  0  0
 10 11  1  0  0  0
 11 12  2  0  0  0
 11  1  1  0  0  0
  1  2  2  0  0  0
  2  3  1  0  0  0
  2  4  1  0  0  0
  4  5  1  0  0  0
  5  6  1  0  0  0
  6 19  1  0  0  0
 19 20  1  0  0  0
 20 21  2  0  0  0
 21 22  1  0  0  0
 22 23  2  0  0  0
 23 26  1  0  0  0
 26 27  1  0  0  0
 27 28  2  0  0  0
 28 29  1  0  0  0
 29 30  2  0  0  0
 30 31  1  0  0  0
 31 32  1  0  0  0
 31 33  2  0  0  0
 23 24  1  0  0  0
 24 25  2  0  0  0
  6  7  1  0  0  0
  7  8  2  0  0  0
  7  1  1  0  0  0
 25 20  1  0  0  0
 33 27  1  0  0  0
 15 18  1  0  0  0
 10 13  1  0  0  0
  3  9  1  0  0  0
M  END
> <minimizedAffinity>
5.08689

> <CNNscore>
0.4648253918

> <CNNaffinity>
6.5673265457

> <CNN_VS>
3.0526602268

> <CNNaffinity_variance>
1.0464680195

$$$$
[H]OC(=O)C([H])([H])N([H])C(=O)C1=C(O[H])C([H])([H])C([H])([H])N(C([H])([H])c2c([H])c([H])c(Oc3c([H])c([H])c([H])c(F)c3[H])c([H])c2[H])C1=O


 33 35  0  0  0  0  0  0  0  0999 V2000
   13.3834   21.8371    0.1188 C   0  0  0  0  0  0  0  0  0  0  0  0
   14.1812   21.0072    0.7899 C   0  0  0  0  0  0  0  0  0  0  0  0
   13.7279   19.7643    1.2786 O   0  0  0  0  0  0  0  0  0  0  0  0
   15.6072   21.2995    1.0883 C   0  0  0  0  0  0  0  0  0  0  0  0
   16.2031   22.2488    0.0717 C   0  0  0  0  0  0  0  0  0  0  0  0
   15.3130   23.4129   -0.0740 N   0  0  0  0  0  0  0  0  0  0  0  0
   13.9421   23.0948   -0.3433 C   0  0  0  0  0  0  0  0  0  0  0  0
   13.2914   23.9487   -0.9801 O   0  0  0  0  0  0  0  0  0  0  0  0
   13.2927   19.8196    2.2036 H   0  0  0  0  0  0  0  0  0  0  0  0
   11.1254   20.8300    0.7762 N   0  0  0  0  0  0  0  0  0  0  0  0
   12.0154   21.4384   -0.1078 C   0  0  0  0  0  0  0  0  0  0  0  0
   11.5376   21.6701   -1.2829 O   0  0  0  0  0  0  0  0  0  0  0  0
   11.4023   20.5930    1.7462 H   0  0  0  0  0  0  0  0  0  0  0  0
    9.7518   20.4820    0.4148 C   0  0  0  0  0  0  0  0  0  0  0  0
    8.9460   22.5235    1.4992 O   0  0  0  0  0  0  0  0  0  0  0  0
    8.7372   21.1704    1.2166 C   0  0  0  0  0  0  0  0  0  0  0  0
    7.7109   20.6355    1.6591 O   0  0  0  0  0  0  0  0  0  0  0  0
    8.7486   23.2114    0.7646 H   0  0  0  0  0  0  0  0  0  0  0  0
   15.8206   24.7544    0.0515 C   0  0  0  0  0  0  0  0  0  0  0  0
   15.9504   25.4762   -1.2305 C   0  0  0  0  0  0  0  0  0  0  0  0
   15.1179   25.2313   -2.2985 C   0  0  0  0  0  0  0  0  0  0  0  0
   15.2655   25.9288   -3.5051 C   0  0  0  0  0  0  0  0  0  0  0  0
   16.2473   26.8672   -3.6311 C   0  0  0  0  0  0  0  0  0  0  0  0
   17.0848   27.1274   -2.5860 C   0  0  0  0  0  0  0  0  0  0  0  0
   16.9347   26.4294   -1.3833 C   0  0  0  0  0  0  0  0  0  0  0  0
   16.3934   27.5552   -4.8207 O   0  0  0  0  0  0  0  0  0  0  0  0
   15.9836   26.9611   -6.0153 C   0  0  0  0  0  0  0  0  0  0  0  0
   16.8505   26.2306   -6.7985 C   0  0  0  0  0  0  0  0  0  0  0  0
   16.4467   25.6460   -7.9745 C   0  0  0  0  0  0  0  0  0  0  0  0
   15.1418   25.7665   -8.4264 C   0  0  0  0  0  0  0  0  0  0  0  0
   14.2728   26.4973   -7.6437 C   0  0  0  0  0  0  0  0  0  0  0  0
   12.9926   26.6142   -8.0897 F   0  0  0  0  0  0  0  0  0  0  0  0
   14.6822   27.0903   -6.4511 C   0  0  0  0  0  0  0  0  0  0  0  0
 15 16  1  0  0  0
 16 17  2  0  0  0
 16 14  1  0  0  0
 14 10  1  0  0  0
 10 11  1  0  0  0
 11 12  2  0  0  0
 11  1  1  0  0  0
  1  2  2  0  0  0
  2  3  1  0  0  0
  2  4  1  0  0  0
  4  5  1  0  0  0
  5  6  1  0  0  0
  6 19  1  0  0  0
 19 20  1  0  0  0
 20 21  2  0  0  0
 21 22  1  0  0  0
 22 23  2  0  0  0
 23 26  1  0  0  0
 26 27  1  0  0  0
 27 28  2  0  0  0
 28 29  1  0  0  0
 29 30  2  0  0  0
 30 31  1  0  0  0
 31 32  1  0  0  0
 31 33  2  0  0  0
 23 24  1  0  0  0
 24 25  2  0  0  0
  6  7  1  0  0  0
  7  8  2  0  0  0
  7  1  1  0  0  0
 25 20  1  0  0  0
 33 27  1  0  0  0
 15 18  1  0  0  0
 10 13  1  0  0  0
  3  9  1  0  0  0
M  END
> <minimizedAffinity>
1.18824

> <CNNscore>
0.4574421346

> <CNNaffinity>
6.5222601891

> <CNN_VS>
2.9835565090

> <CNNaffinity_variance>
0.7762202024

$$$$
[H]OC(=O)C([H])([H])N([H])C(=O)C1=C(O[H])C([H])([H])C([H])([H])N(C([H])([H])c2c([H])c([H])c(Oc3c([H])c([H])c([H])c(F)c3[H])c([H])c2[H])C1=O


 33 35  0  0  0  0  0  0  0  0999 V2000
   15.2091   25.3892   -2.2501 C   0  0  0  0  0  0  0  0  0  0  0  0
   15.2241   26.2574   -3.2608 C   0  0  0  0  0  0  0  0  0  0  0  0
   16.4275   26.7445   -3.8117 O   0  0  0  0  0  0  0  0  0  0  0  0
   13.9957   26.7936   -3.9020 C   0  0  0  0  0  0  0  0  0  0  0  0
   12.8316   25.8379   -3.7562 C   0  0  0  0  0  0  0  0  0  0  0  0
   12.7128   25.4422   -2.3427 N   0  0  0  0  0  0  0  0  0  0  0  0
   13.9198   24.9467   -1.7508 C   0  0  0  0  0  0  0  0  0  0  0  0
   13.7825   24.1376   -0.8102 O   0  0  0  0  0  0  0  0  0  0  0  0
   16.7999   27.5654   -3.3263 H   0  0  0  0  0  0  0  0  0  0  0  0
   16.9070   24.9466   -0.3883 N   0  0  0  0  0  0  0  0  0  0  0  0
   16.4712   24.9420   -1.7126 C   0  0  0  0  0  0  0  0  0  0  0  0
   17.3213   24.4717   -2.5604 O   0  0  0  0  0  0  0  0  0  0  0  0
   16.3087   25.3060    0.3776 H   0  0  0  0  0  0  0  0  0  0  0  0
   18.2209   24.4534    0.0229 C   0  0  0  0  0  0  0  0  0  0  0  0
   19.1704   24.4527    2.2792 O   0  0  0  0  0  0  0  0  0  0  0  0
   18.2483   23.9065    1.3816 C   0  0  0  0  0  0  0  0  0  0  0  0
   17.5119   22.9960    1.7865 O   0  0  0  0  0  0  0  0  0  0  0  0
   18.9543   25.3578    2.7103 H   0  0  0  0  0  0  0  0  0  0  0  0
   11.4598   25.5595   -1.6430 C   0  0  0  0  0  0  0  0  0  0  0  0
   10.9723   24.2950   -1.0559 C   0  0  0  0  0  0  0  0  0  0  0  0
   10.7215   24.1593    0.2903 C   0  0  0  0  0  0  0  0  0  0  0  0
   10.2622   22.9464    0.8216 C   0  0  0  0  0  0  0  0  0  0  0  0
   10.0578   21.8786   -0.0020 C   0  0  0  0  0  0  0  0  0  0  0  0
   10.2994   21.9892   -1.3402 C   0  0  0  0  0  0  0  0  0  0  0  0
   10.7577   23.2010   -1.8670 C   0  0  0  0  0  0  0  0  0  0  0  0
    9.6050   20.6823    0.5213 O   0  0  0  0  0  0  0  0  0  0  0  0
    8.2850   20.2879    0.2979 C   0  0  0  0  0  0  0  0  0  0  0  0
    7.2459   20.7546    1.0731 C   0  0  0  0  0  0  0  0  0  0  0  0
    5.9466   20.3661    0.8529 C   0  0  0  0  0  0  0  0  0  0  0  0
    5.6230   19.4825   -0.1650 C   0  0  0  0  0  0  0  0  0  0  0  0
    6.6618   19.0145   -0.9420 C   0  0  0  0  0  0  0  0  0  0  0  0
    6.3415   18.1472   -1.9404 F   0  0  0  0  0  0  0  0  0  0  0  0
    7.9796   19.4083   -0.7187 C   0  0  0  0  0  0  0  0  0  0  0  0
 15 16  1  0  0  0
 16 17  2  0  0  0
 16 14  1  0  0  0
 14 10  1  0  0  0
 10 11  1  0  0  0
 11 12  2  0  0  0
 11  1  1  0  0  0
  1  2  2  0  0  0
  2  3  1  0  0  0
  2  4  1  0  0  0
  4  5  1  0  0  0
  5  6  1  0  0  0
  6 19  1  0  0  0
 19 20  1  0  0  0
 20 21  2  0  0  0
 21 22  1  0  0  0
 22 23  2  0  0  0
 23 26  1  0  0  0
 26 27  1  0  0  0
 27 28  2  0  0  0
 28 29  1  0  0  0
 29 30  2  0  0  0
 30 31  1  0  0  0
 31 32  1  0  0  0
 31 33  2  0  0  0
 23 24  1  0  0  0
 24 25  2  0  0  0
  6  7  1  0  0  0
  7  8  2  0  0  0
  7  1  1  0  0  0
 25 20  1  0  0  0
 33 27  1  0  0  0
 15 18  1  0  0  0
 10 13  1  0  0  0
  3  9  1  0  0  0
M  END
> <minimizedAffinity>
0.33019

> <CNNscore>
0.4534932077

> <CNNaffinity>
6.6493101120

> <CNN_VS>
3.0154168606

> <CNNaffinity_variance>
1.1207354069

$$$$
[H]OC(=O)C([H])([H])N([H])C(=O)C1=C(O[H])C([H])([H])C([H])([H])N(C([H])([H])c2c([H])c([H])c(Oc3c([H])c([H])c([H])c(F)c3[H])c([H])c2[H])C1=O


 33 35  0  0  0  0  0  0  0  0999 V2000
   14.9989   25.4549   -2.4127 C   0  0  0  0  0  0  0  0  0  0  0  0
   14.9945   26.5151   -3.2198 C   0  0  0  0  0  0  0  0  0  0  0  0
   16.1819   27.1819   -3.5866 O   0  0  0  0  0  0  0  0  0  0  0  0
   13.7594   27.0955   -3.8078 C   0  0  0  0  0  0  0  0  0  0  0  0
   12.6639   26.0590   -3.9310 C   0  0  0  0  0  0  0  0  0  0  0  0
   12.5120   25.3688   -2.6391 N   0  0  0  0  0  0  0  0  0  0  0  0
   13.7249   24.8371   -2.0921 C   0  0  0  0  0  0  0  0  0  0  0  0
   13.6061   23.8417   -1.3485 O   0  0  0  0  0  0  0  0  0  0  0  0
   16.4706   27.9045   -2.9212 H   0  0  0  0  0  0  0  0  0  0  0  0
   16.7206   24.9526   -0.5883 N   0  0  0  0  0  0  0  0  0  0  0  0
   16.2654   24.9853   -1.9057 C   0  0  0  0  0  0  0  0  0  0  0  0
   17.0996   24.5314   -2.7779 O   0  0  0  0  0  0  0  0  0  0  0  0
   16.1362   25.2962    0.1954 H   0  0  0  0  0  0  0  0  0  0  0  0
   18.0367   24.4400   -0.2096 C   0  0  0  0  0  0  0  0  0  0  0  0
   17.1763   22.9611    1.5412 O   0  0  0  0  0  0  0  0  0  0  0  0
   18.1025   23.9384    1.1652 C   0  0  0  0  0  0  0  0  0  0  0  0
   18.9207   24.3210    2.0134 O   0  0  0  0  0  0  0  0  0  0  0  0
   17.3392   21.9938    1.2422 H   0  0  0  0  0  0  0  0  0  0  0  0
   11.2239   25.2573   -2.0052 C   0  0  0  0  0  0  0  0  0  0  0  0
   11.1584   24.2363   -0.9400 C   0  0  0  0  0  0  0  0  0  0  0  0
   10.8985   22.9117   -1.2078 C   0  0  0  0  0  0  0  0  0  0  0  0
   10.8387   21.9640   -0.1771 C   0  0  0  0  0  0  0  0  0  0  0  0
   11.0404   22.3523    1.1148 C   0  0  0  0  0  0  0  0  0  0  0  0
   11.2997   23.6599    1.4048 C   0  0  0  0  0  0  0  0  0  0  0  0
   11.3586   24.6032    0.3737 C   0  0  0  0  0  0  0  0  0  0  0  0
   10.9815   21.4182    2.1316 O   0  0  0  0  0  0  0  0  0  0  0  0
    9.8312   21.3255    2.9165 C   0  0  0  0  0  0  0  0  0  0  0  0
    9.8858   20.9714    4.2470 C   0  0  0  0  0  0  0  0  0  0  0  0
    8.7533   20.8802    5.0194 C   0  0  0  0  0  0  0  0  0  0  0  0
    7.4991   21.1423    4.4903 C   0  0  0  0  0  0  0  0  0  0  0  0
    7.4426   21.4969    3.1588 C   0  0  0  0  0  0  0  0  0  0  0  0
    6.2103   21.7535    2.6419 F   0  0  0  0  0  0  0  0  0  0  0  0
    8.5911   21.5893    2.3753 C   0  0  0  0  0  0  0  0  0  0  0  0
 15 16  1  0  0  0
 16 17  2  0  0  0
 16 14  1  0  0  0
 14 10  1  0  0  0
 10 11  1  0  0  0
 11 12  2  0  0  0
 11  1  1  0  0  0
  1  2  2  0  0  0
  2  3  1  0  0  0
  2  4  1  0  0  0
  4  5  1  0  0  0
  5  6  1  0  0  0
  6 19  1  0  0  0
 19 20  1  0  0  0
 20 21  2  0  0  0
 21 22  1  0  0  0
 22 23  2  0  0  0
 23 26  1  0  0  0
 26 27  1  0  0  0
 27 28  2  0  0  0
 28 29  1  0  0  0
 29 30  2  0  0  0
 30 31  1  0  0  0
 31 32  1  0  0  0
 31 33  2  0  0  0
 23 24  1  0  0  0
 24 25  2  0  0  0
  6  7  1  0  0  0
  7  8  2  0  0  0
  7  1  1  0  0  0
 25 20  1  0  0  0
 33 27  1  0  0  0
 15 18  1  0  0  0
 10 13  1  0  0  0
  3  9  1  0  0  0
M  END
> <minimizedAffinity>
-1.21371

> <CNNscore>
0.4483716488

> <CNNaffinity>
6.4166116714

> <CNN_VS>
2.8770267963

> <CNNaffinity_variance>
0.8967653513

$$$$
[H]OC(=O)C([H])([H])N([H])C(=O)C1=C(O[H])C([H])([H])C([H])([H])N(C([H])([H])c2c([H])c([H])c(Oc3c([H])c([H])c([H])c(F)c3[H])c([H])c2[H])C1=O


 33 35  0  0  0  0  0  0  0  0999 V2000
   14.6580   22.8247   -0.8470 C   0  0  0  0  0  0  0  0  0  0  0  0
   14.6170   23.0419    0.4670 C   0  0  0  0  0  0  0  0  0  0  0  0
   13.5877   22.5235    1.2799 O   0  0  0  0  0  0  0  0  0  0  0  0
   15.6340   23.8392    1.2004 C   0  0  0  0  0  0  0  0  0  0  0  0
   16.9684   23.8265    0.4872 C   0  0  0  0  0  0  0  0  0  0  0  0
   16.7574   24.1773   -0.9273 N   0  0  0  0  0  0  0  0  0  0  0  0
   15.7576   23.4014   -1.5992 C   0  0  0  0  0  0  0  0  0  0  0  0
   15.8995   23.2653   -2.8319 O   0  0  0  0  0  0  0  0  0  0  0  0
   12.7595   23.1235    1.3282 H   0  0  0  0  0  0  0  0  0  0  0  0
   12.3741   21.6735   -0.9068 N   0  0  0  0  0  0  0  0  0  0  0  0
   13.6099   22.0324   -1.4432 C   0  0  0  0  0  0  0  0  0  0  0  0
   13.8324   21.5893   -2.6336 O   0  0  0  0  0  0  0  0  0  0  0  0
   12.0898   21.9700    0.0445 H   0  0  0  0  0  0  0  0  0  0  0  0
   11.3937   20.8636   -1.6290 C   0  0  0  0  0  0  0  0  0  0  0  0
    9.8149   22.7260   -1.4511 O   0  0  0  0  0  0  0  0  0  0  0  0
   10.0162   21.3432   -1.4938 C   0  0  0  0  0  0  0  0  0  0  0  0
    9.0218   20.6082   -1.4150 O   0  0  0  0  0  0  0  0  0  0  0  0
    9.8500   23.2515   -2.3311 H   0  0  0  0  0  0  0  0  0  0  0  0
   17.5188   25.2275   -1.5522 C   0  0  0  0  0  0  0  0  0  0  0  0
   16.7276   26.1066   -2.4367 C   0  0  0  0  0  0  0  0  0  0  0  0
   15.3538   26.0481   -2.4916 C   0  0  0  0  0  0  0  0  0  0  0  0
   14.6277   26.8923   -3.3427 C   0  0  0  0  0  0  0  0  0  0  0  0
   15.2854   27.7892   -4.1323 C   0  0  0  0  0  0  0  0  0  0  0  0
   16.6470   27.8656   -4.0950 C   0  0  0  0  0  0  0  0  0  0  0  0
   17.3686   27.0216   -3.2446 C   0  0  0  0  0  0  0  0  0  0  0  0
   14.5699   28.6217   -4.9718 O   0  0  0  0  0  0  0  0  0  0  0  0
   13.2851   29.0281   -4.6085 C   0  0  0  0  0  0  0  0  0  0  0  0
   12.2076   28.1715   -4.6690 C   0  0  0  0  0  0  0  0  0  0  0  0
   10.9429   28.5719   -4.3113 C   0  0  0  0  0  0  0  0  0  0  0  0
   10.6950   29.8628   -3.8712 C   0  0  0  0  0  0  0  0  0  0  0  0
   11.7724   30.7215   -3.8099 C   0  0  0  0  0  0  0  0  0  0  0  0
   11.5263   31.9880   -3.3777 F   0  0  0  0  0  0  0  0  0  0  0  0
   13.0550   30.3155   -4.1728 C   0  0  0  0  0  0  0  0  0  0  0  0
 15 16  1  0  0  0
 16 17  2  0  0  0
 16 14  1  0  0  0
 14 10  1  0  0  0
 10 11  1  0  0  0
 11 12  2  0  0  0
 11  1  1  0  0  0
  1  2  2  0  0  0
  2  3  1  0  0  0
  2  4  1  0  0  0
  4  5  1  0  0  0
  5  6  1  0  0  0
  6 19  1  0  0  0
 19 20  1  0  0  0
 20 21  2  0  0  0
 21 22  1  0  0  0
 22 23  2  0  0  0
 23 26  1  0  0  0
 26 27  1  0  0  0
 27 28  2  0  0  0
 28 29  1  0  0  0
 29 30  2  0  0  0
 30 31  1  0  0  0
 31 32  1  0  0  0
 31 33  2  0  0  0
 23 24  1  0  0  0
 24 25  2  0  0  0
  6  7  1  0  0  0
  7  8  2  0  0  0
  7  1  1  0  0  0
 25 20  1  0  0  0
 33 27  1  0  0  0
 15 18  1  0  0  0
 10 13  1  0  0  0
  3  9  1  0  0  0
M  END
> <minimizedAffinity>
14.71322

> <CNNscore>
0.4458326399

> <CNNaffinity>
6.5453224182

> <CNN_VS>
2.9181184769

> <CNNaffinity_variance>
1.2038154602

$$$$
[H]OC(=O)C([H])([H])N([H])C(=O)C1=C(O[H])C([H])([H])C([H])([H])N(C([H])([H])c2c([H])c([H])c(Oc3c([H])c([H])c([H])c(F)c3[H])c([H])c2[H])C1=O


 33 35  0  0  0  0  0  0  0  0999 V2000
   10.4780   21.6776    2.2187 C   0  0  0  0  0  0  0  0  0  0  0  0
   10.8921   20.8623    1.2497 C   0  0  0  0  0  0  0  0  0  0  0  0
   10.9538   19.4640    1.4229 O   0  0  0  0  0  0  0  0  0  0  0  0
   11.3247   21.3330   -0.0917 C   0  0  0  0  0  0  0  0  0  0  0  0
   10.6766   22.6520   -0.4521 C   0  0  0  0  0  0  0  0  0  0  0  0
   10.8611   23.5954    0.6635 N   0  0  0  0  0  0  0  0  0  0  0  0
   10.4506   23.1030    1.9449 C   0  0  0  0  0  0  0  0  0  0  0  0
   10.0824   23.9602    2.7743 O   0  0  0  0  0  0  0  0  0  0  0  0
   11.8319   19.1388    1.8368 H   0  0  0  0  0  0  0  0  0  0  0  0
    8.8474   21.1631    4.1217 N   0  0  0  0  0  0  0  0  0  0  0  0
   10.0831   21.0978    3.4795 C   0  0  0  0  0  0  0  0  0  0  0  0
   10.9852   20.4251    4.1090 O   0  0  0  0  0  0  0  0  0  0  0  0
    8.0496   21.6807    3.7101 H   0  0  0  0  0  0  0  0  0  0  0  0
    8.5788   20.5181    5.4064 C   0  0  0  0  0  0  0  0  0  0  0  0
    6.2824   19.7223    5.1129 O   0  0  0  0  0  0  0  0  0  0  0  0
    7.6281   19.4067    5.3225 C   0  0  0  0  0  0  0  0  0  0  0  0
    7.9358   18.2108    5.4247 O   0  0  0  0  0  0  0  0  0  0  0  0
    5.9823   19.9742    4.1651 H   0  0  0  0  0  0  0  0  0  0  0  0
   11.4158   24.9056    0.4422 C   0  0  0  0  0  0  0  0  0  0  0  0
   12.5588   24.9304   -0.4927 C   0  0  0  0  0  0  0  0  0  0  0  0
   12.4384   25.3802   -1.7877 C   0  0  0  0  0  0  0  0  0  0  0  0
   13.5392   25.3898   -2.6550 C   0  0  0  0  0  0  0  0  0  0  0  0
   14.7529   24.9483   -2.2165 C   0  0  0  0  0  0  0  0  0  0  0  0
   14.8968   24.4979   -0.9368 C   0  0  0  0  0  0  0  0  0  0  0  0
   13.7961   24.4896   -0.0739 C   0  0  0  0  0  0  0  0  0  0  0  0
   15.8388   24.9575   -3.0713 O   0  0  0  0  0  0  0  0  0  0  0  0
   15.7922   25.7244   -4.2365 C   0  0  0  0  0  0  0  0  0  0  0  0
   16.0472   27.0784   -4.2261 C   0  0  0  0  0  0  0  0  0  0  0  0
   16.0012   27.8331   -5.3732 C   0  0  0  0  0  0  0  0  0  0  0  0
   15.6945   27.2612   -6.5982 C   0  0  0  0  0  0  0  0  0  0  0  0
   15.4390   25.9061   -6.6105 C   0  0  0  0  0  0  0  0  0  0  0  0
   15.1381   25.3473   -7.8141 F   0  0  0  0  0  0  0  0  0  0  0  0
   15.4856   25.1407   -5.4471 C   0  0  0  0  0  0  0  0  0  0  0  0
 15 16  1  0  0  0
 16 17  2  0  0  0
 16 14  1  0  0  0
 14 10  1  0  0  0
 10 11  1  0  0  0
 11 12  2  0  0  0
 11  1  1  0  0  0
  1  2  2  0  0  0
  2  3  1  0  0  0
  2  4  1  0  0  0
  4  5  1  0  0  0
  5  6  1  0  0  0
  6 19  1  0  0  0
 19 20  1  0  0  0
 20 21  2  0  0  0
 21 22  1  0  0  0
 22 23  2  0  0  0
 23 26  1  0  0  0
 26 27  1  0  0  0
 27 28  2  0  0  0
 28 29  1  0  0  0
 29 30  2  0  0  0
 30 31  1  0  0  0
 31 32  1  0  0  0
 31 33  2  0  0  0
 23 24  1  0  0  0
 24 25  2  0  0  0
  6  7  1  0  0  0
  7  8  2  0  0  0
  7  1  1  0  0  0
 25 20  1  0  0  0
 33 27  1  0  0  0
 15 18  1  0  0  0
 10 13  1  0  0  0
  3  9  1  0  0  0
M  END
> <minimizedAffinity>
-8.86544

> <CNNscore>
0.3871163428

> <CNNaffinity>
6.2055521011

> <CNN_VS>
2.4022705555

> <CNNaffinity_variance>
0.0378481783

$$$$
[H]OC(=O)C([H])([H])N([H])C(=O)C1=C(O[H])C([H])([H])C([H])([H])N(C([H])([H])c2c([H])nc(Oc3c([H])c([H])c([H])c(F)c3[H])c([H])c2[H])C1=O


 33 35  0  0  0  0  0  0  0  0999 V2000
   14.2268   21.1411   -2.6731 C   0  0  0  0  0  0  0  0  0  0  0  0
   13.4554   20.0951   -2.5221 C   0  0  0  0  0  0  0  0  0  0  0  0
   13.1240   19.3706   -3.6862 O   0  0  0  0  0  0  0  0  0  0  0  0
   12.8971   19.6085   -1.2242 C   0  0  0  0  0  0  0  0  0  0  0  0
   13.8090   19.9281   -0.0994 C   0  0  0  0  0  0  0  0  0  0  0  0
   14.0532   21.3695   -0.1474 N   0  0  0  0  0  0  0  0  0  0  0  0
   14.5524   21.8372   -1.3845 C   0  0  0  0  0  0  0  0  0  0  0  0
   15.2846   22.8588   -1.4064 O   0  0  0  0  0  0  0  0  0  0  0  0
   12.1822   19.0369   -3.7677 H   0  0  0  0  0  0  0  0  0  0  0  0
   15.1666   23.0323   -4.0327 N   0  0  0  0  0  0  0  0  0  0  0  0
   14.8063   21.6927   -3.8504 C   0  0  0  0  0  0  0  0  0  0  0  0
   15.0446   20.9316   -4.8807 O   0  0  0  0  0  0  0  0  0  0  0  0
   15.0425   23.7478   -3.3184 H   0  0  0  0  0  0  0  0  0  0  0  0
   15.7595   23.5033   -5.2905 C   0  0  0  0  0  0  0  0  0  0  0  0
   15.3576   25.5910   -6.5276 O   0  0  0  0  0  0  0  0  0  0  0  0
   15.6936   24.9754   -5.3255 C   0  0  0  0  0  0  0  0  0  0  0  0
   15.9186   25.7218   -4.3482 O   0  0  0  0  0  0  0  0  0  0  0  0
   14.4837   25.4291   -7.0019 H   0  0  0  0  0  0  0  0  0  0  0  0
   13.8120   22.2563    0.9580 C   0  0  0  0  0  0  0  0  0  0  0  0
   13.4911   23.6497    0.5540 C   0  0  0  0  0  0  0  0  0  0  0  0
   14.3906   24.6495    0.8007 C   0  0  0  0  0  0  0  0  0  0  0  0
   14.0969   25.9375    0.4341 C   0  0  0  0  0  0  0  0  0  0  0  0
   12.8891   26.1849   -0.1790 C   0  0  0  0  0  0  0  0  0  0  0  0
   12.0023   25.2033   -0.4230 N   0  0  0  0  0  0  0  0  0  0  0  0
   12.2996   23.9371   -0.0584 C   0  0  0  0  0  0  0  0  0  0  0  0
   12.5935   27.4856   -0.5486 O   0  0  0  0  0  0  0  0  0  0  0  0
   12.5297   27.7942   -1.8923 C   0  0  0  0  0  0  0  0  0  0  0  0
   12.7982   26.8631   -2.8805 C   0  0  0  0  0  0  0  0  0  0  0  0
   12.7249   27.2045   -4.2056 C   0  0  0  0  0  0  0  0  0  0  0  0
   12.3836   28.4774   -4.5846 C   0  0  0  0  0  0  0  0  0  0  0  0
   12.1113   29.4240   -3.6234 C   0  0  0  0  0  0  0  0  0  0  0  0
   11.7674   30.7041   -3.9537 F   0  0  0  0  0  0  0  0  0  0  0  0
   12.1866   29.0749   -2.2953 C   0  0  0  0  0  0  0  0  0  0  0  0
 15 16  1  0  0  0
 16 17  2  0  0  0
 16 14  1  0  0  0
 14 10  1  0  0  0
 10 11  1  0  0  0
 11 12  2  0  0  0
 11  1  1  0  0  0
  1  2  2  0  0  0
  2  3  1  0  0  0
  2  4  1  0  0  0
  4  5  1  0  0  0
  5  6  1  0  0  0
  6 19  1  0  0  0
 19 20  1  0  0  0
 20 21  2  0  0  0
 21 22  1  0  0  0
 22 23  2  0  0  0
 23 26  1  0  0  0
 26 27  1  0  0  0
 27 28  2  0  0  0
 28 29  1  0  0  0
 29 30  2  0  0  0
 30 31  1  0  0  0
 31 32  1  0  0  0
 31 33  2  0  0  0
 23 24  1  0  0  0
 24 25  2  0  0  0
  6  7  1  0  0  0
  7  8  2  0  0  0
  7  1  1  0  0  0
 25 20  1  0  0  0
 33 27  1  0  0  0
 15 18  1  0  0  0
 10 13  1  0  0  0
  3  9  1  0  0  0
M  END
> <minimizedAffinity>
22.62155

> <CNNscore>
0.4588356912

> <CNNaffinity>
6.0884904861

> <CNN_VS>
2.7936167717

> <CNNaffinity_variance>
0.6240860224

$$$$
[H]OC(=O)C([H])([H])N([H])C(=O)C1=C(O[H])C([H])([H])C([H])([H])N(C([H])([H])c2c([H])nc(Oc3c([H])c([H])c([H])c(F)c3[H])c([H])c2[H])C1=O


 33 35  0  0  0  0  0  0  0  0999 V2000
   10.2444   21.5142    1.5837 C   0  0  0  0  0  0  0  0  0  0  0  0
   10.5015   20.8959    0.4597 C   0  0  0  0  0  0  0  0  0  0  0  0
   10.3421   19.4944    0.4489 O   0  0  0  0  0  0  0  0  0  0  0  0
   10.9506   21.5489   -0.8072 C   0  0  0  0  0  0  0  0  0  0  0  0
   10.4117   22.9261   -0.9160 C   0  0  0  0  0  0  0  0  0  0  0  0
   10.8090   23.6347    0.3004 N   0  0  0  0  0  0  0  0  0  0  0  0
   10.4121   23.0029    1.5012 C   0  0  0  0  0  0  0  0  0  0  0  0
   10.1955   23.7028    2.5227 O   0  0  0  0  0  0  0  0  0  0  0  0
   11.0300   18.9569   -0.0439 H   0  0  0  0  0  0  0  0  0  0  0  0
    8.6113   21.2962    3.4795 N   0  0  0  0  0  0  0  0  0  0  0  0
    9.8194   20.9973    2.8400 C   0  0  0  0  0  0  0  0  0  0  0  0
   10.5803   20.1695    3.4981 O   0  0  0  0  0  0  0  0  0  0  0  0
    7.9123   21.9264    3.0898 H   0  0  0  0  0  0  0  0  0  0  0  0
    8.2653   20.7087    4.7796 C   0  0  0  0  0  0  0  0  0  0  0  0
    6.0440   21.7052    4.4281 O   0  0  0  0  0  0  0  0  0  0  0  0
    6.7976   20.6305    4.8909 C   0  0  0  0  0  0  0  0  0  0  0  0
    6.1705   19.6628    5.3738 O   0  0  0  0  0  0  0  0  0  0  0  0
    6.0665   22.0201    3.4715 H   0  0  0  0  0  0  0  0  0  0  0  0
   11.5430   24.8707    0.2996 C   0  0  0  0  0  0  0  0  0  0  0  0
   12.7055   24.8807   -0.6257 C   0  0  0  0  0  0  0  0  0  0  0  0
   13.8564   24.2323   -0.2729 C   0  0  0  0  0  0  0  0  0  0  0  0
   14.9333   24.2428   -1.1213 C   0  0  0  0  0  0  0  0  0  0  0  0
   14.8184   24.9155   -2.3173 C   0  0  0  0  0  0  0  0  0  0  0  0
   13.6875   25.5543   -2.6670 N   0  0  0  0  0  0  0  0  0  0  0  0
   12.6312   25.5389   -1.8252 C   0  0  0  0  0  0  0  0  0  0  0  0
   15.9063   24.9257   -3.1730 O   0  0  0  0  0  0  0  0  0  0  0  0
   15.8150   25.6377   -4.3519 C   0  0  0  0  0  0  0  0  0  0  0  0
   15.5682   25.0276   -5.5693 C   0  0  0  0  0  0  0  0  0  0  0  0
   15.4837   25.7661   -6.7206 C   0  0  0  0  0  0  0  0  0  0  0  0
   15.6417   27.1279   -6.6940 C   0  0  0  0  0  0  0  0  0  0  0  0
   15.8881   27.7615   -5.4973 C   0  0  0  0  0  0  0  0  0  0  0  0
   16.0524   29.1155   -5.4225 F   0  0  0  0  0  0  0  0  0  0  0  0
   15.9717   27.0145   -4.3456 C   0  0  0  0  0  0  0  0  0  0  0  0
 15 16  1  0  0  0
 16 17  2  0  0  0
 16 14  1  0  0  0
 14 10  1  0  0  0
 10 11  1  0  0  0
 11 12  2  0  0  0
 11  1  1  0  0  0
  1  2  2  0  0  0
  2  3  1  0  0  0
  2  4  1  0  0  0
  4  5  1  0  0  0
  5  6  1  0  0  0
  6 19  1  0  0  0
 19 20  1  0  0  0
 20 21  2  0  0  0
 21 22  1  0  0  0
 22 23  2  0  0  0
 23 26  1  0  0  0
 26 27  1  0  0  0
 27 28  2  0  0  0
 28 29  1  0  0  0
 29 30  2  0  0  0
 30 31  1  0  0  0
 31 32  1  0  0  0
 31 33  2  0  0  0
 23 24  1  0  0  0
 24 25  2  0  0  0
  6  7  1  0  0  0
  7  8  2  0  0  0
  7  1  1  0  0  0
 25 20  1  0  0  0
 33 27  1  0  0  0
 15 18  1  0  0  0
 10 13  1  0  0  0
  3  9  1  0  0  0
M  END
> <minimizedAffinity>
-8.02919

> <CNNscore>
0.4459574819

> <CNNaffinity>
6.4767179489

> <CNN_VS>
2.8883407116

> <CNNaffinity_variance>
0.1050141305

$$$$
[H]OC(=O)C([H])([H])N([H])C(=O)C1=C(O[H])C([H])([H])C([H])([H])N(C([H])([H])c2c([H])nc(Oc3c([H])c([H])c([H])c(F)c3[H])c([H])c2[H])C1=O


 33 35  0  0  0  0  0  0  0  0999 V2000
   10.4303   21.5289    3.0783 C   0  0  0  0  0  0  0  0  0  0  0  0
   11.3392   20.7074    2.6191 C   0  0  0  0  0  0  0  0  0  0  0  0
   11.4661   19.4634    3.2720 O   0  0  0  0  0  0  0  0  0  0  0  0
   12.2515   20.9781    1.4670 C   0  0  0  0  0  0  0  0  0  0  0  0
   11.6069   21.8745    0.4771 C   0  0  0  0  0  0  0  0  0  0  0  0
   11.1811   23.0713    1.2023 N   0  0  0  0  0  0  0  0  0  0  0  0
   10.3427   22.8156    2.3115 C   0  0  0  0  0  0  0  0  0  0  0  0
    9.5059   23.6849    2.6641 O   0  0  0  0  0  0  0  0  0  0  0  0
   12.3940   19.1136    3.4191 H   0  0  0  0  0  0  0  0  0  0  0  0
    8.1381   21.5967    4.1028 N   0  0  0  0  0  0  0  0  0  0  0  0
    9.5189   21.3782    4.1612 C   0  0  0  0  0  0  0  0  0  0  0  0
    9.9507   21.0069    5.3330 O   0  0  0  0  0  0  0  0  0  0  0  0
    7.6528   21.8898    3.2565 H   0  0  0  0  0  0  0  0  0  0  0  0
    7.2815   21.4134    5.2809 C   0  0  0  0  0  0  0  0  0  0  0  0
    7.0013   19.1154    4.4495 O   0  0  0  0  0  0  0  0  0  0  0  0
    6.4367   20.2234    5.0744 C   0  0  0  0  0  0  0  0  0  0  0  0
    5.2391   20.1313    5.4212 O   0  0  0  0  0  0  0  0  0  0  0  0
    7.7985   18.6232    4.8197 H   0  0  0  0  0  0  0  0  0  0  0  0
   11.5707   24.4059    0.8369 C   0  0  0  0  0  0  0  0  0  0  0  0
   12.7004   24.4615   -0.1266 C   0  0  0  0  0  0  0  0  0  0  0  0
   12.4468   24.6609   -1.4553 C   0  0  0  0  0  0  0  0  0  0  0  0
   13.4857   24.7082   -2.3488 C   0  0  0  0  0  0  0  0  0  0  0  0
   14.7677   24.5511   -1.8716 C   0  0  0  0  0  0  0  0  0  0  0  0
   15.0202   24.3548   -0.5651 N   0  0  0  0  0  0  0  0  0  0  0  0
   13.9908   24.3095    0.3084 C   0  0  0  0  0  0  0  0  0  0  0  0
   15.8157   24.5988   -2.7745 O   0  0  0  0  0  0  0  0  0  0  0  0
   15.9059   25.6796   -3.6282 C   0  0  0  0  0  0  0  0  0  0  0  0
   16.5851   26.8370   -3.2900 C   0  0  0  0  0  0  0  0  0  0  0  0
   16.6544   27.8910   -4.1630 C   0  0  0  0  0  0  0  0  0  0  0  0
   16.0524   27.8243   -5.3932 C   0  0  0  0  0  0  0  0  0  0  0  0
   15.3700   26.6855   -5.7563 C   0  0  0  0  0  0  0  0  0  0  0  0
   14.7549   26.5739   -6.9709 F   0  0  0  0  0  0  0  0  0  0  0  0
   15.3042   25.6313   -4.8756 C   0  0  0  0  0  0  0  0  0  0  0  0
 15 16  1  0  0  0
 16 17  2  0  0  0
 16 14  1  0  0  0
 14 10  1  0  0  0
 10 11  1  0  0  0
 11 12  2  0  0  0
 11  1  1  0  0  0
  1  2  2  0  0  0
  2  3  1  0  0  0
  2  4  1  0  0  0
  4  5  1  0  0  0
  5  6  1  0  0  0
  6 19  1  0  0  0
 19 20  1  0  0  0
 20 21  2  0  0  0
 21 22  1  0  0  0
 22 23  2  0  0  0
 23 26  1  0  0  0
 26 27  1  0  0  0
 27 28  2  0  0  0
 28 29  1  0  0  0
 29 30  2  0  0  0
 30 31  1  0  0  0
 31 32  1  0  0  0
 31 33  2  0  0  0
 23 24  1  0  0  0
 24 25  2  0  0  0
  6  7  1  0  0  0
  7  8  2  0  0  0
  7  1  1  0  0  0
 25 20  1  0  0  0
 33 27  1  0  0  0
 15 18  1  0  0  0
 10 13  1  0  0  0
  3  9  1  0  0  0
M  END
> <minimizedAffinity>
-8.90042

> <CNNscore>
0.4134951234

> <CNNaffinity>
6.3136568069

> <CNN_VS>
2.6106662750

> <CNNaffinity_variance>
0.1633947492

$$$$
[H]OC(=O)C([H])([H])N([H])C(=O)C1=C(O[H])C([H])([H])C([H])([H])N(C([H])([H])c2c([H])nc(Oc3c([H])c([H])c([H])c(F)c3[H])c([H])c2[H])C1=O


 33 35  0  0  0  0  0  0  0  0999 V2000
    8.0801   20.4009   -0.4487 C   0  0  0  0  0  0  0  0  0  0  0  0
    8.2233   20.4357   -1.7488 C   0  0  0  0  0  0  0  0  0  0  0  0
    7.1008   20.0814   -2.5262 O   0  0  0  0  0  0  0  0  0  0  0  0
    9.4730   20.8156   -2.4747 C   0  0  0  0  0  0  0  0  0  0  0  0
   10.2645   21.7967   -1.6938 C   0  0  0  0  0  0  0  0  0  0  0  0
   10.4900   21.2063   -0.3746 N   0  0  0  0  0  0  0  0  0  0  0  0
    9.3109   20.8176    0.3014 C   0  0  0  0  0  0  0  0  0  0  0  0
    9.2925   20.8203    1.5584 O   0  0  0  0  0  0  0  0  0  0  0  0
    7.2640   19.5207   -3.3410 H   0  0  0  0  0  0  0  0  0  0  0  0
    6.3446   20.8675    1.3059 N   0  0  0  0  0  0  0  0  0  0  0  0
    6.9487   20.0531    0.3418 C   0  0  0  0  0  0  0  0  0  0  0  0
    6.3842   18.8876    0.1990 O   0  0  0  0  0  0  0  0  0  0  0  0
    6.6713   21.8057    1.5307 H   0  0  0  0  0  0  0  0  0  0  0  0
    5.1769   20.4138    2.0713 C   0  0  0  0  0  0  0  0  0  0  0  0
    6.1504   18.5731    3.3807 O   0  0  0  0  0  0  0  0  0  0  0  0
    5.6364   19.8663    3.3603 C   0  0  0  0  0  0  0  0  0  0  0  0
    5.5999   20.4805    4.4486 O   0  0  0  0  0  0  0  0  0  0  0  0
    6.9583   18.2949    2.8472 H   0  0  0  0  0  0  0  0  0  0  0  0
   11.7926   21.0253    0.2059 C   0  0  0  0  0  0  0  0  0  0  0  0
   12.8112   21.9883   -0.2868 C   0  0  0  0  0  0  0  0  0  0  0  0
   13.6030   21.6507   -1.3491 C   0  0  0  0  0  0  0  0  0  0  0  0
   14.5475   22.5341   -1.8043 C   0  0  0  0  0  0  0  0  0  0  0  0
   14.6691   23.7489   -1.1676 C   0  0  0  0  0  0  0  0  0  0  0  0
   13.8915   24.0838   -0.1223 N   0  0  0  0  0  0  0  0  0  0  0  0
   12.9634   23.2075    0.3198 C   0  0  0  0  0  0  0  0  0  0  0  0
   15.6231   24.6399   -1.6278 O   0  0  0  0  0  0  0  0  0  0  0  0
   15.3057   25.4586   -2.6927 C   0  0  0  0  0  0  0  0  0  0  0  0
   14.0410   25.4885   -3.2539 C   0  0  0  0  0  0  0  0  0  0  0  0
   13.7612   26.3144   -4.3110 C   0  0  0  0  0  0  0  0  0  0  0  0
   14.7279   27.1314   -4.8385 C   0  0  0  0  0  0  0  0  0  0  0  0
   15.9946   27.1226   -4.3004 C   0  0  0  0  0  0  0  0  0  0  0  0
   16.9893   27.9190   -4.7929 F   0  0  0  0  0  0  0  0  0  0  0  0
   16.2689   26.2914   -3.2396 C   0  0  0  0  0  0  0  0  0  0  0  0
 15 16  1  0  0  0
 16 17  2  0  0  0
 16 14  1  0  0  0
 14 10  1  0  0  0
 10 11  1  0  0  0
 11 12  2  0  0  0
 11  1  1  0  0  0
  1  2  2  0  0  0
  2  3  1  0  0  0
  2  4  1  0  0  0
  4  5  1  0  0  0
  5  6  1  0  0  0
  6 19  1  0  0  0
 19 20  1  0  0  0
 20 21  2  0  0  0
 21 22  1  0  0  0
 22 23  2  0  0  0
 23 26  1  0  0  0
 26 27  1  0  0  0
 27 28  2  0  0  0
 28 29  1  0  0  0
 29 30  2  0  0  0
 30 31  1  0  0  0
 31 32  1  0  0  0
 31 33  2  0  0  0
 23 24  1  0  0  0
 24 25  2  0  0  0
  6  7  1  0  0  0
  7  8  2  0  0  0
  7  1  1  0  0  0
 25 20  1  0  0  0
 33 27  1  0  0  0
 15 18  1  0  0  0
 10 13  1  0  0  0
  3  9  1  0  0  0
M  END
> <minimizedAffinity>
-7.49903

> <CNNscore>
0.3486109078

> <CNNaffinity>
6.3842530251

> <CNN_VS>
2.2256202698

> <CNNaffinity_variance>
0.3382018507

$$$$
[H]OC(=O)C([H])([H])N([H])C(=O)C1=C(O[H])C([H])([H])C([H])([H])N(C([H])([H])c2c([H])nc(Oc3c([H])c([H])c([H])c(F)c3[H])c([H])c2[H])C1=O


 33 35  0  0  0  0  0  0  0  0999 V2000
   11.0697   21.4616    2.2966 C   0  0  0  0  0  0  0  0  0  0  0  0
   11.8682   20.4264    2.2463 C   0  0  0  0  0  0  0  0  0  0  0  0
   11.4306   19.2486    2.8876 O   0  0  0  0  0  0  0  0  0  0  0  0
   13.2006   20.3898    1.5707 C   0  0  0  0  0  0  0  0  0  0  0  0
   13.2331   21.3096    0.4081 C   0  0  0  0  0  0  0  0  0  0  0  0
   12.8438   22.6307    0.9010 N   0  0  0  0  0  0  0  0  0  0  0  0
   11.5976   22.6621    1.5677 C   0  0  0  0  0  0  0  0  0  0  0  0
   10.9167   23.7187    1.5506 O   0  0  0  0  0  0  0  0  0  0  0  0
   12.1132   18.7233    3.4003 H   0  0  0  0  0  0  0  0  0  0  0  0
    8.6431   22.1099    2.2913 N   0  0  0  0  0  0  0  0  0  0  0  0
    9.7936   21.6085    2.9099 C   0  0  0  0  0  0  0  0  0  0  0  0
    9.6221   21.2625    4.1542 O   0  0  0  0  0  0  0  0  0  0  0  0
    8.6190   22.4210    1.3217 H   0  0  0  0  0  0  0  0  0  0  0  0
    7.3701   22.2221    3.0139 C   0  0  0  0  0  0  0  0  0  0  0  0
    7.5148   24.6685    2.8014 O   0  0  0  0  0  0  0  0  0  0  0  0
    7.2817   23.5645    3.6162 C   0  0  0  0  0  0  0  0  0  0  0  0
    7.0104   23.7905    4.8154 O   0  0  0  0  0  0  0  0  0  0  0  0
    6.9609   24.8756    1.9858 H   0  0  0  0  0  0  0  0  0  0  0  0
   13.6456   23.8121    0.7341 C   0  0  0  0  0  0  0  0  0  0  0  0
   13.5294   24.4345   -0.6101 C   0  0  0  0  0  0  0  0  0  0  0  0
   14.4111   24.0859   -1.5952 C   0  0  0  0  0  0  0  0  0  0  0  0
   14.3109   24.6610   -2.8357 C   0  0  0  0  0  0  0  0  0  0  0  0
   13.3116   25.5835   -3.0512 C   0  0  0  0  0  0  0  0  0  0  0  0
   12.4428   25.9284   -2.0840 N   0  0  0  0  0  0  0  0  0  0  0  0
   12.5487   25.3569   -0.8646 C   0  0  0  0  0  0  0  0  0  0  0  0
   13.2114   26.1638   -4.3039 O   0  0  0  0  0  0  0  0  0  0  0  0
   14.3603   26.6249   -4.9141 C   0  0  0  0  0  0  0  0  0  0  0  0
   14.6347   26.3924   -6.2505 C   0  0  0  0  0  0  0  0  0  0  0  0
   15.7859   26.8657   -6.8237 C   0  0  0  0  0  0  0  0  0  0  0  0
   16.6941   27.5813   -6.0866 C   0  0  0  0  0  0  0  0  0  0  0  0
   16.4474   27.8277   -4.7553 C   0  0  0  0  0  0  0  0  0  0  0  0
   17.3232   28.5356   -3.9820 F   0  0  0  0  0  0  0  0  0  0  0  0
   15.2902   27.3499   -4.1861 C   0  0  0  0  0  0  0  0  0  0  0  0
 15 16  1  0  0  0
 16 17  2  0  0  0
 16 14  1  0  0  0
 14 10  1  0  0  0
 10 11  1  0  0  0
 11 12  2  0  0  0
 11  1  1  0  0  0
  1  2  2  0  0  0
  2  3  1  0  0  0
  2  4  1  0  0  0
  4  5  1  0  0  0
  5  6  1  0  0  0
  6 19  1  0  0  0
 19 20  1  0  0  0
 20 21  2  0  0  0
 21 22  1  0  0  0
 22 23  2  0  0  0
 23 26  1  0  0  0
 26 27  1  0  0  0
 27 28  2  0  0  0
 28 29  1  0  0  0
 29 30  2  0  0  0
 30 31  1  0  0  0
 31 32  1  0  0  0
 31 33  2  0  0  0
 23 24  1  0  0  0
 24 25  2  0  0  0
  6  7  1  0  0  0
  7  8  2  0  0  0
  7  1  1  0  0  0
 25 20  1  0  0  0
 33 27  1  0  0  0
 15 18  1  0  0  0
 10 13  1  0  0  0
  3  9  1  0  0  0
M  END
> <minimizedAffinity>
-7.55355

> <CNNscore>
0.3301462531

> <CNNaffinity>
6.3238282204

> <CNN_VS>
2.0877881050

> <CNNaffinity_variance>
0.1663940400

$$$$
[H]OC(=O)C([H])([H])N([H])C(=O)C1=C(O[H])C([H])([H])C([H])([H])N(C([H])([H])c2c([H])nc(Oc3c([H])c([H])c([H])c(F)c3[H])c([H])c2[H])C1=O


 33 35  0  0  0  0  0  0  0  0999 V2000
    9.8400   22.5538    0.8128 C   0  0  0  0  0  0  0  0  0  0  0  0
    9.6231   21.3072    0.4799 C   0  0  0  0  0  0  0  0  0  0  0  0
    8.2911   20.8482    0.5505 O   0  0  0  0  0  0  0  0  0  0  0  0
   10.6657   20.3334    0.0354 C   0  0  0  0  0  0  0  0  0  0  0  0
   11.7742   21.0242   -0.6668 C   0  0  0  0  0  0  0  0  0  0  0  0
   12.2669   22.0634    0.2370 N   0  0  0  0  0  0  0  0  0  0  0  0
   11.2763   22.9677    0.6836 C   0  0  0  0  0  0  0  0  0  0  0  0
   11.6053   24.1443    0.9797 O   0  0  0  0  0  0  0  0  0  0  0  0
    8.1412   19.9250    0.9114 H   0  0  0  0  0  0  0  0  0  0  0  0
    9.0785   24.3481    2.3968 N   0  0  0  0  0  0  0  0  0  0  0  0
    8.9322   23.5588    1.2508 C   0  0  0  0  0  0  0  0  0  0  0  0
    7.8531   23.8096    0.5651 O   0  0  0  0  0  0  0  0  0  0  0  0
    9.8697   24.2696    3.0336 H   0  0  0  0  0  0  0  0  0  0  0  0
    8.0815   25.3614    2.7633 C   0  0  0  0  0  0  0  0  0  0  0  0
    9.1988   25.5767    4.9441 O   0  0  0  0  0  0  0  0  0  0  0  0
    8.6337   26.2052    3.8383 C   0  0  0  0  0  0  0  0  0  0  0  0
    8.6339   27.4553    3.8335 O   0  0  0  0  0  0  0  0  0  0  0  0
    9.9860   24.9516    4.8776 H   0  0  0  0  0  0  0  0  0  0  0  0
   13.6389   22.1749    0.6515 C   0  0  0  0  0  0  0  0  0  0  0  0
   14.4382   23.1284   -0.1606 C   0  0  0  0  0  0  0  0  0  0  0  0
   14.3095   23.1308   -1.5218 C   0  0  0  0  0  0  0  0  0  0  0  0
   15.0485   24.0056   -2.2757 C   0  0  0  0  0  0  0  0  0  0  0  0
   15.9078   24.8646   -1.6279 C   0  0  0  0  0  0  0  0  0  0  0  0
   16.0365   24.8644   -0.2889 N   0  0  0  0  0  0  0  0  0  0  0  0
   15.3046   23.9993    0.4463 C   0  0  0  0  0  0  0  0  0  0  0  0
   16.6536   25.7472   -2.3899 O   0  0  0  0  0  0  0  0  0  0  0  0
   16.2102   26.0663   -3.6574 C   0  0  0  0  0  0  0  0  0  0  0  0
   15.6572   25.1253   -4.5084 C   0  0  0  0  0  0  0  0  0  0  0  0
   15.2270   25.4779   -5.7607 C   0  0  0  0  0  0  0  0  0  0  0  0
   15.3340   26.7720   -6.2011 C   0  0  0  0  0  0  0  0  0  0  0  0
   15.8798   27.7290   -5.3762 C   0  0  0  0  0  0  0  0  0  0  0  0
   16.0066   29.0302   -5.7720 F   0  0  0  0  0  0  0  0  0  0  0  0
   16.3097   27.3686   -4.1205 C   0  0  0  0  0  0  0  0  0  0  0  0
 15 16  1  0  0  0
 16 17  2  0  0  0
 16 14  1  0  0  0
 14 10  1  0  0  0
 10 11  1  0  0  0
 11 12  2  0  0  0
 11  1  1  0  0  0
  1  2  2  0  0  0
  2  3  1  0  0  0
  2  4  1  0  0  0
  4  5  1  0  0  0
  5  6  1  0  0  0
  6 19  1  0  0  0
 19 20  1  0  0  0
 20 21  2  0  0  0
 21 22  1  0  0  0
 22 23  2  0  0  0
 23 26  1  0  0  0
 26 27  1  0  0  0
 27 28  2  0  0  0
 28 29  1  0  0  0
 29 30  2  0  0  0
 30 31  1  0  0  0
 31 32  1  0  0  0
 31 33  2  0  0  0
 23 24  1  0  0  0
 24 25  2  0  0  0
  6  7  1  0  0  0
  7  8  2  0  0  0
  7  1  1  0  0  0
 25 20  1  0  0  0
 33 27  1  0  0  0
 15 18  1  0  0  0
 10 13  1  0  0  0
  3  9  1  0  0  0
M  END
> <minimizedAffinity>
-9.23376

> <CNNscore>
0.3263286054

> <CNNaffinity>
6.6558227539

> <CNN_VS>
2.1719853878

> <CNNaffinity_variance>
0.1021620184

$$$$
[H]OC(=O)C([H])([H])N([H])C(=O)C1=C(O[H])C([H])([H])C([H])([H])N(C([H])([H])c2c([H])nc(Oc3c([H])c([H])c([H])c(F)c3[H])c([H])c2[H])C1=O


 33 35  0  0  0  0  0  0  0  0999 V2000
    8.6627   22.5516    1.7274 C   0  0  0  0  0  0  0  0  0  0  0  0
    8.8104   21.4995    0.9638 C   0  0  0  0  0  0  0  0  0  0  0  0
    7.8393   20.4830    1.0798 O   0  0  0  0  0  0  0  0  0  0  0  0
    9.9194   21.2858   -0.0147 C   0  0  0  0  0  0  0  0  0  0  0  0
   10.4007   22.5765   -0.5636 C   0  0  0  0  0  0  0  0  0  0  0  0
   10.7593   23.4164    0.5790 N   0  0  0  0  0  0  0  0  0  0  0  0
    9.7213   23.5949    1.5220 C   0  0  0  0  0  0  0  0  0  0  0  0
    9.6840   24.6502    2.2042 O   0  0  0  0  0  0  0  0  0  0  0  0
    8.1618   19.5340    1.0573 H   0  0  0  0  0  0  0  0  0  0  0  0
    7.8244   23.6680    3.8153 N   0  0  0  0  0  0  0  0  0  0  0  0
    7.6578   22.8552    2.6886 C   0  0  0  0  0  0  0  0  0  0  0  0
    6.4591   22.3612    2.5603 O   0  0  0  0  0  0  0  0  0  0  0  0
    8.7034   24.1257    4.0506 H   0  0  0  0  0  0  0  0  0  0  0  0
    6.7207   23.9196    4.7501 C   0  0  0  0  0  0  0  0  0  0  0  0
    6.9169   26.1213    3.6709 O   0  0  0  0  0  0  0  0  0  0  0  0
    6.2041   25.2809    4.5210 C   0  0  0  0  0  0  0  0  0  0  0  0
    5.1636   25.7440    5.0366 O   0  0  0  0  0  0  0  0  0  0  0  0
    7.0908   25.9037    2.7028 H   0  0  0  0  0  0  0  0  0  0  0  0
   12.0528   24.0194    0.7506 C   0  0  0  0  0  0  0  0  0  0  0  0
   12.8612   24.0768   -0.4947 C   0  0  0  0  0  0  0  0  0  0  0  0
   12.6244   25.0648   -1.4097 C   0  0  0  0  0  0  0  0  0  0  0  0
   13.3645   25.1190   -2.5626 C   0  0  0  0  0  0  0  0  0  0  0  0
   14.3351   24.1632   -2.7635 C   0  0  0  0  0  0  0  0  0  0  0  0
   14.5702   23.1900   -1.8651 N   0  0  0  0  0  0  0  0  0  0  0  0
   13.8364   23.1440   -0.7319 C   0  0  0  0  0  0  0  0  0  0  0  0
   15.0815   24.2186   -3.9278 O   0  0  0  0  0  0  0  0  0  0  0  0
   15.4493   25.4543   -4.4205 C   0  0  0  0  0  0  0  0  0  0  0  0
   15.1324   25.8652   -5.7035 C   0  0  0  0  0  0  0  0  0  0  0  0
   15.5138   27.0998   -6.1597 C   0  0  0  0  0  0  0  0  0  0  0  0
   16.2189   27.9582   -5.3557 C   0  0  0  0  0  0  0  0  0  0  0  0
   16.5479   27.5760   -4.0752 C   0  0  0  0  0  0  0  0  0  0  0  0
   17.2491   28.3974   -3.2388 F   0  0  0  0  0  0  0  0  0  0  0  0
   16.1621   26.3357   -3.6234 C   0  0  0  0  0  0  0  0  0  0  0  0
 15 16  1  0  0  0
 16 17  2  0  0  0
 16 14  1  0  0  0
 14 10  1  0  0  0
 10 11  1  0  0  0
 11 12  2  0  0  0
 11  1  1  0  0  0
  1  2  2  0  0  0
  2  3  1  0  0  0
  2  4  1  0  0  0
  4  5  1  0  0  0
  5  6  1  0  0  0
  6 19  1  0  0  0
 19 20  1  0  0  0
 20 21  2  0  0  0
 21 22  1  0  0  0
 22 23  2  0  0  0
 23 26  1  0  0  0
 26 27  1  0  0  0
 27 28  2  0  0  0
 28 29  1  0  0  0
 29 30  2  0  0  0
 30 31  1  0  0  0
 31 32  1  0  0  0
 31 33  2  0  0  0
 23 24  1  0  0  0
 24 25  2  0  0  0
  6  7  1  0  0  0
  7  8  2  0  0  0
  7  1  1  0  0  0
 25 20  1  0  0  0
 33 27  1  0  0  0
 15 18  1  0  0  0
 10 13  1  0  0  0
  3  9  1  0  0  0
M  END
> <minimizedAffinity>
-9.06392

> <CNNscore>
0.3240370154

> <CNNaffinity>
6.0996484756

> <CNN_VS>
1.9765118361

> <CNNaffinity_variance>
0.0527398959

$$$$
[H]OC(=O)C([H])([H])N([H])C(=O)C1=C(O[H])C([H])([H])C([H])([H])N(C([H])([H])c2c([H])nc(Oc3c([H])c([H])c([H])c(F)c3[H])c([H])c2[H])C1=O


 33 35  0  0  0  0  0  0  0  0999 V2000
    9.1739   21.5042    0.2805 C   0  0  0  0  0  0  0  0  0  0  0  0
    9.1573   22.7918    0.5122 C   0  0  0  0  0  0  0  0  0  0  0  0
    7.9700   23.4841    0.1948 O   0  0  0  0  0  0  0  0  0  0  0  0
   10.2883   23.5863    1.0803 C   0  0  0  0  0  0  0  0  0  0  0  0
   11.1144   22.7589    1.9924 C   0  0  0  0  0  0  0  0  0  0  0  0
   11.5285   21.5776    1.2357 N   0  0  0  0  0  0  0  0  0  0  0  0
   10.4620   20.8413    0.6711 C   0  0  0  0  0  0  0  0  0  0  0  0
   10.5951   19.6042    0.4914 O   0  0  0  0  0  0  0  0  0  0  0  0
    8.0636   24.3874   -0.2297 H   0  0  0  0  0  0  0  0  0  0  0  0
    8.0282   20.3023   -1.6039 N   0  0  0  0  0  0  0  0  0  0  0  0
    8.1663   20.6546   -0.2569 C   0  0  0  0  0  0  0  0  0  0  0  0
    7.2667   20.1302    0.5262 O   0  0  0  0  0  0  0  0  0  0  0  0
    8.6548   20.6323   -2.3361 H   0  0  0  0  0  0  0  0  0  0  0  0
    6.9499   19.4161   -2.0588 C   0  0  0  0  0  0  0  0  0  0  0  0
    5.4465   21.3414   -1.7698 O   0  0  0  0  0  0  0  0  0  0  0  0
    5.8244   20.2410   -2.5335 C   0  0  0  0  0  0  0  0  0  0  0  0
    5.1761   20.0264   -3.5807 O   0  0  0  0  0  0  0  0  0  0  0  0
    6.0680   22.1076   -1.5658 H   0  0  0  0  0  0  0  0  0  0  0  0
   12.8994   21.1796    1.0659 C   0  0  0  0  0  0  0  0  0  0  0  0
   13.5617   21.7886   -0.1165 C   0  0  0  0  0  0  0  0  0  0  0  0
   14.1704   23.0072    0.0023 C   0  0  0  0  0  0  0  0  0  0  0  0
   14.7787   23.5753   -1.0872 C   0  0  0  0  0  0  0  0  0  0  0  0
   14.7562   22.8903   -2.2814 C   0  0  0  0  0  0  0  0  0  0  0  0
   14.1582   21.6913   -2.4012 N   0  0  0  0  0  0  0  0  0  0  0  0
   13.5612   21.1388   -1.3228 C   0  0  0  0  0  0  0  0  0  0  0  0
   15.3704   23.4648   -3.3807 O   0  0  0  0  0  0  0  0  0  0  0  0
   14.8679   24.6514   -3.8753 C   0  0  0  0  0  0  0  0  0  0  0  0
   13.8360   25.3350   -3.2562 C   0  0  0  0  0  0  0  0  0  0  0  0
   13.3620   26.5112   -3.7754 C   0  0  0  0  0  0  0  0  0  0  0  0
   13.8989   27.0395   -4.9213 C   0  0  0  0  0  0  0  0  0  0  0  0
   14.9261   26.3812   -5.5582 C   0  0  0  0  0  0  0  0  0  0  0  0
   15.4917   26.8695   -6.7017 F   0  0  0  0  0  0  0  0  0  0  0  0
   15.3973   25.2012   -5.0319 C   0  0  0  0  0  0  0  0  0  0  0  0
 15 16  1  0  0  0
 16 17  2  0  0  0
 16 14  1  0  0  0
 14 10  1  0  0  0
 10 11  1  0  0  0
 11 12  2  0  0  0
 11  1  1  0  0  0
  1  2  2  0  0  0
  2  3  1  0  0  0
  2  4  1  0  0  0
  4  5  1  0  0  0
  5  6  1  0  0  0
  6 19  1  0  0  0
 19 20  1  0  0  0
 20 21  2  0  0  0
 21 22  1  0  0  0
 22 23  2  0  0  0
 23 26  1  0  0  0
 26 27  1  0  0  0
 27 28  2  0  0  0
 28 29  1  0  0  0
 29 30  2  0  0  0
 30 31  1  0  0  0
 31 32  1  0  0  0
 31 33  2  0  0  0
 23 24  1  0  0  0
 24 25  2  0  0  0
  6  7  1  0  0  0
  7  8  2  0  0  0
  7  1  1  0  0  0
 25 20  1  0  0  0
 33 27  1  0  0  0
 15 18  1  0  0  0
 10 13  1  0  0  0
  3  9  1  0  0  0
M  END
> <minimizedAffinity>
-10.14272

> <CNNscore>
0.3069522083

> <CNNaffinity>
6.4135894775

> <CNN_VS>
1.9686654806

> <CNNaffinity_variance>
0.1824668348

$$$$
[H]OC(=O)C([H])([H])N([H])C(=O)C1=C(O[H])C([H])([H])C([H])([H])N(C([H])([H])c2c([H])nc(Oc3c([H])c([H])c([H])c(F)c3[H])c([H])c2[H])C1=O


 33 35  0  0  0  0  0  0  0  0999 V2000
   11.5899   20.8916    1.7070 C   0  0  0  0  0  0  0  0  0  0  0  0
   12.6589   21.3626    2.2963 C   0  0  0  0  0  0  0  0  0  0  0  0
   12.5518   21.6656    3.6698 O   0  0  0  0  0  0  0  0  0  0  0  0
   13.9771   21.6074    1.6366 C   0  0  0  0  0  0  0  0  0  0  0  0
   14.1995   20.6549    0.5221 C   0  0  0  0  0  0  0  0  0  0  0  0
   13.0477   20.7713   -0.3720 N   0  0  0  0  0  0  0  0  0  0  0  0
   11.7972   20.5706    0.2561 C   0  0  0  0  0  0  0  0  0  0  0  0
   10.8374   20.1140   -0.4151 O   0  0  0  0  0  0  0  0  0  0  0  0
   12.9997   22.5023    3.9926 H   0  0  0  0  0  0  0  0  0  0  0  0
    9.0992   21.2050    1.7894 N   0  0  0  0  0  0  0  0  0  0  0  0
   10.2936   20.6258    2.2315 C   0  0  0  0  0  0  0  0  0  0  0  0
   10.1449   19.7782    3.2097 O   0  0  0  0  0  0  0  0  0  0  0  0
    9.0533   21.8852    1.0325 H   0  0  0  0  0  0  0  0  0  0  0  0
    7.8084   20.8630    2.3994 C   0  0  0  0  0  0  0  0  0  0  0  0
    6.5209   22.9178    2.8126 O   0  0  0  0  0  0  0  0  0  0  0  0
    6.8017   21.8488    1.9668 C   0  0  0  0  0  0  0  0  0  0  0  0
    6.1738   21.7985    0.8869 O   0  0  0  0  0  0  0  0  0  0  0  0
    7.2162   23.5876    3.1003 H   0  0  0  0  0  0  0  0  0  0  0  0
   13.1540   21.0658   -1.7750 C   0  0  0  0  0  0  0  0  0  0  0  0
   13.7284   22.4043   -2.0682 C   0  0  0  0  0  0  0  0  0  0  0  0
   13.0952   23.5267   -1.6114 C   0  0  0  0  0  0  0  0  0  0  0  0
   13.6189   24.7643   -1.8835 C   0  0  0  0  0  0  0  0  0  0  0  0
   14.7812   24.8366   -2.6180 C   0  0  0  0  0  0  0  0  0  0  0  0
   15.4063   23.7341   -3.0688 N   0  0  0  0  0  0  0  0  0  0  0  0
   14.8835   22.5188   -2.7962 C   0  0  0  0  0  0  0  0  0  0  0  0
   15.3089   26.0865   -2.8924 O   0  0  0  0  0  0  0  0  0  0  0  0
   15.4052   26.4904   -4.2086 C   0  0  0  0  0  0  0  0  0  0  0  0
   15.1134   25.6470   -5.2664 C   0  0  0  0  0  0  0  0  0  0  0  0
   15.2198   26.0821   -6.5614 C   0  0  0  0  0  0  0  0  0  0  0  0
   15.6180   27.3642   -6.8407 C   0  0  0  0  0  0  0  0  0  0  0  0
   15.9146   28.2250   -5.8086 C   0  0  0  0  0  0  0  0  0  0  0  0
   16.3152   29.5105   -6.0387 F   0  0  0  0  0  0  0  0  0  0  0  0
   15.8058   27.7821   -4.5111 C   0  0  0  0  0  0  0  0  0  0  0  0
 15 16  1  0  0  0
 16 17  2  0  0  0
 16 14  1  0  0  0
 14 10  1  0  0  0
 10 11  1  0  0  0
 11 12  2  0  0  0
 11  1  1  0  0  0
  1  2  2  0  0  0
  2  3  1  0  0  0
  2  4  1  0  0  0
  4  5  1  0  0  0
  5  6  1  0  0  0
  6 19  1  0  0  0
 19 20  1  0  0  0
 20 21  2  0  0  0
 21 22  1  0  0  0
 22 23  2  0  0  0
 23 26  1  0  0  0
 26 27  1  0  0  0
 27 28  2  0  0  0
 28 29  1  0  0  0
 29 30  2  0  0  0
 30 31  1  0  0  0
 31 32  1  0  0  0
 31 33  2  0  0  0
 23 24  1  0  0  0
 24 25  2  0  0  0
  6  7  1  0  0  0
  7  8  2  0  0  0
  7  1  1  0  0  0
 25 20  1  0  0  0
 33 27  1  0  0  0
 15 18  1  0  0  0
 10 13  1  0  0  0
  3  9  1  0  0  0
M  END
> <minimizedAffinity>
-4.68276

> <CNNscore>
0.2818266451

> <CNNaffinity>
6.2835540771

> <CNN_VS>
1.7708729506

> <CNNaffinity_variance>
0.0584270768

$$$$
[H]c1nc(C([H])([H])N2C([H])([H])C([H])([H])C3(C(=O)N(c4c([H])c([H])c(-c5c([H])c([H])c([H])c([H])c5[H])c([H])c4[H])C([H])([H])C3([H])[H])C([H])([H])C2([H])[H])c(C([H])([H])[H])c([H])c1[H]


 31 35  0  0  0  0  0  0  0  0999 V2000
    9.7997   23.5508    3.2596 N   0  0  0  0  0  0  0  0  0  0  0  0
    9.8663   24.9486    3.2576 C   0  0  0  0  0  0  0  0  0  0  0  0
   10.6588   25.5594    2.1389 C   0  0  0  0  0  0  0  0  0  0  0  0
   10.7850   24.6954    0.9393 C   0  0  0  0  0  0  0  0  0  0  0  0
    9.5801   24.8051    0.0320 C   0  0  0  0  0  0  0  0  0  0  0  0
   10.1098   24.6122   -1.3585 C   0  0  0  0  0  0  0  0  0  0  0  0
   11.4757   25.0404   -1.3092 N   0  0  0  0  0  0  0  0  0  0  0  0
   11.8412   25.2993    0.0562 C   0  0  0  0  0  0  0  0  0  0  0  0
   12.8541   25.9168    0.4722 O   0  0  0  0  0  0  0  0  0  0  0  0
   11.1558   23.2726    1.2225 C   0  0  0  0  0  0  0  0  0  0  0  0
   10.8158   22.8193    2.6099 C   0  0  0  0  0  0  0  0  0  0  0  0
   12.4118   25.2159   -2.3813 C   0  0  0  0  0  0  0  0  0  0  0  0
   12.3604   26.3193   -3.2102 C   0  0  0  0  0  0  0  0  0  0  0  0
   13.2747   26.4752   -4.2474 C   0  0  0  0  0  0  0  0  0  0  0  0
   14.2593   25.5431   -4.4863 C   0  0  0  0  0  0  0  0  0  0  0  0
   14.3120   24.4395   -3.6583 C   0  0  0  0  0  0  0  0  0  0  0  0
   13.3986   24.2813   -2.6206 C   0  0  0  0  0  0  0  0  0  0  0  0
   15.2200   25.7039   -5.5787 C   0  0  0  0  0  0  0  0  0  0  0  0
   15.0275   26.7228   -6.4930 C   0  0  0  0  0  0  0  0  0  0  0  0
   15.8947   26.9256   -7.5407 C   0  0  0  0  0  0  0  0  0  0  0  0
   16.9860   26.0868   -7.6801 C   0  0  0  0  0  0  0  0  0  0  0  0
   17.1843   25.0700   -6.7738 C   0  0  0  0  0  0  0  0  0  0  0  0
   16.3069   24.8817   -5.7316 C   0  0  0  0  0  0  0  0  0  0  0  0
    8.5751   22.9074    3.4946 C   0  0  0  0  0  0  0  0  0  0  0  0
    6.2723   22.0238    4.9290 C   0  0  0  0  0  0  0  0  0  0  0  0
    7.5844   21.2885    5.0644 C   0  0  0  0  0  0  0  0  0  0  0  0
    7.6584   20.1964    5.8773 C   0  0  0  0  0  0  0  0  0  0  0  0
    8.8789   19.5451    5.9768 C   0  0  0  0  0  0  0  0  0  0  0  0
    9.9766   19.9907    5.2757 C   0  0  0  0  0  0  0  0  0  0  0  0
    9.8612   21.0631    4.4910 N   0  0  0  0  0  0  0  0  0  0  0  0
    8.6997   21.6977    4.3849 C   0  0  0  0  0  0  0  0  0  0  0  0
 25 26  1  0  0  0
 26 27  2  0  0  0
 27 28  1  0  0  0
 28 29  2  0  0  0
 29 30  1  0  0  0
 30 31  2  0  0  0
 31 24  1  0  0  0
 24  1  1  0  0  0
  1  2  1  0  0  0
  2  3  1  0  0  0
  3  4  1  0  0  0
  4  5  1  0  0  0
  5  6  1  0  0  0
  6  7  1  0  0  0
  7  8  1  0  0  0
  8  9  2  0  0  0
  7 12  1  0  0  0
 12 13  2  0  0  0
 13 14  1  0  0  0
 14 15  2  0  0  0
 15 16  1  0  0  0
 16 17  2  0  0  0
 15 18  1  0  0  0
 18 19  2  0  0  0
 19 20  1  0  0  0
 20 21  2  0  0  0
 21 22  1  0  0  0
 22 23  2  0  0  0
  4 10  1  0  0  0
 10 11  1  0  0  0
 31 26  1  0  0  0
 11  1  1  0  0  0
  8  4  1  0  0  0
 17 12  1  0  0  0
 23 18  1  0  0  0
M  END
> <minimizedAffinity>
4.35377

> <CNNscore>
0.5488172174

> <CNNaffinity>
6.5715613365

> <CNN_VS>
3.6065859795

> <CNNaffinity_variance>
0.6023877859

$$$$
[H]c1nc(C([H])([H])N2C([H])([H])C([H])([H])C3(C(=O)N(c4c([H])c([H])c(-c5c([H])c([H])c([H])c([H])c5[H])c([H])c4[H])C([H])([H])C3([H])[H])C([H])([H])C2([H])[H])c(C([H])([H])[H])c([H])c1[H]


 31 35  0  0  0  0  0  0  0  0999 V2000
   14.9768   25.8629   -4.7842 N   0  0  0  0  0  0  0  0  0  0  0  0
   14.1014   26.9156   -4.4947 C   0  0  0  0  0  0  0  0  0  0  0  0
   12.8798   26.5460   -3.7051 C   0  0  0  0  0  0  0  0  0  0  0  0
   13.0272   25.3097   -2.8979 C   0  0  0  0  0  0  0  0  0  0  0  0
   13.7008   25.5759   -1.5704 C   0  0  0  0  0  0  0  0  0  0  0  0
   13.0973   24.5909   -0.6129 C   0  0  0  0  0  0  0  0  0  0  0  0
   11.7934   24.3042   -1.1320 N   0  0  0  0  0  0  0  0  0  0  0  0
   11.6562   24.9106   -2.4275 C   0  0  0  0  0  0  0  0  0  0  0  0
   10.5960   25.0912   -3.0783 O   0  0  0  0  0  0  0  0  0  0  0  0
   13.6388   24.1515   -3.6236 C   0  0  0  0  0  0  0  0  0  0  0  0
   14.4746   24.5449   -4.8036 C   0  0  0  0  0  0  0  0  0  0  0  0
   10.7267   23.5492   -0.5417 C   0  0  0  0  0  0  0  0  0  0  0  0
    9.7691   24.1516    0.2505 C   0  0  0  0  0  0  0  0  0  0  0  0
    8.7408   23.4056    0.8178 C   0  0  0  0  0  0  0  0  0  0  0  0
    8.6376   22.0481    0.6130 C   0  0  0  0  0  0  0  0  0  0  0  0
    9.5940   21.4445   -0.1788 C   0  0  0  0  0  0  0  0  0  0  0  0
   10.6236   22.1884   -0.7469 C   0  0  0  0  0  0  0  0  0  0  0  0
    7.5582   21.2613    1.2114 C   0  0  0  0  0  0  0  0  0  0  0  0
    6.7364   21.8589    2.1487 C   0  0  0  0  0  0  0  0  0  0  0  0
    5.7052   21.1729    2.7464 C   0  0  0  0  0  0  0  0  0  0  0  0
    5.4880   19.8517    2.3984 C   0  0  0  0  0  0  0  0  0  0  0  0
    6.3021   19.2498    1.4659 C   0  0  0  0  0  0  0  0  0  0  0  0
    7.3288   19.9509    0.8779 C   0  0  0  0  0  0  0  0  0  0  0  0
   16.3599   26.0364   -4.6230 C   0  0  0  0  0  0  0  0  0  0  0  0
   17.8543   23.9546   -3.3687 C   0  0  0  0  0  0  0  0  0  0  0  0
   17.4907   25.2025   -2.6000 C   0  0  0  0  0  0  0  0  0  0  0  0
   17.8850   25.3267   -1.3007 C   0  0  0  0  0  0  0  0  0  0  0  0
   17.5343   26.4866   -0.6259 C   0  0  0  0  0  0  0  0  0  0  0  0
   16.8118   27.4770   -1.2519 C   0  0  0  0  0  0  0  0  0  0  0  0
   16.4461   27.3159   -2.5244 N   0  0  0  0  0  0  0  0  0  0  0  0
   16.7739   26.2114   -3.1843 C   0  0  0  0  0  0  0  0  0  0  0  0
 25 26  1  0  0  0
 26 27  2  0  0  0
 27 28  1  0  0  0
 28 29  2  0  0  0
 29 30  1  0  0  0
 30 31  2  0  0  0
 31 24  1  0  0  0
 24  1  1  0  0  0
  1  2  1  0  0  0
  2  3  1  0  0  0
  3  4  1  0  0  0
  4  5  1  0  0  0
  5  6  1  0  0  0
  6  7  1  0  0  0
  7  8  1  0  0  0
  8  9  2  0  0  0
  7 12  1  0  0  0
 12 13  2  0  0  0
 13 14  1  0  0  0
 14 15  2  0  0  0
 15 16  1  0  0  0
 16 17  2  0  0  0
 15 18  1  0  0  0
 18 19  2  0  0  0
 19 20  1  0  0  0
 20 21  2  0  0  0
 21 22  1  0  0  0
 22 23  2  0  0  0
  4 10  1  0  0  0
 10 11  1  0  0  0
 31 26  1  0  0  0
 11  1  1  0  0  0
  8  4  1  0  0  0
 17 12  1  0  0  0
 23 18  1  0  0  0
M  END
> <minimizedAffinity>
16.74145

> <CNNscore>
0.4600547254

> <CNNaffinity>
7.0097894669

> <CNN_VS>
3.2248866558

> <CNNaffinity_variance>
1.8723676205

$$$$
[H]c1nc(C([H])([H])N2C([H])([H])C([H])([H])C3(C(=O)N(c4c([H])c([H])c(-c5c([H])c([H])c([H])c([H])c5[H])c([H])c4[H])C([H])([H])C3([H])[H])C([H])([H])C2([H])[H])c(C([H])([H])[H])c([H])c1[H]


 31 35  0  0  0  0  0  0  0  0999 V2000
   14.5905   25.5755   -2.8659 N   0  0  0  0  0  0  0  0  0  0  0  0
   13.5196   26.4719   -2.9549 C   0  0  0  0  0  0  0  0  0  0  0  0
   12.1885   25.9396   -2.5106 C   0  0  0  0  0  0  0  0  0  0  0  0
   12.2732   24.7995   -1.5648 C   0  0  0  0  0  0  0  0  0  0  0  0
   12.4700   25.2596   -0.1378 C   0  0  0  0  0  0  0  0  0  0  0  0
   11.7642   24.2423    0.7097 C   0  0  0  0  0  0  0  0  0  0  0  0
   10.7348   23.6987   -0.1248 N   0  0  0  0  0  0  0  0  0  0  0  0
   10.9014   24.1928   -1.4639 C   0  0  0  0  0  0  0  0  0  0  0  0
   10.0700   24.1435   -2.4056 O   0  0  0  0  0  0  0  0  0  0  0  0
   13.2421   23.7266   -1.9550 C   0  0  0  0  0  0  0  0  0  0  0  0
   14.3231   24.1906   -2.8835 C   0  0  0  0  0  0  0  0  0  0  0  0
    9.6677   22.8034    0.2158 C   0  0  0  0  0  0  0  0  0  0  0  0
    8.6035   23.2130    0.9951 C   0  0  0  0  0  0  0  0  0  0  0  0
    7.5761   22.3324    1.3186 C   0  0  0  0  0  0  0  0  0  0  0  0
    7.5793   21.0281    0.8779 C   0  0  0  0  0  0  0  0  0  0  0  0
    8.6424   20.6173    0.0986 C   0  0  0  0  0  0  0  0  0  0  0  0
    9.6713   21.4960   -0.2260 C   0  0  0  0  0  0  0  0  0  0  0  0
    6.5009   20.0995    1.2198 C   0  0  0  0  0  0  0  0  0  0  0  0
    6.4647   18.8621    0.6045 C   0  0  0  0  0  0  0  0  0  0  0  0
    5.4777   17.9461    0.8834 C   0  0  0  0  0  0  0  0  0  0  0  0
    4.4981   18.2748    1.8033 C   0  0  0  0  0  0  0  0  0  0  0  0
    4.5274   19.5050    2.4200 C   0  0  0  0  0  0  0  0  0  0  0  0
    5.5222   20.4091    2.1292 C   0  0  0  0  0  0  0  0  0  0  0  0
   15.8189   26.0005   -2.3372 C   0  0  0  0  0  0  0  0  0  0  0  0
   18.3191   24.6348   -2.1813 C   0  0  0  0  0  0  0  0  0  0  0  0
   17.3873   24.6588   -0.9932 C   0  0  0  0  0  0  0  0  0  0  0  0
   17.7527   24.0233    0.1564 C   0  0  0  0  0  0  0  0  0  0  0  0
   16.8727   24.0669    1.2277 C   0  0  0  0  0  0  0  0  0  0  0  0
   15.6713   24.7313    1.1285 C   0  0  0  0  0  0  0  0  0  0  0  0
   15.3524   25.3404   -0.0145 N   0  0  0  0  0  0  0  0  0  0  0  0
   16.1838   25.3080   -1.0492 C   0  0  0  0  0  0  0  0  0  0  0  0
 25 26  1  0  0  0
 26 27  2  0  0  0
 27 28  1  0  0  0
 28 29  2  0  0  0
 29 30  1  0  0  0
 30 31  2  0  0  0
 31 24  1  0  0  0
 24  1  1  0  0  0
  1  2  1  0  0  0
  2  3  1  0  0  0
  3  4  1  0  0  0
  4  5  1  0  0  0
  5  6  1  0  0  0
  6  7  1  0  0  0
  7  8  1  0  0  0
  8  9  2  0  0  0
  7 12  1  0  0  0
 12 13  2  0  0  0
 13 14  1  0  0  0
 14 15  2  0  0  0
 15 16  1  0  0  0
 16 17  2  0  0  0
 15 18  1  0  0  0
 18 19  2  0  0  0
 19 20  1  0  0  0
 20 21  2  0  0  0
 21 22  1  0  0  0
 22 23  2  0  0  0
  4 10  1  0  0  0
 10 11  1  0  0  0
 31 26  1  0  0  0
 11  1  1  0  0  0
  8  4  1  0  0  0
 17 12  1  0  0  0
 23 18  1  0  0  0
M  END
> <minimizedAffinity>
1.21732

> <CNNscore>
0.4148330688

> <CNNaffinity>
6.6980528831

> <CNN_VS>
2.7785737514

> <CNNaffinity_variance>
0.5279884338

$$$$
[H]c1nc(C([H])([H])N2C([H])([H])C([H])([H])C3(C(=O)N(c4c([H])c([H])c(-c5c([H])c([H])c([H])c([H])c5[H])c([H])c4[H])C([H])([H])C3([H])[H])C([H])([H])C2([H])[H])c(C([H])([H])[H])c([H])c1[H]


 31 35  0  0  0  0  0  0  0  0999 V2000
   12.6850   20.1977    0.0026 N   0  0  0  0  0  0  0  0  0  0  0  0
   14.0197   19.8463   -0.2279 C   0  0  0  0  0  0  0  0  0  0  0  0
   14.7783   20.7499   -1.1556 C   0  0  0  0  0  0  0  0  0  0  0  0
   14.2262   22.1235   -1.2546 C   0  0  0  0  0  0  0  0  0  0  0  0
   14.7102   23.0119   -0.1306 C   0  0  0  0  0  0  0  0  0  0  0  0
   14.7974   24.3887   -0.7204 C   0  0  0  0  0  0  0  0  0  0  0  0
   15.0197   24.1902   -2.1214 N   0  0  0  0  0  0  0  0  0  0  0  0
   14.8861   22.7927   -2.4281 C   0  0  0  0  0  0  0  0  0  0  0  0
   15.2461   22.2030   -3.4783 O   0  0  0  0  0  0  0  0  0  0  0  0
   12.7417   22.1954   -1.4371 C   0  0  0  0  0  0  0  0  0  0  0  0
   12.0099   20.9779   -0.9593 C   0  0  0  0  0  0  0  0  0  0  0  0
   15.3300   25.1536   -3.1373 C   0  0  0  0  0  0  0  0  0  0  0  0
   16.0223   26.3123   -2.8450 C   0  0  0  0  0  0  0  0  0  0  0  0
   16.3149   27.2386   -3.8411 C   0  0  0  0  0  0  0  0  0  0  0  0
   15.9293   27.0381   -5.1475 C   0  0  0  0  0  0  0  0  0  0  0  0
   15.2373   25.8800   -5.4411 C   0  0  0  0  0  0  0  0  0  0  0  0
   14.9432   24.9524   -4.4466 C   0  0  0  0  0  0  0  0  0  0  0  0
   16.2335   28.0128   -6.1960 C   0  0  0  0  0  0  0  0  0  0  0  0
   15.9930   29.3522   -5.9531 C   0  0  0  0  0  0  0  0  0  0  0  0
   16.2580   30.3160   -6.8976 C   0  0  0  0  0  0  0  0  0  0  0  0
   16.7784   29.9315   -8.1204 C   0  0  0  0  0  0  0  0  0  0  0  0
   17.0206   28.5996   -8.3697 C   0  0  0  0  0  0  0  0  0  0  0  0
   16.7497   27.6490   -7.4134 C   0  0  0  0  0  0  0  0  0  0  0  0
   12.1678   20.1708    1.3068 C   0  0  0  0  0  0  0  0  0  0  0  0
   12.2086   22.8068    2.3979 C   0  0  0  0  0  0  0  0  0  0  0  0
   10.9039   22.1781    1.9702 C   0  0  0  0  0  0  0  0  0  0  0  0
    9.7448   22.8826    2.1083 C   0  0  0  0  0  0  0  0  0  0  0  0
    8.5656   22.2742    1.7042 C   0  0  0  0  0  0  0  0  0  0  0  0
    8.5707   21.0009    1.1815 C   0  0  0  0  0  0  0  0  0  0  0  0
    9.7269   20.3463    1.0632 N   0  0  0  0  0  0  0  0  0  0  0  0
   10.8643   20.9147    1.4454 C   0  0  0  0  0  0  0  0  0  0  0  0
 25 26  1  0  0  0
 26 27  2  0  0  0
 27 28  1  0  0  0
 28 29  2  0  0  0
 29 30  1  0  0  0
 30 31  2  0  0  0
 31 24  1  0  0  0
 24  1  1  0  0  0
  1  2  1  0  0  0
  2  3  1  0  0  0
  3  4  1  0  0  0
  4  5  1  0  0  0
  5  6  1  0  0  0
  6  7  1  0  0  0
  7  8  1  0  0  0
  8  9  2  0  0  0
  7 12  1  0  0  0
 12 13  2  0  0  0
 13 14  1  0  0  0
 14 15  2  0  0  0
 15 16  1  0  0  0
 16 17  2  0  0  0
 15 18  1  0  0  0
 18 19  2  0  0  0
 19 20  1  0  0  0
 20 21  2  0  0  0
 21 22  1  0  0  0
 22 23  2  0  0  0
  4 10  1  0  0  0
 10 11  1  0  0  0
 31 26  1  0  0  0
 11  1  1  0  0  0
  8  4  1  0  0  0
 17 12  1  0  0  0
 23 18  1  0  0  0
M  END
> <minimizedAffinity>
8.14989

> <CNNscore>
0.4030609727

> <CNNaffinity>
6.9543585777

> <CNN_VS>
2.8030304909

> <CNNaffinity_variance>
0.2264530361

$$$$
[H]c1nc(C([H])([H])N2C([H])([H])C([H])([H])C3(C(=O)N(c4c([H])c([H])c(-c5c([H])c([H])c([H])c([H])c5[H])c([H])c4[H])C([H])([H])C3([H])[H])C([H])([H])C2([H])[H])c(C([H])([H])[H])c([H])c1[H]


 31 35  0  0  0  0  0  0  0  0999 V2000
   12.5466   25.8681   -2.3148 N   0  0  0  0  0  0  0  0  0  0  0  0
   13.0671   26.2227   -1.0652 C   0  0  0  0  0  0  0  0  0  0  0  0
   12.3838   25.6077    0.1212 C   0  0  0  0  0  0  0  0  0  0  0  0
   11.6616   24.3465   -0.1779 C   0  0  0  0  0  0  0  0  0  0  0  0
   12.5830   23.1475   -0.1616 C   0  0  0  0  0  0  0  0  0  0  0  0
   11.7419   22.0054    0.3275 C   0  0  0  0  0  0  0  0  0  0  0  0
   10.7206   22.6023    1.1352 N   0  0  0  0  0  0  0  0  0  0  0  0
   10.7914   24.0318    1.0070 C   0  0  0  0  0  0  0  0  0  0  0  0
   10.2384   24.8928    1.7371 O   0  0  0  0  0  0  0  0  0  0  0  0
   10.8025   24.3867   -1.4037 C   0  0  0  0  0  0  0  0  0  0  0  0
   11.2071   25.4338   -2.3967 C   0  0  0  0  0  0  0  0  0  0  0  0
    9.7395   21.9729    1.9704 C   0  0  0  0  0  0  0  0  0  0  0  0
   10.0025   21.6745    3.2929 C   0  0  0  0  0  0  0  0  0  0  0  0
    9.0410   21.0623    4.0906 C   0  0  0  0  0  0  0  0  0  0  0  0
    7.7987   20.7326    3.5972 C   0  0  0  0  0  0  0  0  0  0  0  0
    7.5342   21.0305    2.2753 C   0  0  0  0  0  0  0  0  0  0  0  0
    8.4944   21.6425    1.4754 C   0  0  0  0  0  0  0  0  0  0  0  0
    6.7870   20.0859    4.4340 C   0  0  0  0  0  0  0  0  0  0  0  0
    5.5010   20.5930    4.4398 C   0  0  0  0  0  0  0  0  0  0  0  0
    4.5065   20.0297    5.2043 C   0  0  0  0  0  0  0  0  0  0  0  0
    4.8042   18.9280    5.9862 C   0  0  0  0  0  0  0  0  0  0  0  0
    6.0825   18.4173    5.9859 C   0  0  0  0  0  0  0  0  0  0  0  0
    7.0650   18.9932    5.2149 C   0  0  0  0  0  0  0  0  0  0  0  0
   13.4132   25.5259   -3.3640 C   0  0  0  0  0  0  0  0  0  0  0  0
   15.5370   27.4226   -3.5456 C   0  0  0  0  0  0  0  0  0  0  0  0
   15.7919   26.0427   -2.9876 C   0  0  0  0  0  0  0  0  0  0  0  0
   17.0465   25.7116   -2.5689 C   0  0  0  0  0  0  0  0  0  0  0  0
   17.2438   24.4361   -2.0612 C   0  0  0  0  0  0  0  0  0  0  0  0
   16.2038   23.5376   -1.9844 C   0  0  0  0  0  0  0  0  0  0  0  0
   14.9914   23.9019   -2.4046 N   0  0  0  0  0  0  0  0  0  0  0  0
   14.7861   25.1193   -2.8932 C   0  0  0  0  0  0  0  0  0  0  0  0
 25 26  1  0  0  0
 26 27  2  0  0  0
 27 28  1  0  0  0
 28 29  2  0  0  0
 29 30  1  0  0  0
 30 31  2  0  0  0
 31 24  1  0  0  0
 24  1  1  0  0  0
  1  2  1  0  0  0
  2  3  1  0  0  0
  3  4  1  0  0  0
  4  5  1  0  0  0
  5  6  1  0  0  0
  6  7  1  0  0  0
  7  8  1  0  0  0
  8  9  2  0  0  0
  7 12  1  0  0  0
 12 13  2  0  0  0
 13 14  1  0  0  0
 14 15  2  0  0  0
 15 16  1  0  0  0
 16 17  2  0  0  0
 15 18  1  0  0  0
 18 19  2  0  0  0
 19 20  1  0  0  0
 20 21  2  0  0  0
 21 22  1  0  0  0
 22 23  2  0  0  0
  4 10  1  0  0  0
 10 11  1  0  0  0
 31 26  1  0  0  0
 11  1  1  0  0  0
  8  4  1  0  0  0
 17 12  1  0  0  0
 23 18  1  0  0  0
M  END
> <minimizedAffinity>
-1.57334

> <CNNscore>
0.3903837204

> <CNNaffinity>
6.7667784691

> <CNN_VS>
2.6416401863

> <CNNaffinity_variance>
0.5935873985

$$$$
[H]c1nc(C([H])([H])N2C([H])([H])C([H])([H])C3(C(=O)N(c4c([H])c([H])c(-c5c([H])c([H])c([H])c([H])c5[H])c([H])c4[H])C([H])([H])C3([H])[H])C([H])([H])C2([H])[H])c(C([H])([H])[H])c([H])c1[H]


 31 35  0  0  0  0  0  0  0  0999 V2000
   14.1309   26.1225   -3.4512 N   0  0  0  0  0  0  0  0  0  0  0  0
   14.6198   26.6969   -2.2725 C   0  0  0  0  0  0  0  0  0  0  0  0
   14.0193   26.1771   -0.9990 C   0  0  0  0  0  0  0  0  0  0  0  0
   13.4387   24.8161   -1.1104 C   0  0  0  0  0  0  0  0  0  0  0  0
   14.4875   23.7376   -0.9564 C   0  0  0  0  0  0  0  0  0  0  0  0
   13.7824   22.5873   -0.2998 C   0  0  0  0  0  0  0  0  0  0  0  0
   12.7084   23.1732    0.4450 N   0  0  0  0  0  0  0  0  0  0  0  0
   12.6192   24.5715    0.1260 C   0  0  0  0  0  0  0  0  0  0  0  0
   11.9806   25.4580    0.7479 O   0  0  0  0  0  0  0  0  0  0  0  0
   12.5698   24.5970   -2.3100 C   0  0  0  0  0  0  0  0  0  0  0  0
   12.8471   25.5382   -3.4428 C   0  0  0  0  0  0  0  0  0  0  0  0
   11.8104   22.5594    1.3795 C   0  0  0  0  0  0  0  0  0  0  0  0
   12.1665   22.3628    2.6993 C   0  0  0  0  0  0  0  0  0  0  0  0
   11.2850   21.7644    3.5941 C   0  0  0  0  0  0  0  0  0  0  0  0
   10.0324   21.3484    3.2025 C   0  0  0  0  0  0  0  0  0  0  0  0
    9.6750   21.5445    1.8834 C   0  0  0  0  0  0  0  0  0  0  0  0
   10.5550   22.1423    0.9866 C   0  0  0  0  0  0  0  0  0  0  0  0
    9.1050   20.7160    4.1417 C   0  0  0  0  0  0  0  0  0  0  0  0
    7.7568   21.0067    4.0471 C   0  0  0  0  0  0  0  0  0  0  0  0
    6.8357   20.4447    4.8996 C   0  0  0  0  0  0  0  0  0  0  0  0
    7.2732   19.5669    5.8754 C   0  0  0  0  0  0  0  0  0  0  0  0
    8.6141   19.2727    5.9759 C   0  0  0  0  0  0  0  0  0  0  0  0
    9.5215   19.8438    5.1146 C   0  0  0  0  0  0  0  0  0  0  0  0
   15.0209   25.7381   -4.4656 C   0  0  0  0  0  0  0  0  0  0  0  0
   16.1740   24.7010   -6.8605 C   0  0  0  0  0  0  0  0  0  0  0  0
   15.6888   23.7647   -5.7796 C   0  0  0  0  0  0  0  0  0  0  0  0
   15.8086   22.4182   -5.9574 C   0  0  0  0  0  0  0  0  0  0  0  0
   15.3534   21.5884   -4.9435 C   0  0  0  0  0  0  0  0  0  0  0  0
   14.7995   22.1120   -3.7973 C   0  0  0  0  0  0  0  0  0  0  0  0
   14.7012   23.4355   -3.6630 N   0  0  0  0  0  0  0  0  0  0  0  0
   15.1324   24.2434   -4.6244 C   0  0  0  0  0  0  0  0  0  0  0  0
 25 26  1  0  0  0
 26 27  2  0  0  0
 27 28  1  0  0  0
 28 29  2  0  0  0
 29 30  1  0  0  0
 30 31  2  0  0  0
 31 24  1  0  0  0
 24  1  1  0  0  0
  1  2  1  0  0  0
  2  3  1  0  0  0
  3  4  1  0  0  0
  4  5  1  0  0  0
  5  6  1  0  0  0
  6  7  1  0  0  0
  7  8  1  0  0  0
  8  9  2  0  0  0
  7 12  1  0  0  0
 12 13  2  0  0  0
 13 14  1  0  0  0
 14 15  2  0  0  0
 15 16  1  0  0  0
 16 17  2  0  0  0
 15 18  1  0  0  0
 18 19  2  0  0  0
 19 20  1  0  0  0
 20 21  2  0  0  0
 21 22  1  0  0  0
 22 23  2  0  0  0
  4 10  1  0  0  0
 10 11  1  0  0  0
 31 26  1  0  0  0
 11  1  1  0  0  0
  8  4  1  0  0  0
 17 12  1  0  0  0
 23 18  1  0  0  0
M  END
> <minimizedAffinity>
6.11407

> <CNNscore>
0.3895840645

> <CNNaffinity>
6.9469513893

> <CNN_VS>
2.7064216137

> <CNNaffinity_variance>
1.1520459652

$$$$
[H]c1nc(C([H])([H])N2C([H])([H])C([H])([H])C3(C(=O)N(c4c([H])c([H])c(-c5c([H])c([H])c([H])c([H])c5[H])c([H])c4[H])C([H])([H])C3([H])[H])C([H])([H])C2([H])[H])c(C([H])([H])[H])c([H])c1[H]


 31 35  0  0  0  0  0  0  0  0999 V2000
   10.6932   20.6281    3.1209 N   0  0  0  0  0  0  0  0  0  0  0  0
   10.6859   21.9397    3.6087 C   0  0  0  0  0  0  0  0  0  0  0  0
   11.2970   22.9717    2.7065 C   0  0  0  0  0  0  0  0  0  0  0  0
   11.3150   22.5928    1.2720 C   0  0  0  0  0  0  0  0  0  0  0  0
   10.0007   22.8967    0.5885 C   0  0  0  0  0  0  0  0  0  0  0  0
   10.3590   23.2482   -0.8255 C   0  0  0  0  0  0  0  0  0  0  0  0
   11.6959   23.7587   -0.7646 N   0  0  0  0  0  0  0  0  0  0  0  0
   12.2176   23.5614    0.5597 C   0  0  0  0  0  0  0  0  0  0  0  0
   13.2414   24.0885    1.0641 O   0  0  0  0  0  0  0  0  0  0  0  0
   11.7927   21.2015    0.9927 C   0  0  0  0  0  0  0  0  0  0  0  0
   11.6556   20.2657    2.1553 C   0  0  0  0  0  0  0  0  0  0  0  0
   12.4779   24.3817   -1.7926 C   0  0  0  0  0  0  0  0  0  0  0  0
   12.2319   25.6781   -2.2001 C   0  0  0  0  0  0  0  0  0  0  0  0
   12.9982   26.2688   -3.1999 C   0  0  0  0  0  0  0  0  0  0  0  0
   14.0243   25.5898   -3.8175 C   0  0  0  0  0  0  0  0  0  0  0  0
   14.2715   24.2937   -3.4110 C   0  0  0  0  0  0  0  0  0  0  0  0
   13.5063   23.7007   -2.4115 C   0  0  0  0  0  0  0  0  0  0  0  0
   14.8295   26.2085   -4.8715 C   0  0  0  0  0  0  0  0  0  0  0  0
   15.3483   25.4086   -5.8724 C   0  0  0  0  0  0  0  0  0  0  0  0
   16.1119   25.9300   -6.8902 C   0  0  0  0  0  0  0  0  0  0  0  0
   16.3653   27.2900   -6.9094 C   0  0  0  0  0  0  0  0  0  0  0  0
   15.8523   28.0930   -5.9161 C   0  0  0  0  0  0  0  0  0  0  0  0
   15.0903   27.5545   -4.9058 C   0  0  0  0  0  0  0  0  0  0  0  0
    9.5437   19.8314    3.2336 C   0  0  0  0  0  0  0  0  0  0  0  0
    9.0480   19.2014    5.9719 C   0  0  0  0  0  0  0  0  0  0  0  0
    8.1843   20.2098    5.2524 C   0  0  0  0  0  0  0  0  0  0  0  0
    7.1660   20.8187    5.9241 C   0  0  0  0  0  0  0  0  0  0  0  0
    6.3939   21.7401    5.2322 C   0  0  0  0  0  0  0  0  0  0  0  0
    6.6515   22.0270    3.9108 C   0  0  0  0  0  0  0  0  0  0  0  0
    7.6579   21.4091    3.2908 N   0  0  0  0  0  0  0  0  0  0  0  0
    8.4063   20.5245    3.9391 C   0  0  0  0  0  0  0  0  0  0  0  0
 25 26  1  0  0  0
 26 27  2  0  0  0
 27 28  1  0  0  0
 28 29  2  0  0  0
 29 30  1  0  0  0
 30 31  2  0  0  0
 31 24  1  0  0  0
 24  1  1  0  0  0
  1  2  1  0  0  0
  2  3  1  0  0  0
  3  4  1  0  0  0
  4  5  1  0  0  0
  5  6  1  0  0  0
  6  7  1  0  0  0
  7  8  1  0  0  0
  8  9  2  0  0  0
  7 12  1  0  0  0
 12 13  2  0  0  0
 13 14  1  0  0  0
 14 15  2  0  0  0
 15 16  1  0  0  0
 16 17  2  0  0  0
 15 18  1  0  0  0
 18 19  2  0  0  0
 19 20  1  0  0  0
 20 21  2  0  0  0
 21 22  1  0  0  0
 22 23  2  0  0  0
  4 10  1  0  0  0
 10 11  1  0  0  0
 31 26  1  0  0  0
 11  1  1  0  0  0
  8  4  1  0  0  0
 17 12  1  0  0  0
 23 18  1  0  0  0
M  END
> <minimizedAffinity>
-5.63403

> <CNNscore>
0.3816957176

> <CNNaffinity>
6.6790137291

> <CNN_VS>
2.5493509769

> <CNNaffinity_variance>
0.2106771469

$$$$
[H]c1nc(C([H])([H])N2C([H])([H])C([H])([H])C3(C(=O)N(c4c([H])c([H])c(-c5c([H])c([H])c([H])c([H])c5[H])c([H])c4[H])C([H])([H])C3([H])[H])C([H])([H])C2([H])[H])c(C([H])([H])[H])c([H])c1[H]


 31 35  0  0  0  0  0  0  0  0999 V2000
    6.8866   23.3509    1.8801 N   0  0  0  0  0  0  0  0  0  0  0  0
    7.0287   23.3620    0.4880 C   0  0  0  0  0  0  0  0  0  0  0  0
    8.4327   23.5136   -0.0203 C   0  0  0  0  0  0  0  0  0  0  0  0
    9.4785   23.0890    0.9429 C   0  0  0  0  0  0  0  0  0  0  0  0
    9.7153   21.5960    0.9015 C   0  0  0  0  0  0  0  0  0  0  0  0
   11.1713   21.4148    1.2150 C   0  0  0  0  0  0  0  0  0  0  0  0
   11.8060   22.6280    0.7942 N   0  0  0  0  0  0  0  0  0  0  0  0
   10.7995   23.5843    0.4235 C   0  0  0  0  0  0  0  0  0  0  0  0
   10.9603   24.6524   -0.2195 O   0  0  0  0  0  0  0  0  0  0  0  0
    9.2939   23.5969    2.3393 C   0  0  0  0  0  0  0  0  0  0  0  0
    7.8797   23.9654    2.6713 C   0  0  0  0  0  0  0  0  0  0  0  0
   13.2029   22.9426    0.7168 C   0  0  0  0  0  0  0  0  0  0  0  0
   13.7295   24.0485    1.3547 C   0  0  0  0  0  0  0  0  0  0  0  0
   15.0869   24.3419    1.2692 C   0  0  0  0  0  0  0  0  0  0  0  0
   15.9521   23.5473    0.5513 C   0  0  0  0  0  0  0  0  0  0  0  0
   15.4271   22.4412   -0.0868 C   0  0  0  0  0  0  0  0  0  0  0  0
   14.0699   22.1460   -0.0031 C   0  0  0  0  0  0  0  0  0  0  0  0
   17.3797   23.8560    0.4578 C   0  0  0  0  0  0  0  0  0  0  0  0
   18.0896   24.0924    1.6202 C   0  0  0  0  0  0  0  0  0  0  0  0
   19.4326   24.3870    1.5984 C   0  0  0  0  0  0  0  0  0  0  0  0
   20.0863   24.4477    0.3806 C   0  0  0  0  0  0  0  0  0  0  0  0
   19.3862   24.2136   -0.7812 C   0  0  0  0  0  0  0  0  0  0  0  0
   18.0432   23.9200   -0.7408 C   0  0  0  0  0  0  0  0  0  0  0  0
    6.0522   22.4034    2.4924 C   0  0  0  0  0  0  0  0  0  0  0  0
    4.4981   21.6744    0.2133 C   0  0  0  0  0  0  0  0  0  0  0  0
    5.4572   20.6850    0.8312 C   0  0  0  0  0  0  0  0  0  0  0  0
    5.5755   19.4398    0.2886 C   0  0  0  0  0  0  0  0  0  0  0  0
    6.4665   18.5575    0.8813 C   0  0  0  0  0  0  0  0  0  0  0  0
    7.2049   18.9316    1.9812 C   0  0  0  0  0  0  0  0  0  0  0  0
    7.0592   20.1597    2.4807 N   0  0  0  0  0  0  0  0  0  0  0  0
    6.2104   21.0162    1.9248 C   0  0  0  0  0  0  0  0  0  0  0  0
 25 26  1  0  0  0
 26 27  2  0  0  0
 27 28  1  0  0  0
 28 29  2  0  0  0
 29 30  1  0  0  0
 30 31  2  0  0  0
 31 24  1  0  0  0
 24  1  1  0  0  0
  1  2  1  0  0  0
  2  3  1  0  0  0
  3  4  1  0  0  0
  4  5  1  0  0  0
  5  6  1  0  0  0
  6  7  1  0  0  0
  7  8  1  0  0  0
  8  9  2  0  0  0
  7 12  1  0  0  0
 12 13  2  0  0  0
 13 14  1  0  0  0
 14 15  2  0  0  0
 15 16  1  0  0  0
 16 17  2  0  0  0
 15 18  1  0  0  0
 18 19  2  0  0  0
 19 20  1  0  0  0
 20 21  2  0  0  0
 21 22  1  0  0  0
 22 23  2  0  0  0
  4 10  1  0  0  0
 10 11  1  0  0  0
 31 26  1  0  0  0
 11  1  1  0  0  0
  8  4  1  0  0  0
 17 12  1  0  0  0
 23 18  1  0  0  0
M  END
> <minimizedAffinity>
15.88807

> <CNNscore>
0.3801498413

> <CNNaffinity>
6.1809711456

> <CNN_VS>
2.3496952057

> <CNNaffinity_variance>
0.7249094844

$$$$
[H]c1nc(C([H])([H])N2C([H])([H])C([H])([H])C3(C(=O)N(c4c([H])c([H])c(-c5c([H])c([H])c([H])c([H])c5[H])c([H])c4[H])C([H])([H])C3([H])[H])C([H])([H])C2([H])[H])c(C([H])([H])[H])c([H])c1[H]


 31 35  0  0  0  0  0  0  0  0999 V2000
    6.4473   20.9449    0.8982 N   0  0  0  0  0  0  0  0  0  0  0  0
    6.5973   21.8657    1.9412 C   0  0  0  0  0  0  0  0  0  0  0  0
    7.9756   22.4346    2.1121 C   0  0  0  0  0  0  0  0  0  0  0  0
    8.8104   22.3871    0.8863 C   0  0  0  0  0  0  0  0  0  0  0  0
    8.5345   23.5553   -0.0336 C   0  0  0  0  0  0  0  0  0  0  0  0
    9.8432   23.8513   -0.7050 C   0  0  0  0  0  0  0  0  0  0  0  0
   10.8508   23.4014    0.2082 N   0  0  0  0  0  0  0  0  0  0  0  0
   10.2256   22.6933    1.2910 C   0  0  0  0  0  0  0  0  0  0  0  0
   10.7401   22.3721    2.3921 O   0  0  0  0  0  0  0  0  0  0  0  0
    8.7940   21.0768    0.1619 C   0  0  0  0  0  0  0  0  0  0  0  0
    7.5816   20.2415    0.4419 C   0  0  0  0  0  0  0  0  0  0  0  0
   12.2732   23.5740    0.1483 C   0  0  0  0  0  0  0  0  0  0  0  0
   13.1130   22.5297   -0.1855 C   0  0  0  0  0  0  0  0  0  0  0  0
   14.4913   22.7120   -0.2380 C   0  0  0  0  0  0  0  0  0  0  0  0
   15.0681   23.9313    0.0382 C   0  0  0  0  0  0  0  0  0  0  0  0
   14.2297   24.9762    0.3719 C   0  0  0  0  0  0  0  0  0  0  0  0
   12.8510   24.7963    0.4254 C   0  0  0  0  0  0  0  0  0  0  0  0
   16.5180   24.1241   -0.0137 C   0  0  0  0  0  0  0  0  0  0  0  0
   17.1173   24.3594   -1.2369 C   0  0  0  0  0  0  0  0  0  0  0  0
   18.4746   24.5488   -1.3512 C   0  0  0  0  0  0  0  0  0  0  0  0
   19.2566   24.5016   -0.2109 C   0  0  0  0  0  0  0  0  0  0  0  0
   18.6671   24.2676    1.0107 C   0  0  0  0  0  0  0  0  0  0  0  0
   17.3079   24.0807    1.1066 C   0  0  0  0  0  0  0  0  0  0  0  0
    5.3386   21.0292    0.0422 C   0  0  0  0  0  0  0  0  0  0  0  0
    4.7919   18.6497    1.5187 C   0  0  0  0  0  0  0  0  0  0  0  0
    4.8133   18.6230    0.0090 C   0  0  0  0  0  0  0  0  0  0  0  0
    4.5668   17.4512   -0.6430 C   0  0  0  0  0  0  0  0  0  0  0  0
    4.5936   17.4639   -2.0296 C   0  0  0  0  0  0  0  0  0  0  0  0
    4.8608   18.6242   -2.7203 C   0  0  0  0  0  0  0  0  0  0  0  0
    5.0963   19.7495   -2.0439 N   0  0  0  0  0  0  0  0  0  0  0  0
    5.0742   19.7539   -0.7164 C   0  0  0  0  0  0  0  0  0  0  0  0
 25 26  1  0  0  0
 26 27  2  0  0  0
 27 28  1  0  0  0
 28 29  2  0  0  0
 29 30  1  0  0  0
 30 31  2  0  0  0
 31 24  1  0  0  0
 24  1  1  0  0  0
  1  2  1  0  0  0
  2  3  1  0  0  0
  3  4  1  0  0  0
  4  5  1  0  0  0
  5  6  1  0  0  0
  6  7  1  0  0  0
  7  8  1  0  0  0
  8  9  2  0  0  0
  7 12  1  0  0  0
 12 13  2  0  0  0
 13 14  1  0  0  0
 14 15  2  0  0  0
 15 16  1  0  0  0
 16 17  2  0  0  0
 15 18  1  0  0  0
 18 19  2  0  0  0
 19 20  1  0  0  0
 20 21  2  0  0  0
 21 22  1  0  0  0
 22 23  2  0  0  0
  4 10  1  0  0  0
 10 11  1  0  0  0
 31 26  1  0  0  0
 11  1  1  0  0  0
  8  4  1  0  0  0
 17 12  1  0  0  0
 23 18  1  0  0  0
M  END
> <minimizedAffinity>
2.65858

> <CNNscore>
0.3314299583

> <CNNaffinity>
6.2559061050

> <CNN_VS>
2.0733947754

> <CNNaffinity_variance>
0.3386961818

$$$$
[H]OC(=O)c1c([H])c([H])c(N2C(=O)C3(C([H])([H])C2([H])[H])C([H])([H])C([H])([H])N(C([H])([H])c2nc([H])c([H])c([H])c2C([H])([H])[H])C([H])([H])C3([H])[H])c([H])c1[H]


 29 32  0  0  0  0  0  0  0  0999 V2000
   12.6237   21.3409    0.2054 N   0  0  0  0  0  0  0  0  0  0  0  0
   13.2346   21.3148   -1.1045 C   0  0  0  0  0  0  0  0  0  0  0  0
   14.3795   22.2522   -1.3017 C   0  0  0  0  0  0  0  0  0  0  0  0
   13.7771   23.6535   -1.1055 C   0  0  0  0  0  0  0  0  0  0  0  0
   12.5881   23.8861   -1.9961 C   0  0  0  0  0  0  0  0  0  0  0  0
   12.7942   25.3463   -2.3898 C   0  0  0  0  0  0  0  0  0  0  0  0
   14.2405   25.3654   -2.6203 N   0  0  0  0  0  0  0  0  0  0  0  0
   14.7917   24.6148   -1.5404 C   0  0  0  0  0  0  0  0  0  0  0  0
   15.9493   24.7964   -1.0893 O   0  0  0  0  0  0  0  0  0  0  0  0
   13.3823   23.7191    0.3212 C   0  0  0  0  0  0  0  0  0  0  0  0
   12.3496   22.6803    0.6616 C   0  0  0  0  0  0  0  0  0  0  0  0
   14.8885   26.0100   -3.7020 C   0  0  0  0  0  0  0  0  0  0  0  0
   14.3377   25.9520   -4.9552 C   0  0  0  0  0  0  0  0  0  0  0  0
   14.9493   26.5692   -6.0150 C   0  0  0  0  0  0  0  0  0  0  0  0
   16.1239   27.2687   -5.8947 C   0  0  0  0  0  0  0  0  0  0  0  0
   16.6782   27.3220   -4.6147 C   0  0  0  0  0  0  0  0  0  0  0  0
   16.0548   26.6945   -3.5406 C   0  0  0  0  0  0  0  0  0  0  0  0
   16.7807   27.9200   -7.0217 C   0  0  0  0  0  0  0  0  0  0  0  0
   17.0262   29.2631   -7.1191 O   0  0  0  0  0  0  0  0  0  0  0  0
   17.1382   27.1346   -7.9668 O   0  0  0  0  0  0  0  0  0  0  0  0
   17.7526   29.5778   -7.7458 H   0  0  0  0  0  0  0  0  0  0  0  0
   13.4223   20.5794    1.1324 C   0  0  0  0  0  0  0  0  0  0  0  0
   11.8592   22.1358    2.9049 C   0  0  0  0  0  0  0  0  0  0  0  0
   11.9170   20.6572    3.0675 C   0  0  0  0  0  0  0  0  0  0  0  0
   11.2260   20.0570    4.0864 C   0  0  0  0  0  0  0  0  0  0  0  0
   11.2585   18.6926    4.2492 C   0  0  0  0  0  0  0  0  0  0  0  0
   12.0144   17.9517    3.3470 C   0  0  0  0  0  0  0  0  0  0  0  0
   12.6673   18.5829    2.3758 N   0  0  0  0  0  0  0  0  0  0  0  0
   12.6701   19.9043    2.1711 C   0  0  0  0  0  0  0  0  0  0  0  0
 23 24  1  0  0  0
 24 25  2  0  0  0
 25 26  1  0  0  0
 26 27  2  0  0  0
 27 28  1  0  0  0
 28 29  2  0  0  0
 29 22  1  0  0  0
 22  1  1  0  0  0
  1  2  1  0  0  0
  2  3  1  0  0  0
  3  4  1  0  0  0
  4  5  1  0  0  0
  5  6  1  0  0  0
  6  7  1  0  0  0
  7  8  1  0  0  0
  8  9  2  0  0  0
  7 12  1  0  0  0
 12 13  2  0  0  0
 13 14  1  0  0  0
 14 15  2  0  0  0
 15 16  1  0  0  0
 16 17  2  0  0  0
 15 18  1  0  0  0
 18 19  1  0  0  0
 18 20  2  0  0  0
  4 10  1  0  0  0
 10 11  1  0  0  0
 29 24  1  0  0  0
 11  1  1  0  0  0
  8  4  1  0  0  0
 17 12  1  0  0  0
 19 21  1  0  0  0
M  END
> <minimizedAffinity>
2.61786

> <CNNscore>
0.5626904368

> <CNNaffinity>
6.8527016640

> <CNN_VS>
3.8559496403

> <CNNaffinity_variance>
0.3651131392

$$$$
[H]OC(=O)c1c([H])c([H])c(N2C(=O)C3(C([H])([H])C2([H])[H])C([H])([H])C([H])([H])N(C([H])([H])c2nc([H])c([H])c([H])c2C([H])([H])[H])C([H])([H])C3([H])[H])c([H])c1[H]


 29 32  0  0  0  0  0  0  0  0999 V2000
   12.9424   27.2470   -4.6605 N   0  0  0  0  0  0  0  0  0  0  0  0
   14.0395   27.7884   -3.8905 C   0  0  0  0  0  0  0  0  0  0  0  0
   15.2227   26.8918   -3.7337 C   0  0  0  0  0  0  0  0  0  0  0  0
   14.6886   25.6677   -2.9713 C   0  0  0  0  0  0  0  0  0  0  0  0
   13.9963   26.0564   -1.6944 C   0  0  0  0  0  0  0  0  0  0  0  0
   14.4448   24.9350   -0.7611 C   0  0  0  0  0  0  0  0  0  0  0  0
   15.8536   24.8102   -1.1416 N   0  0  0  0  0  0  0  0  0  0  0  0
   15.8541   24.8803   -2.5658 C   0  0  0  0  0  0  0  0  0  0  0  0
   16.7286   24.3394   -3.2866 O   0  0  0  0  0  0  0  0  0  0  0  0
   13.7417   25.0052   -3.8986 C   0  0  0  0  0  0  0  0  0  0  0  0
   12.5939   25.9068   -4.2605 C   0  0  0  0  0  0  0  0  0  0  0  0
   16.9344   24.6548   -0.2398 C   0  0  0  0  0  0  0  0  0  0  0  0
   16.6953   24.6356    1.1092 C   0  0  0  0  0  0  0  0  0  0  0  0
   17.7275   24.4861    1.9982 C   0  0  0  0  0  0  0  0  0  0  0  0
   19.0357   24.3490    1.6066 C   0  0  0  0  0  0  0  0  0  0  0  0
   19.2700   24.3703    0.2307 C   0  0  0  0  0  0  0  0  0  0  0  0
   18.2199   24.5220   -0.6695 C   0  0  0  0  0  0  0  0  0  0  0  0
   20.1367   24.1973    2.5504 C   0  0  0  0  0  0  0  0  0  0  0  0
   20.0121   24.2192    3.9134 O   0  0  0  0  0  0  0  0  0  0  0  0
   21.2878   24.0320    2.0162 O   0  0  0  0  0  0  0  0  0  0  0  0
   20.7351   23.7895    4.4720 H   0  0  0  0  0  0  0  0  0  0  0  0
   13.2302   27.3609   -6.0681 C   0  0  0  0  0  0  0  0  0  0  0  0
   15.6097   28.8922   -6.0996 C   0  0  0  0  0  0  0  0  0  0  0  0
   15.6355   27.4695   -6.5367 C   0  0  0  0  0  0  0  0  0  0  0  0
   16.8092   26.9115   -6.9693 C   0  0  0  0  0  0  0  0  0  0  0  0
   16.8571   25.5973   -7.3690 C   0  0  0  0  0  0  0  0  0  0  0  0
   15.6773   24.8626   -7.3179 C   0  0  0  0  0  0  0  0  0  0  0  0
   14.5644   25.4516   -6.8908 N   0  0  0  0  0  0  0  0  0  0  0  0
   14.4613   26.7233   -6.4905 C   0  0  0  0  0  0  0  0  0  0  0  0
 23 24  1  0  0  0
 24 25  2  0  0  0
 25 26  1  0  0  0
 26 27  2  0  0  0
 27 28  1  0  0  0
 28 29  2  0  0  0
 29 22  1  0  0  0
 22  1  1  0  0  0
  1  2  1  0  0  0
  2  3  1  0  0  0
  3  4  1  0  0  0
  4  5  1  0  0  0
  5  6  1  0  0  0
  6  7  1  0  0  0
  7  8  1  0  0  0
  8  9  2  0  0  0
  7 12  1  0  0  0
 12 13  2  0  0  0
 13 14  1  0  0  0
 14 15  2  0  0  0
 15 16  1  0  0  0
 16 17  2  0  0  0
 15 18  1  0  0  0
 18 19  1  0  0  0
 18 20  2  0  0  0
  4 10  1  0  0  0
 10 11  1  0  0  0
 29 24  1  0  0  0
 11  1  1  0  0  0
  8  4  1  0  0  0
 17 12  1  0  0  0
 19 21  1  0  0  0
M  END
> <minimizedAffinity>
24.20614

> <CNNscore>
0.5419102311

> <CNNaffinity>
6.4773001671

> <CNN_VS>
3.5101151466

> <CNNaffinity_variance>
0.6257601976

$$$$
[H]OC(=O)c1c([H])c([H])c(N2C(=O)C3(C([H])([H])C2([H])[H])C([H])([H])C([H])([H])N(C([H])([H])c2nc([H])c([H])c([H])c2C([H])([H])[H])C([H])([H])C3([H])[H])c([H])c1[H]


 29 32  0  0  0  0  0  0  0  0999 V2000
   10.8808   27.7259   -3.8382 N   0  0  0  0  0  0  0  0  0  0  0  0
   12.2346   28.1293   -3.5314 C   0  0  0  0  0  0  0  0  0  0  0  0
   13.2802   27.0816   -3.7250 C   0  0  0  0  0  0  0  0  0  0  0  0
   12.9015   25.9631   -2.7398 C   0  0  0  0  0  0  0  0  0  0  0  0
   12.7507   26.4765   -1.3346 C   0  0  0  0  0  0  0  0  0  0  0  0
   13.3572   25.3278   -0.5330 C   0  0  0  0  0  0  0  0  0  0  0  0
   14.5185   24.9992   -1.3628 N   0  0  0  0  0  0  0  0  0  0  0  0
   14.0306   25.0323   -2.7022 C   0  0  0  0  0  0  0  0  0  0  0  0
   14.5262   24.3572   -3.6378 O   0  0  0  0  0  0  0  0  0  0  0  0
   11.6177   25.4150   -3.2367 C   0  0  0  0  0  0  0  0  0  0  0  0
   10.5340   26.4576   -3.2477 C   0  0  0  0  0  0  0  0  0  0  0  0
   15.8186   24.7183   -0.8767 C   0  0  0  0  0  0  0  0  0  0  0  0
   15.9853   24.3157    0.4223 C   0  0  0  0  0  0  0  0  0  0  0  0
   17.2352   24.0391    0.9117 C   0  0  0  0  0  0  0  0  0  0  0  0
   18.3737   24.1441    0.1528 C   0  0  0  0  0  0  0  0  0  0  0  0
   18.1946   24.5555   -1.1690 C   0  0  0  0  0  0  0  0  0  0  0  0
   16.9243   24.8354   -1.6632 C   0  0  0  0  0  0  0  0  0  0  0  0
   19.7054   23.8577    0.6729 C   0  0  0  0  0  0  0  0  0  0  0  0
   20.2308   24.3855    1.8214 O   0  0  0  0  0  0  0  0  0  0  0  0
   20.3977   23.0441   -0.0319 O   0  0  0  0  0  0  0  0  0  0  0  0
   20.9931   23.9003    2.2720 H   0  0  0  0  0  0  0  0  0  0  0  0
   10.6710   27.7630   -5.2636 C   0  0  0  0  0  0  0  0  0  0  0  0
    9.5335   30.3434   -5.0289 C   0  0  0  0  0  0  0  0  0  0  0  0
    8.7106   29.2117   -5.5370 C   0  0  0  0  0  0  0  0  0  0  0  0
    7.3994   29.4208   -5.8733 C   0  0  0  0  0  0  0  0  0  0  0  0
    6.6244   28.3919   -6.3527 C   0  0  0  0  0  0  0  0  0  0  0  0
    7.2183   27.1409   -6.4816 C   0  0  0  0  0  0  0  0  0  0  0  0
    8.4946   26.9906   -6.1406 N   0  0  0  0  0  0  0  0  0  0  0  0
    9.2932   27.9546   -5.6706 C   0  0  0  0  0  0  0  0  0  0  0  0
 23 24  1  0  0  0
 24 25  2  0  0  0
 25 26  1  0  0  0
 26 27  2  0  0  0
 27 28  1  0  0  0
 28 29  2  0  0  0
 29 22  1  0  0  0
 22  1  1  0  0  0
  1  2  1  0  0  0
  2  3  1  0  0  0
  3  4  1  0  0  0
  4  5  1  0  0  0
  5  6  1  0  0  0
  6  7  1  0  0  0
  7  8  1  0  0  0
  8  9  2  0  0  0
  7 12  1  0  0  0
 12 13  2  0  0  0
 13 14  1  0  0  0
 14 15  2  0  0  0
 15 16  1  0  0  0
 16 17  2  0  0  0
 15 18  1  0  0  0
 18 19  1  0  0  0
 18 20  2  0  0  0
  4 10  1  0  0  0
 10 11  1  0  0  0
 29 24  1  0  0  0
 11  1  1  0  0  0
  8  4  1  0  0  0
 17 12  1  0  0  0
 19 21  1  0  0  0
M  END
> <minimizedAffinity>
38.50555

> <CNNscore>
0.4956151545

> <CNNaffinity>
6.0488219261

> <CNN_VS>
2.9978878498

> <CNNaffinity_variance>
0.7410524487

$$$$
[H]OC(=O)c1c([H])c([H])c(N2C(=O)C3(C([H])([H])C2([H])[H])C([H])([H])C([H])([H])N(C([H])([H])c2nc([H])c([H])c([H])c2C([H])([H])[H])C([H])([H])C3([H])[H])c([H])c1[H]


 29 32  0  0  0  0  0  0  0  0999 V2000
   13.2763   22.5989    1.7350 N   0  0  0  0  0  0  0  0  0  0  0  0
   12.8695   23.8274    1.0910 C   0  0  0  0  0  0  0  0  0  0  0  0
   12.9587   23.8355   -0.3991 C   0  0  0  0  0  0  0  0  0  0  0  0
   14.4522   23.6318   -0.7036 C   0  0  0  0  0  0  0  0  0  0  0  0
   15.3146   24.6409    0.0027 C   0  0  0  0  0  0  0  0  0  0  0  0
   16.3714   24.9240   -1.0616 C   0  0  0  0  0  0  0  0  0  0  0  0
   15.5382   24.9820   -2.2649 N   0  0  0  0  0  0  0  0  0  0  0  0
   14.6315   23.8894   -2.1334 C   0  0  0  0  0  0  0  0  0  0  0  0
   14.1139   23.2961   -3.1115 O   0  0  0  0  0  0  0  0  0  0  0  0
   14.7676   22.2598   -0.2413 C   0  0  0  0  0  0  0  0  0  0  0  0
   14.5340   22.1024    1.2359 C   0  0  0  0  0  0  0  0  0  0  0  0
   15.6596   25.9418   -3.2991 C   0  0  0  0  0  0  0  0  0  0  0  0
   14.7373   25.9685   -4.3119 C   0  0  0  0  0  0  0  0  0  0  0  0
   14.8372   26.8895   -5.3219 C   0  0  0  0  0  0  0  0  0  0  0  0
   15.8417   27.8225   -5.3843 C   0  0  0  0  0  0  0  0  0  0  0  0
   16.7771   27.7874   -4.3488 C   0  0  0  0  0  0  0  0  0  0  0  0
   16.6730   26.8513   -3.3246 C   0  0  0  0  0  0  0  0  0  0  0  0
   15.9548   28.7986   -6.4614 C   0  0  0  0  0  0  0  0  0  0  0  0
   15.7210   30.1412   -6.3330 O   0  0  0  0  0  0  0  0  0  0  0  0
   16.3036   28.3159   -7.5942 O   0  0  0  0  0  0  0  0  0  0  0  0
   16.1293   30.7701   -7.0092 H   0  0  0  0  0  0  0  0  0  0  0  0
   12.2129   21.6295    1.6544 C   0  0  0  0  0  0  0  0  0  0  0  0
    9.5249   22.2659    1.0398 C   0  0  0  0  0  0  0  0  0  0  0  0
   10.3997   21.6535    0.0026 C   0  0  0  0  0  0  0  0  0  0  0  0
    9.8943   21.3845   -1.2417 C   0  0  0  0  0  0  0  0  0  0  0  0
   10.6869   20.8275   -2.2167 C   0  0  0  0  0  0  0  0  0  0  0  0
   12.0107   20.5497   -1.8931 C   0  0  0  0  0  0  0  0  0  0  0  0
   12.4520   20.8295   -0.6705 N   0  0  0  0  0  0  0  0  0  0  0  0
   11.7265   21.3706    0.3138 C   0  0  0  0  0  0  0  0  0  0  0  0
 23 24  1  0  0  0
 24 25  2  0  0  0
 25 26  1  0  0  0
 26 27  2  0  0  0
 27 28  1  0  0  0
 28 29  2  0  0  0
 29 22  1  0  0  0
 22  1  1  0  0  0
  1  2  1  0  0  0
  2  3  1  0  0  0
  3  4  1  0  0  0
  4  5  1  0  0  0
  5  6  1  0  0  0
  6  7  1  0  0  0
  7  8  1  0  0  0
  8  9  2  0  0  0
  7 12  1  0  0  0
 12 13  2  0  0  0
 13 14  1  0  0  0
 14 15  2  0  0  0
 15 16  1  0  0  0
 16 17  2  0  0  0
 15 18  1  0  0  0
 18 19  1  0  0  0
 18 20  2  0  0  0
  4 10  1  0  0  0
 10 11  1  0  0  0
 29 24  1  0  0  0
 11  1  1  0  0  0
  8  4  1  0  0  0
 17 12  1  0  0  0
 19 21  1  0  0  0
M  END
> <minimizedAffinity>
-1.87907

> <CNNscore>
0.4762895107

> <CNNaffinity>
6.8623147011

> <CNN_VS>
3.2684485912

> <CNNaffinity_variance>
0.0629438609

$$$$
[H]OC(=O)c1c([H])c([H])c(N2C(=O)C3(C([H])([H])C2([H])[H])C([H])([H])C([H])([H])N(C([H])([H])c2nc([H])c([H])c([H])c2C([H])([H])[H])C([H])([H])C3([H])[H])c([H])c1[H]


 29 32  0  0  0  0  0  0  0  0999 V2000
   10.8923   21.7620    1.7197 N   0  0  0  0  0  0  0  0  0  0  0  0
   11.9915   21.6692    0.7856 C   0  0  0  0  0  0  0  0  0  0  0  0
   12.7928   22.9157    0.6055 C   0  0  0  0  0  0  0  0  0  0  0  0
   11.7978   23.9433    0.0407 C   0  0  0  0  0  0  0  0  0  0  0  0
   11.1022   23.4361   -1.1922 C   0  0  0  0  0  0  0  0  0  0  0  0
   11.0387   24.7043   -2.0391 C   0  0  0  0  0  0  0  0  0  0  0  0
   12.3708   25.2623   -1.7955 N   0  0  0  0  0  0  0  0  0  0  0  0
   12.5842   25.0983   -0.3952 C   0  0  0  0  0  0  0  0  0  0  0  0
   13.3274   25.8473    0.2855 O   0  0  0  0  0  0  0  0  0  0  0  0
   10.8216   24.1889    1.1280 C   0  0  0  0  0  0  0  0  0  0  0  0
   10.0824   22.9352    1.5066 C   0  0  0  0  0  0  0  0  0  0  0  0
   13.2138   25.8289   -2.7823 C   0  0  0  0  0  0  0  0  0  0  0  0
   14.5406   25.4887   -2.8182 C   0  0  0  0  0  0  0  0  0  0  0  0
   15.3728   26.0260   -3.7652 C   0  0  0  0  0  0  0  0  0  0  0  0
   14.9439   26.9176   -4.7163 C   0  0  0  0  0  0  0  0  0  0  0  0
   13.5911   27.2589   -4.6717 C   0  0  0  0  0  0  0  0  0  0  0  0
   12.7485   26.7116   -3.7092 C   0  0  0  0  0  0  0  0  0  0  0  0
   15.8285   27.4965   -5.7203 C   0  0  0  0  0  0  0  0  0  0  0  0
   16.3873   28.7442   -5.6497 O   0  0  0  0  0  0  0  0  0  0  0  0
   16.0732   26.7423   -6.7249 O   0  0  0  0  0  0  0  0  0  0  0  0
   17.2181   28.9333   -6.1915 H   0  0  0  0  0  0  0  0  0  0  0  0
   11.3869   21.6531    3.0690 C   0  0  0  0  0  0  0  0  0  0  0  0
    8.9821   22.1062    4.4901 C   0  0  0  0  0  0  0  0  0  0  0  0
    9.6506   20.7783    4.5645 C   0  0  0  0  0  0  0  0  0  0  0  0
    9.1073   19.7850    5.3354 C   0  0  0  0  0  0  0  0  0  0  0  0
    9.7035   18.5489    5.4113 C   0  0  0  0  0  0  0  0  0  0  0  0
   10.8701   18.3479    4.6814 C   0  0  0  0  0  0  0  0  0  0  0  0
   11.3570   19.3451    3.9490 N   0  0  0  0  0  0  0  0  0  0  0  0
   10.8190   20.5643    3.8388 C   0  0  0  0  0  0  0  0  0  0  0  0
 23 24  1  0  0  0
 24 25  2  0  0  0
 25 26  1  0  0  0
 26 27  2  0  0  0
 27 28  1  0  0  0
 28 29  2  0  0  0
 29 22  1  0  0  0
 22  1  1  0  0  0
  1  2  1  0  0  0
  2  3  1  0  0  0
  3  4  1  0  0  0
  4  5  1  0  0  0
  5  6  1  0  0  0
  6  7  1  0  0  0
  7  8  1  0  0  0
  8  9  2  0  0  0
  7 12  1  0  0  0
 12 13  2  0  0  0
 13 14  1  0  0  0
 14 15  2  0  0  0
 15 16  1  0  0  0
 16 17  2  0  0  0
 15 18  1  0  0  0
 18 19  1  0  0  0
 18 20  2  0  0  0
  4 10  1  0  0  0
 10 11  1  0  0  0
 29 24  1  0  0  0
 11  1  1  0  0  0
  8  4  1  0  0  0
 17 12  1  0  0  0
 19 21  1  0  0  0
M  END
> <minimizedAffinity>
-7.31680

> <CNNscore>
0.4695223570

> <CNNaffinity>
6.6319770813

> <CNN_VS>
3.1138615608

> <CNNaffinity_variance>
0.3158755600

$$$$
[H]OC(=O)c1c([H])c([H])c(N2C(=O)C3(C([H])([H])C2([H])[H])C([H])([H])C([H])([H])N(C([H])([H])c2nc([H])c([H])c([H])c2C([H])([H])[H])C([H])([H])C3([H])[H])c([H])c1[H]


 29 32  0  0  0  0  0  0  0  0999 V2000
   10.2695   29.0817   -3.8852 N   0  0  0  0  0  0  0  0  0  0  0  0
   11.4863   29.7629   -3.5046 C   0  0  0  0  0  0  0  0  0  0  0  0
   12.6715   29.5017   -4.3738 C   0  0  0  0  0  0  0  0  0  0  0  0
   12.9310   27.9919   -4.2394 C   0  0  0  0  0  0  0  0  0  0  0  0
   13.0749   27.5699   -2.8034 C   0  0  0  0  0  0  0  0  0  0  0  0
   14.1867   26.5297   -2.9104 C   0  0  0  0  0  0  0  0  0  0  0  0
   15.0876   27.1895   -3.8581 N   0  0  0  0  0  0  0  0  0  0  0  0
   14.2298   27.7289   -4.8613 C   0  0  0  0  0  0  0  0  0  0  0  0
   14.5867   27.9191   -6.0501 O   0  0  0  0  0  0  0  0  0  0  0  0
   11.7607   27.3313   -4.8636 C   0  0  0  0  0  0  0  0  0  0  0  0
   10.4806   27.6820   -4.1567 C   0  0  0  0  0  0  0  0  0  0  0  0
   16.4982   27.2429   -3.7450 C   0  0  0  0  0  0  0  0  0  0  0  0
   17.1367   26.4444   -2.8328 C   0  0  0  0  0  0  0  0  0  0  0  0
   18.5010   26.4813   -2.7080 C   0  0  0  0  0  0  0  0  0  0  0  0
   19.2980   27.2992   -3.4689 C   0  0  0  0  0  0  0  0  0  0  0  0
   18.6391   28.1096   -4.3951 C   0  0  0  0  0  0  0  0  0  0  0  0
   17.2538   28.0697   -4.5197 C   0  0  0  0  0  0  0  0  0  0  0  0
   20.7490   27.3460   -3.3332 C   0  0  0  0  0  0  0  0  0  0  0  0
   21.6290   27.5373   -4.3641 O   0  0  0  0  0  0  0  0  0  0  0  0
   21.1856   27.1934   -2.1399 O   0  0  0  0  0  0  0  0  0  0  0  0
   22.5550   27.8794   -4.1523 H   0  0  0  0  0  0  0  0  0  0  0  0
    9.6386   29.7810   -4.9760 C   0  0  0  0  0  0  0  0  0  0  0  0
    7.6103   30.2734   -3.0651 C   0  0  0  0  0  0  0  0  0  0  0  0
    7.2819   29.5634   -4.3315 C   0  0  0  0  0  0  0  0  0  0  0  0
    6.0009   29.1355   -4.5595 C   0  0  0  0  0  0  0  0  0  0  0  0
    5.6741   28.4859   -5.7258 C   0  0  0  0  0  0  0  0  0  0  0  0
    6.6864   28.2813   -6.6573 C   0  0  0  0  0  0  0  0  0  0  0  0
    7.9137   28.7156   -6.3873 N   0  0  0  0  0  0  0  0  0  0  0  0
    8.2861   29.3522   -5.2720 C   0  0  0  0  0  0  0  0  0  0  0  0
 23 24  1  0  0  0
 24 25  2  0  0  0
 25 26  1  0  0  0
 26 27  2  0  0  0
 27 28  1  0  0  0
 28 29  2  0  0  0
 29 22  1  0  0  0
 22  1  1  0  0  0
  1  2  1  0  0  0
  2  3  1  0  0  0
  3  4  1  0  0  0
  4  5  1  0  0  0
  5  6  1  0  0  0
  6  7  1  0  0  0
  7  8  1  0  0  0
  8  9  2  0  0  0
  7 12  1  0  0  0
 12 13  2  0  0  0
 13 14  1  0  0  0
 14 15  2  0  0  0
 15 16  1  0  0  0
 16 17  2  0  0  0
 15 18  1  0  0  0
 18 19  1  0  0  0
 18 20  2  0  0  0
  4 10  1  0  0  0
 10 11  1  0  0  0
 29 24  1  0  0  0
 11  1  1  0  0  0
  8  4  1  0  0  0
 17 12  1  0  0  0
 19 21  1  0  0  0
M  END
> <minimizedAffinity>
36.79160

> <CNNscore>
0.4554000497

> <CNNaffinity>
5.8643445969

> <CNN_VS>
2.6706228256

> <CNNaffinity_variance>
0.6824663877

$$$$
[H]OC(=O)c1c([H])c([H])c(N2C(=O)C3(C([H])([H])C2([H])[H])C([H])([H])C([H])([H])N(C([H])([H])c2nc([H])c([H])c([H])c2C([H])([H])[H])C([H])([H])C3([H])[H])c([H])c1[H]


 29 32  0  0  0  0  0  0  0  0999 V2000
    9.2682   22.5484    1.4790 N   0  0  0  0  0  0  0  0  0  0  0  0
    9.1747   23.1947    0.1894 C   0  0  0  0  0  0  0  0  0  0  0  0
   10.2430   22.8384   -0.7905 C   0  0  0  0  0  0  0  0  0  0  0  0
   11.5506   23.3127   -0.1346 C   0  0  0  0  0  0  0  0  0  0  0  0
   11.4902   24.7624    0.2598 C   0  0  0  0  0  0  0  0  0  0  0  0
   12.9055   25.2212   -0.0810 C   0  0  0  0  0  0  0  0  0  0  0  0
   13.1145   24.5359   -1.3585 N   0  0  0  0  0  0  0  0  0  0  0  0
   12.5936   23.2238   -1.1578 C   0  0  0  0  0  0  0  0  0  0  0  0
   13.0017   22.2128   -1.7806 O   0  0  0  0  0  0  0  0  0  0  0  0
   11.7299   22.4533    1.0591 C   0  0  0  0  0  0  0  0  0  0  0  0
   10.5966   22.6119    2.0348 C   0  0  0  0  0  0  0  0  0  0  0  0
   13.7124   25.1097   -2.5069 C   0  0  0  0  0  0  0  0  0  0  0  0
   13.0783   26.1316   -3.1634 C   0  0  0  0  0  0  0  0  0  0  0  0
   13.6404   26.7002   -4.2765 C   0  0  0  0  0  0  0  0  0  0  0  0
   14.8448   26.2944   -4.7943 C   0  0  0  0  0  0  0  0  0  0  0  0
   15.4832   25.2525   -4.1196 C   0  0  0  0  0  0  0  0  0  0  0  0
   14.9102   24.6774   -2.9895 C   0  0  0  0  0  0  0  0  0  0  0  0
   15.4416   26.8923   -5.9826 C   0  0  0  0  0  0  0  0  0  0  0  0
   15.6233   26.2511   -7.1783 O   0  0  0  0  0  0  0  0  0  0  0  0
   15.8061   28.1119   -5.8494 O   0  0  0  0  0  0  0  0  0  0  0  0
   15.7274   26.8073   -8.0145 H   0  0  0  0  0  0  0  0  0  0  0  0
    8.7553   21.2045    1.3904 C   0  0  0  0  0  0  0  0  0  0  0  0
    8.8347   19.6404   -0.9665 C   0  0  0  0  0  0  0  0  0  0  0  0
    7.5725   20.3221   -0.5690 C   0  0  0  0  0  0  0  0  0  0  0  0
    6.4578   20.2033   -1.3559 C   0  0  0  0  0  0  0  0  0  0  0  0
    5.2798   20.8172   -1.0028 C   0  0  0  0  0  0  0  0  0  0  0  0
    5.2642   21.5577    0.1743 C   0  0  0  0  0  0  0  0  0  0  0  0
    6.3736   21.6423    0.9022 N   0  0  0  0  0  0  0  0  0  0  0  0
    7.5438   21.0665    0.6069 C   0  0  0  0  0  0  0  0  0  0  0  0
 23 24  1  0  0  0
 24 25  2  0  0  0
 25 26  1  0  0  0
 26 27  2  0  0  0
 27 28  1  0  0  0
 28 29  2  0  0  0
 29 22  1  0  0  0
 22  1  1  0  0  0
  1  2  1  0  0  0
  2  3  1  0  0  0
  3  4  1  0  0  0
  4  5  1  0  0  0
  5  6  1  0  0  0
  6  7  1  0  0  0
  7  8  1  0  0  0
  8  9  2  0  0  0
  7 12  1  0  0  0
 12 13  2  0  0  0
 13 14  1  0  0  0
 14 15  2  0  0  0
 15 16  1  0  0  0
 16 17  2  0  0  0
 15 18  1  0  0  0
 18 19  1  0  0  0
 18 20  2  0  0  0
  4 10  1  0  0  0
 10 11  1  0  0  0
 29 24  1  0  0  0
 11  1  1  0  0  0
  8  4  1  0  0  0
 17 12  1  0  0  0
 19 21  1  0  0  0
M  END
> <minimizedAffinity>
-9.57659

> <CNNscore>
0.4416010976

> <CNNaffinity>
6.7112808228

> <CNN_VS>
2.9637088776

> <CNNaffinity_variance>
0.0446760245

$$$$
[H]OC(=O)c1c([H])c([H])c(N2C(=O)C3(C([H])([H])C2([H])[H])C([H])([H])C([H])([H])N(C([H])([H])c2nc([H])c([H])c([H])c2C([H])([H])[H])C([H])([H])C3([H])[H])c([H])c1[H]


 29 32  0  0  0  0  0  0  0  0999 V2000
   14.6418   20.0940    0.8012 N   0  0  0  0  0  0  0  0  0  0  0  0
   15.4932   21.2487    0.6239 C   0  0  0  0  0  0  0  0  0  0  0  0
   14.7953   22.5141    0.2497 C   0  0  0  0  0  0  0  0  0  0  0  0
   14.1420   22.2142   -1.1097 C   0  0  0  0  0  0  0  0  0  0  0  0
   15.1377   21.7020   -2.1133 C   0  0  0  0  0  0  0  0  0  0  0  0
   14.6523   22.3868   -3.3881 C   0  0  0  0  0  0  0  0  0  0  0  0
   14.3381   23.7232   -2.8774 N   0  0  0  0  0  0  0  0  0  0  0  0
   13.6657   23.4922   -1.6413 C   0  0  0  0  0  0  0  0  0  0  0  0
   12.8241   24.2846   -1.1510 O   0  0  0  0  0  0  0  0  0  0  0  0
   13.1046   21.1926   -0.8343 C   0  0  0  0  0  0  0  0  0  0  0  0
   13.7011   19.9291   -0.2783 C   0  0  0  0  0  0  0  0  0  0  0  0
   14.6597   24.9423   -3.5221 C   0  0  0  0  0  0  0  0  0  0  0  0
   15.9620   25.2136   -3.8501 C   0  0  0  0  0  0  0  0  0  0  0  0
   16.2938   26.3877   -4.4744 C   0  0  0  0  0  0  0  0  0  0  0  0
   15.3676   27.3451   -4.8041 C   0  0  0  0  0  0  0  0  0  0  0  0
   14.0436   27.0606   -4.4657 C   0  0  0  0  0  0  0  0  0  0  0  0
   13.7097   25.8676   -3.8322 C   0  0  0  0  0  0  0  0  0  0  0  0
   15.7186   28.5983   -5.4615 C   0  0  0  0  0  0  0  0  0  0  0  0
   15.1838   29.8215   -5.1584 O   0  0  0  0  0  0  0  0  0  0  0  0
   16.5993   28.4967   -6.3844 O   0  0  0  0  0  0  0  0  0  0  0  0
   15.6996   30.6513   -5.4131 H   0  0  0  0  0  0  0  0  0  0  0  0
   14.0133   20.1445    2.0971 C   0  0  0  0  0  0  0  0  0  0  0  0
   11.7810   19.0365    3.4376 C   0  0  0  0  0  0  0  0  0  0  0  0
   11.6678   20.3670    2.7796 C   0  0  0  0  0  0  0  0  0  0  0  0
   10.4769   21.0428    2.8110 C   0  0  0  0  0  0  0  0  0  0  0  0
   10.3531   22.2763    2.2175 C   0  0  0  0  0  0  0  0  0  0  0  0
   11.4745   22.8067    1.5888 C   0  0  0  0  0  0  0  0  0  0  0  0
   12.6069   22.1099    1.5859 N   0  0  0  0  0  0  0  0  0  0  0  0
   12.7829   20.9089    2.1468 C   0  0  0  0  0  0  0  0  0  0  0  0
 23 24  1  0  0  0
 24 25  2  0  0  0
 25 26  1  0  0  0
 26 27  2  0  0  0
 27 28  1  0  0  0
 28 29  2  0  0  0
 29 22  1  0  0  0
 22  1  1  0  0  0
  1  2  1  0  0  0
  2  3  1  0  0  0
  3  4  1  0  0  0
  4  5  1  0  0  0
  5  6  1  0  0  0
  6  7  1  0  0  0
  7  8  1  0  0  0
  8  9  2  0  0  0
  7 12  1  0  0  0
 12 13  2  0  0  0
 13 14  1  0  0  0
 14 15  2  0  0  0
 15 16  1  0  0  0
 16 17  2  0  0  0
 15 18  1  0  0  0
 18 19  1  0  0  0
 18 20  2  0  0  0
  4 10  1  0  0  0
 10 11  1  0  0  0
 29 24  1  0  0  0
 11  1  1  0  0  0
  8  4  1  0  0  0
 17 12  1  0  0  0
 19 21  1  0  0  0
M  END
> <minimizedAffinity>
-2.42525

> <CNNscore>
0.4348622262

> <CNNaffinity>
6.9775261879

> <CNN_VS>
3.0342626572

> <CNNaffinity_variance>
0.3423497081

$$$$
[H]OC(=O)c1c([H])c([H])c(N2C(=O)C3(C([H])([H])C2([H])[H])C([H])([H])C([H])([H])N(C([H])([H])c2nc([H])c([H])c([H])c2C([H])([H])[H])C([H])([H])C3([H])[H])c([H])c1[H]


 29 32  0  0  0  0  0  0  0  0999 V2000
    8.2801   21.7861   -0.5372 N   0  0  0  0  0  0  0  0  0  0  0  0
    9.5594   21.2942   -0.9967 C   0  0  0  0  0  0  0  0  0  0  0  0
   10.7005   21.4830   -0.0531 C   0  0  0  0  0  0  0  0  0  0  0  0
   10.8275   23.0071    0.1086 C   0  0  0  0  0  0  0  0  0  0  0  0
   10.9596   23.7058   -1.2163 C   0  0  0  0  0  0  0  0  0  0  0  0
   11.9726   24.7958   -0.8765 C   0  0  0  0  0  0  0  0  0  0  0  0
   12.9110   24.0450   -0.0392 N   0  0  0  0  0  0  0  0  0  0  0  0
   12.0862   23.2543    0.8139 C   0  0  0  0  0  0  0  0  0  0  0  0
   12.4367   22.8713    1.9571 O   0  0  0  0  0  0  0  0  0  0  0  0
    9.5919   23.4362    0.8050 C   0  0  0  0  0  0  0  0  0  0  0  0
    8.3611   23.1210    0.0004 C   0  0  0  0  0  0  0  0  0  0  0  0
   14.3226   24.1324   -0.1111 C   0  0  0  0  0  0  0  0  0  0  0  0
   15.0388   24.4787    1.0043 C   0  0  0  0  0  0  0  0  0  0  0  0
   16.4055   24.5687    0.9554 C   0  0  0  0  0  0  0  0  0  0  0  0
   17.1290   24.3240   -0.1848 C   0  0  0  0  0  0  0  0  0  0  0  0
   16.3912   23.9725   -1.3164 C   0  0  0  0  0  0  0  0  0  0  0  0
   15.0037   23.8817   -1.2635 C   0  0  0  0  0  0  0  0  0  0  0  0
   18.5823   24.4262   -0.2418 C   0  0  0  0  0  0  0  0  0  0  0  0
   19.3029   24.7723   -1.3531 O   0  0  0  0  0  0  0  0  0  0  0  0
   19.1863   24.1648    0.8558 O   0  0  0  0  0  0  0  0  0  0  0  0
   20.2376   25.1338   -1.2301 H   0  0  0  0  0  0  0  0  0  0  0  0
    7.6939   20.8412    0.3796 C   0  0  0  0  0  0  0  0  0  0  0  0
    9.2248   18.6162   -0.4649 C   0  0  0  0  0  0  0  0  0  0  0  0
    7.7540   18.6363   -0.6935 C   0  0  0  0  0  0  0  0  0  0  0  0
    7.1493   17.5838   -1.3279 C   0  0  0  0  0  0  0  0  0  0  0  0
    5.7915   17.5780   -1.5412 C   0  0  0  0  0  0  0  0  0  0  0  0
    5.0619   18.6735   -1.0920 C   0  0  0  0  0  0  0  0  0  0  0  0
    5.6970   19.6700   -0.4824 N   0  0  0  0  0  0  0  0  0  0  0  0
    7.0123   19.7270   -0.2487 C   0  0  0  0  0  0  0  0  0  0  0  0
 23 24  1  0  0  0
 24 25  2  0  0  0
 25 26  1  0  0  0
 26 27  2  0  0  0
 27 28  1  0  0  0
 28 29  2  0  0  0
 29 22  1  0  0  0
 22  1  1  0  0  0
  1  2  1  0  0  0
  2  3  1  0  0  0
  3  4  1  0  0  0
  4  5  1  0  0  0
  5  6  1  0  0  0
  6  7  1  0  0  0
  7  8  1  0  0  0
  8  9  2  0  0  0
  7 12  1  0  0  0
 12 13  2  0  0  0
 13 14  1  0  0  0
 14 15  2  0  0  0
 15 16  1  0  0  0
 16 17  2  0  0  0
 15 18  1  0  0  0
 18 19  1  0  0  0
 18 20  2  0  0  0
  4 10  1  0  0  0
 10 11  1  0  0  0
 29 24  1  0  0  0
 11  1  1  0  0  0
  8  4  1  0  0  0
 17 12  1  0  0  0
 19 21  1  0  0  0
M  END
> <minimizedAffinity>
3.83689

> <CNNscore>
0.4192515016

> <CNNaffinity>
6.4320054054

> <CNN_VS>
2.6966278553

> <CNNaffinity_variance>
0.3813637197

$$$$
[H]OC(=O)C([H])([H])N([H])C(=O)C1=C(O[H])C([H])([H])C([H])([H])N(C([H])([H])c2c([H])c([H])c(-c3c([H])c([H])c([H])c([H])c3[H])c([H])c2[H])C1=O


 31 33  0  0  0  0  0  0  0  0999 V2000
   13.8748   27.1520   -3.6488 C   0  0  0  0  0  0  0  0  0  0  0  0
   15.1865   27.3606   -3.7412 C   0  0  0  0  0  0  0  0  0  0  0  0
   15.6203   28.6789   -4.0120 O   0  0  0  0  0  0  0  0  0  0  0  0
   16.2033   26.3363   -3.5831 C   0  0  0  0  0  0  0  0  0  0  0  0
   15.7493   24.9123   -3.7795 C   0  0  0  0  0  0  0  0  0  0  0  0
   14.4289   24.7418   -3.2370 N   0  0  0  0  0  0  0  0  0  0  0  0
   13.4535   25.7886   -3.3844 C   0  0  0  0  0  0  0  0  0  0  0  0
   12.2429   25.5096   -3.2821 O   0  0  0  0  0  0  0  0  0  0  0  0
   15.9038   29.2097   -3.1924 H   0  0  0  0  0  0  0  0  0  0  0  0
   11.6142   28.2558   -4.1539 N   0  0  0  0  0  0  0  0  0  0  0  0
   12.9725   28.2817   -3.8281 C   0  0  0  0  0  0  0  0  0  0  0  0
   13.4709   29.4558   -3.6711 O   0  0  0  0  0  0  0  0  0  0  0  0
   11.1223   27.3574   -4.3061 H   0  0  0  0  0  0  0  0  0  0  0  0
   10.8361   29.4617   -4.2930 C   0  0  0  0  0  0  0  0  0  0  0  0
   11.6867   30.7913   -2.3584 O   0  0  0  0  0  0  0  0  0  0  0  0
   11.4756   30.6586   -3.7334 C   0  0  0  0  0  0  0  0  0  0  0  0
   11.8651   31.6175   -4.4352 O   0  0  0  0  0  0  0  0  0  0  0  0
   11.6323   30.0236   -1.7172 H   0  0  0  0  0  0  0  0  0  0  0  0
   14.0688   23.5450   -2.5482 C   0  0  0  0  0  0  0  0  0  0  0  0
   13.0869   23.7834   -1.4418 C   0  0  0  0  0  0  0  0  0  0  0  0
   11.9423   23.0259   -1.3081 C   0  0  0  0  0  0  0  0  0  0  0  0
   11.0457   23.2590   -0.2767 C   0  0  0  0  0  0  0  0  0  0  0  0
   11.2504   24.2508    0.6596 C   0  0  0  0  0  0  0  0  0  0  0  0
   12.3958   25.0088    0.5255 C   0  0  0  0  0  0  0  0  0  0  0  0
   13.2878   24.7738   -0.5040 C   0  0  0  0  0  0  0  0  0  0  0  0
   10.2869   24.4680    1.7345 C   0  0  0  0  0  0  0  0  0  0  0  0
   10.1528   25.6819    2.3767 C   0  0  0  0  0  0  0  0  0  0  0  0
    9.2229   25.8692    3.4052 C   0  0  0  0  0  0  0  0  0  0  0  0
    8.4364   24.7980    3.7633 C   0  0  0  0  0  0  0  0  0  0  0  0
    8.5328   23.5627    3.1506 C   0  0  0  0  0  0  0  0  0  0  0  0
    9.4656   23.4382    2.1455 C   0  0  0  0  0  0  0  0  0  0  0  0
 15 16  1  0  0  0
 16 17  2  0  0  0
 16 14  1  0  0  0
 14 10  1  0  0  0
 10 11  1  0  0  0
 11 12  2  0  0  0
 11  1  1  0  0  0
  1  2  2  0  0  0
  2  3  1  0  0  0
  2  4  1  0  0  0
  4  5  1  0  0  0
  5  6  1  0  0  0
  6 19  1  0  0  0
 19 20  1  0  0  0
 20 21  2  0  0  0
 21 22  1  0  0  0
 22 23  2  0  0  0
 23 24  1  0  0  0
 24 25  2  0  0  0
 23 26  1  0  0  0
 26 27  2  0  0  0
 27 28  1  0  0  0
 28 29  2  0  0  0
 29 30  1  0  0  0
 30 31  2  0  0  0
  6  7  1  0  0  0
  7  8  2  0  0  0
  7  1  1  0  0  0
 25 20  1  0  0  0
 31 26  1  0  0  0
 15 18  1  0  0  0
 10 13  1  0  0  0
  3  9  1  0  0  0
M  END
> <minimizedAffinity>
5.46497

> <CNNscore>
0.4802677333

> <CNNaffinity>
5.8436765671

> <CNN_VS>
2.8065292835

> <CNNaffinity_variance>
0.4664269984

$$$$
[H]OC(=O)C([H])([H])N([H])C(=O)C1=C(O[H])C([H])([H])C([H])([H])N(C([H])([H])c2c([H])c([H])c(-c3c([H])c([H])c([H])c([H])c3[H])c([H])c2[H])C1=O


 31 33  0  0  0  0  0  0  0  0999 V2000
   11.8052   28.9171   -4.3630 C   0  0  0  0  0  0  0  0  0  0  0  0
   12.5508   29.9521   -3.9815 C   0  0  0  0  0  0  0  0  0  0  0  0
   11.9177   31.2130   -3.8876 O   0  0  0  0  0  0  0  0  0  0  0  0
   13.9634   29.8819   -3.6536 C   0  0  0  0  0  0  0  0  0  0  0  0
   14.7163   28.6981   -4.2052 C   0  0  0  0  0  0  0  0  0  0  0  0
   13.8827   27.5275   -4.1649 N   0  0  0  0  0  0  0  0  0  0  0  0
   12.4803   27.6365   -4.4656 C   0  0  0  0  0  0  0  0  0  0  0  0
   11.8531   26.6175   -4.8151 O   0  0  0  0  0  0  0  0  0  0  0  0
   11.6237   31.4720   -2.9493 H   0  0  0  0  0  0  0  0  0  0  0  0
    9.5429   30.0998   -4.1053 N   0  0  0  0  0  0  0  0  0  0  0  0
   10.3958   29.1406   -4.6565 C   0  0  0  0  0  0  0  0  0  0  0  0
    9.8530   28.3683   -5.5286 O   0  0  0  0  0  0  0  0  0  0  0  0
    9.8852   30.7656   -3.3900 H   0  0  0  0  0  0  0  0  0  0  0  0
    8.1601   30.2127   -4.4984 C   0  0  0  0  0  0  0  0  0  0  0  0
    7.3775   30.3334   -2.1304 O   0  0  0  0  0  0  0  0  0  0  0  0
    7.2035   29.8727   -3.4382 C   0  0  0  0  0  0  0  0  0  0  0  0
    6.1918   29.1637   -3.6314 O   0  0  0  0  0  0  0  0  0  0  0  0
    8.0035   31.0771   -1.8882 H   0  0  0  0  0  0  0  0  0  0  0  0
   14.4263   26.2522   -3.8267 C   0  0  0  0  0  0  0  0  0  0  0  0
   13.7186   25.6046   -2.6757 C   0  0  0  0  0  0  0  0  0  0  0  0
   13.7056   24.2362   -2.5055 C   0  0  0  0  0  0  0  0  0  0  0  0
   13.0475   23.6541   -1.4331 C   0  0  0  0  0  0  0  0  0  0  0  0
   12.3784   24.4064   -0.4904 C   0  0  0  0  0  0  0  0  0  0  0  0
   12.3914   25.7757   -0.6610 C   0  0  0  0  0  0  0  0  0  0  0  0
   13.0486   26.3530   -1.7314 C   0  0  0  0  0  0  0  0  0  0  0  0
   11.6974   23.7612    0.6280 C   0  0  0  0  0  0  0  0  0  0  0  0
   12.1040   22.5479    1.1441 C   0  0  0  0  0  0  0  0  0  0  0  0
   11.4371   21.9463    2.2169 C   0  0  0  0  0  0  0  0  0  0  0  0
   10.3521   22.6045    2.7496 C   0  0  0  0  0  0  0  0  0  0  0  0
    9.9063   23.8211    2.2681 C   0  0  0  0  0  0  0  0  0  0  0  0
   10.6020   24.3644    1.2115 C   0  0  0  0  0  0  0  0  0  0  0  0
 15 16  1  0  0  0
 16 17  2  0  0  0
 16 14  1  0  0  0
 14 10  1  0  0  0
 10 11  1  0  0  0
 11 12  2  0  0  0
 11  1  1  0  0  0
  1  2  2  0  0  0
  2  3  1  0  0  0
  2  4  1  0  0  0
  4  5  1  0  0  0
  5  6  1  0  0  0
  6 19  1  0  0  0
 19 20  1  0  0  0
 20 21  2  0  0  0
 21 22  1  0  0  0
 22 23  2  0  0  0
 23 24  1  0  0  0
 24 25  2  0  0  0
 23 26  1  0  0  0
 26 27  2  0  0  0
 27 28  1  0  0  0
 28 29  2  0  0  0
 29 30  1  0  0  0
 30 31  2  0  0  0
  6  7  1  0  0  0
  7  8  2  0  0  0
  7  1  1  0  0  0
 25 20  1  0  0  0
 31 26  1  0  0  0
 15 18  1  0  0  0
 10 13  1  0  0  0
  3  9  1  0  0  0
M  END
> <minimizedAffinity>
12.16164

> <CNNscore>
0.4671951234

> <CNNaffinity>
5.6726913452

> <CNN_VS>
2.6502537727

> <CNNaffinity_variance>
0.5969429016

$$$$
[H]OC(=O)C([H])([H])N([H])C(=O)C1=C(O[H])C([H])([H])C([H])([H])N(C([H])([H])c2c([H])c([H])c(-c3c([H])c([H])c([H])c([H])c3[H])c([H])c2[H])C1=O


 31 33  0  0  0  0  0  0  0  0999 V2000
   13.2010   21.8167    0.6303 C   0  0  0  0  0  0  0  0  0  0  0  0
   14.2255   20.9750    0.5093 C   0  0  0  0  0  0  0  0  0  0  0  0
   13.9274   19.6000    0.3685 O   0  0  0  0  0  0  0  0  0  0  0  0
   15.6243   21.3641    0.5093 C   0  0  0  0  0  0  0  0  0  0  0  0
   15.9427   22.7016    1.1274 C   0  0  0  0  0  0  0  0  0  0  0  0
   14.9065   23.6457    0.8087 N   0  0  0  0  0  0  0  0  0  0  0  0
   13.5324   23.2208    0.7876 C   0  0  0  0  0  0  0  0  0  0  0  0
   12.6310   24.0737    0.9059 O   0  0  0  0  0  0  0  0  0  0  0  0
   13.9320   19.2601   -0.5898 H   0  0  0  0  0  0  0  0  0  0  0  0
   10.8140   21.5107    1.5202 N   0  0  0  0  0  0  0  0  0  0  0  0
   11.8473   21.2786    0.6092 C   0  0  0  0  0  0  0  0  0  0  0  0
   11.5490   20.4902   -0.3608 O   0  0  0  0  0  0  0  0  0  0  0  0
   10.9576   22.1277    2.3393 H   0  0  0  0  0  0  0  0  0  0  0  0
    9.5106   20.9125    1.3699 C   0  0  0  0  0  0  0  0  0  0  0  0
    9.0617   21.6812   -0.9628 O   0  0  0  0  0  0  0  0  0  0  0  0
    9.1259   20.6499   -0.0221 C   0  0  0  0  0  0  0  0  0  0  0  0
    8.8363   19.5105   -0.4483 O   0  0  0  0  0  0  0  0  0  0  0  0
    9.4754   22.5823   -0.8199 H   0  0  0  0  0  0  0  0  0  0  0  0
   15.2207   25.0050    0.5085 C   0  0  0  0  0  0  0  0  0  0  0  0
   15.3270   25.2663   -0.9631 C   0  0  0  0  0  0  0  0  0  0  0  0
   16.5399   25.5039   -1.5749 C   0  0  0  0  0  0  0  0  0  0  0  0
   16.6198   25.7415   -2.9383 C   0  0  0  0  0  0  0  0  0  0  0  0
   15.5013   25.7526   -3.7452 C   0  0  0  0  0  0  0  0  0  0  0  0
   14.2877   25.5150   -3.1328 C   0  0  0  0  0  0  0  0  0  0  0  0
   14.2113   25.2783   -1.7730 C   0  0  0  0  0  0  0  0  0  0  0  0
   15.6213   26.0042   -5.1781 C   0  0  0  0  0  0  0  0  0  0  0  0
   15.4322   25.0168   -6.1232 C   0  0  0  0  0  0  0  0  0  0  0  0
   15.5521   25.2789   -7.4923 C   0  0  0  0  0  0  0  0  0  0  0  0
   15.8674   26.5626   -7.8756 C   0  0  0  0  0  0  0  0  0  0  0  0
   16.0664   27.5857   -6.9677 C   0  0  0  0  0  0  0  0  0  0  0  0
   15.9351   27.2681   -5.6344 C   0  0  0  0  0  0  0  0  0  0  0  0
 15 16  1  0  0  0
 16 17  2  0  0  0
 16 14  1  0  0  0
 14 10  1  0  0  0
 10 11  1  0  0  0
 11 12  2  0  0  0
 11  1  1  0  0  0
  1  2  2  0  0  0
  2  3  1  0  0  0
  2  4  1  0  0  0
  4  5  1  0  0  0
  5  6  1  0  0  0
  6 19  1  0  0  0
 19 20  1  0  0  0
 20 21  2  0  0  0
 21 22  1  0  0  0
 22 23  2  0  0  0
 23 24  1  0  0  0
 24 25  2  0  0  0
 23 26  1  0  0  0
 26 27  2  0  0  0
 27 28  1  0  0  0
 28 29  2  0  0  0
 29 30  1  0  0  0
 30 31  2  0  0  0
  6  7  1  0  0  0
  7  8  2  0  0  0
  7  1  1  0  0  0
 25 20  1  0  0  0
 31 26  1  0  0  0
 15 18  1  0  0  0
 10 13  1  0  0  0
  3  9  1  0  0  0
M  END
> <minimizedAffinity>
-5.03055

> <CNNscore>
0.4097419679

> <CNNaffinity>
6.3354101181

> <CNN_VS>
2.5958833694

> <CNNaffinity_variance>
0.2165612727

$$$$
[H]OC(=O)C([H])([H])N([H])C(=O)C1=C(O[H])C([H])([H])C([H])([H])N(C([H])([H])c2c([H])c([H])c(-c3c([H])c([H])c([H])c([H])c3[H])c([H])c2[H])C1=O


 31 33  0  0  0  0  0  0  0  0999 V2000
   13.7270   23.6482   -1.4210 C   0  0  0  0  0  0  0  0  0  0  0  0
   14.1075   24.5957   -2.2755 C   0  0  0  0  0  0  0  0  0  0  0  0
   15.4525   24.5796   -2.7114 O   0  0  0  0  0  0  0  0  0  0  0  0
   13.2442   25.6418   -2.7936 C   0  0  0  0  0  0  0  0  0  0  0  0
   12.0065   25.9429   -1.9875 C   0  0  0  0  0  0  0  0  0  0  0  0
   11.4625   24.7236   -1.4545 N   0  0  0  0  0  0  0  0  0  0  0  0
   12.3460   23.6938   -0.9772 C   0  0  0  0  0  0  0  0  0  0  0  0
   11.9103   22.8420   -0.1782 O   0  0  0  0  0  0  0  0  0  0  0  0
   15.6014   24.1353   -3.6138 H   0  0  0  0  0  0  0  0  0  0  0  0
   14.6482   21.2710   -1.1307 N   0  0  0  0  0  0  0  0  0  0  0  0
   14.7070   22.6597   -0.9907 C   0  0  0  0  0  0  0  0  0  0  0  0
   15.7633   23.1024   -0.4078 O   0  0  0  0  0  0  0  0  0  0  0  0
   13.8343   20.8175   -1.5827 H   0  0  0  0  0  0  0  0  0  0  0  0
   15.7030   20.4077   -0.6606 C   0  0  0  0  0  0  0  0  0  0  0  0
   14.7291   20.7297    1.6157 O   0  0  0  0  0  0  0  0  0  0  0  0
   15.6016   20.0521    0.7599 C   0  0  0  0  0  0  0  0  0  0  0  0
   16.2749   19.1393    1.2863 O   0  0  0  0  0  0  0  0  0  0  0  0
   13.9845   21.3156    1.2905 H   0  0  0  0  0  0  0  0  0  0  0  0
   10.0520   24.5157   -1.3935 C   0  0  0  0  0  0  0  0  0  0  0  0
    9.6325   23.7191   -0.1957 C   0  0  0  0  0  0  0  0  0  0  0  0
    9.7681   24.2066    1.0871 C   0  0  0  0  0  0  0  0  0  0  0  0
    9.3725   23.4566    2.1838 C   0  0  0  0  0  0  0  0  0  0  0  0
    8.8282   22.1964    2.0496 C   0  0  0  0  0  0  0  0  0  0  0  0
    8.6926   21.7087    0.7658 C   0  0  0  0  0  0  0  0  0  0  0  0
    9.0881   22.4591   -0.3257 C   0  0  0  0  0  0  0  0  0  0  0  0
    8.4200   21.4343    3.2258 C   0  0  0  0  0  0  0  0  0  0  0  0
    9.3098   21.0552    4.2098 C   0  0  0  0  0  0  0  0  0  0  0  0
    8.8980   20.3246    5.3297 C   0  0  0  0  0  0  0  0  0  0  0  0
    7.5663   19.9902    5.4246 C   0  0  0  0  0  0  0  0  0  0  0  0
    6.6365   20.3465    4.4658 C   0  0  0  0  0  0  0  0  0  0  0  0
    7.1003   21.0647    3.3865 C   0  0  0  0  0  0  0  0  0  0  0  0
 15 16  1  0  0  0
 16 17  2  0  0  0
 16 14  1  0  0  0
 14 10  1  0  0  0
 10 11  1  0  0  0
 11 12  2  0  0  0
 11  1  1  0  0  0
  1  2  2  0  0  0
  2  3  1  0  0  0
  2  4  1  0  0  0
  4  5  1  0  0  0
  5  6  1  0  0  0
  6 19  1  0  0  0
 19 20  1  0  0  0
 20 21  2  0  0  0
 21 22  1  0  0  0
 22 23  2  0  0  0
 23 24  1  0  0  0
 24 25  2  0  0  0
 23 26  1  0  0  0
 26 27  2  0  0  0
 27 28  1  0  0  0
 28 29  2  0  0  0
 29 30  1  0  0  0
 30 31  2  0  0  0
  6  7  1  0  0  0
  7  8  2  0  0  0
  7  1  1  0  0  0
 25 20  1  0  0  0
 31 26  1  0  0  0
 15 18  1  0  0  0
 10 13  1  0  0  0
  3  9  1  0  0  0
M  END
> <minimizedAffinity>
0.57146

> <CNNscore>
0.4093979299

> <CNNaffinity>
6.0111837387

> <CNN_VS>
2.4609661102

> <CNNaffinity_variance>
1.8206325769

$$$$
[H]OC(=O)C([H])([H])N([H])C(=O)C1=C(O[H])C([H])([H])C([H])([H])N(C([H])([H])c2c([H])c([H])c(-c3c([H])c([H])c([H])c([H])c3[H])c([H])c2[H])C1=O


 31 33  0  0  0  0  0  0  0  0999 V2000
   15.5679   24.5613   -1.2815 C   0  0  0  0  0  0  0  0  0  0  0  0
   15.7751   25.1184   -0.0902 C   0  0  0  0  0  0  0  0  0  0  0  0
   15.8737   26.5280   -0.0371 O   0  0  0  0  0  0  0  0  0  0  0  0
   15.9055   24.3869    1.1572 C   0  0  0  0  0  0  0  0  0  0  0  0
   16.2796   22.9314    1.0388 C   0  0  0  0  0  0  0  0  0  0  0  0
   15.6242   22.3501   -0.1011 N   0  0  0  0  0  0  0  0  0  0  0  0
   15.4844   23.1128   -1.3126 C   0  0  0  0  0  0  0  0  0  0  0  0
   15.2907   22.5137   -2.3885 O   0  0  0  0  0  0  0  0  0  0  0  0
   15.0161   27.0041    0.2309 H   0  0  0  0  0  0  0  0  0  0  0  0
   15.9204   25.1910   -3.7438 N   0  0  0  0  0  0  0  0  0  0  0  0
   15.4542   25.4266   -2.4481 C   0  0  0  0  0  0  0  0  0  0  0  0
   14.8534   26.5506   -2.2832 O   0  0  0  0  0  0  0  0  0  0  0  0
   16.4224   24.3156   -3.9759 H   0  0  0  0  0  0  0  0  0  0  0  0
   15.7292   26.1406   -4.8118 C   0  0  0  0  0  0  0  0  0  0  0  0
   15.4696   24.1425   -6.2864 O   0  0  0  0  0  0  0  0  0  0  0  0
   15.4604   25.5298   -6.1193 C   0  0  0  0  0  0  0  0  0  0  0  0
   15.2109   26.1966   -7.1474 O   0  0  0  0  0  0  0  0  0  0  0  0
   15.4317   23.4964   -5.5218 H   0  0  0  0  0  0  0  0  0  0  0  0
   15.1046   21.0221   -0.0492 C   0  0  0  0  0  0  0  0  0  0  0  0
   13.6229   20.9851    0.1703 C   0  0  0  0  0  0  0  0  0  0  0  0
   12.7489   20.5969   -0.8232 C   0  0  0  0  0  0  0  0  0  0  0  0
   11.3807   20.5664   -0.6018 C   0  0  0  0  0  0  0  0  0  0  0  0
   10.8286   20.9194    0.6119 C   0  0  0  0  0  0  0  0  0  0  0  0
   11.7034   21.3080    1.6059 C   0  0  0  0  0  0  0  0  0  0  0  0
   13.0671   21.3373    1.3819 C   0  0  0  0  0  0  0  0  0  0  0  0
    9.3834   20.8739    0.8119 C   0  0  0  0  0  0  0  0  0  0  0  0
    8.5042   20.5455   -0.1996 C   0  0  0  0  0  0  0  0  0  0  0  0
    7.1219   20.5077    0.0131 C   0  0  0  0  0  0  0  0  0  0  0  0
    6.6570   20.8105    1.2726 C   0  0  0  0  0  0  0  0  0  0  0  0
    7.4969   21.1452    2.3183 C   0  0  0  0  0  0  0  0  0  0  0  0
    8.8470   21.1658    2.0493 C   0  0  0  0  0  0  0  0  0  0  0  0
 15 16  1  0  0  0
 16 17  2  0  0  0
 16 14  1  0  0  0
 14 10  1  0  0  0
 10 11  1  0  0  0
 11 12  2  0  0  0
 11  1  1  0  0  0
  1  2  2  0  0  0
  2  3  1  0  0  0
  2  4  1  0  0  0
  4  5  1  0  0  0
  5  6  1  0  0  0
  6 19  1  0  0  0
 19 20  1  0  0  0
 20 21  2  0  0  0
 21 22  1  0  0  0
 22 23  2  0  0  0
 23 24  1  0  0  0
 24 25  2  0  0  0
 23 26  1  0  0  0
 26 27  2  0  0  0
 27 28  1  0  0  0
 28 29  2  0  0  0
 29 30  1  0  0  0
 30 31  2  0  0  0
  6  7  1  0  0  0
  7  8  2  0  0  0
  7  1  1  0  0  0
 25 20  1  0  0  0
 31 26  1  0  0  0
 15 18  1  0  0  0
 10 13  1  0  0  0
  3  9  1  0  0  0
M  END
> <minimizedAffinity>
0.04167

> <CNNscore>
0.4039618373

> <CNNaffinity>
5.9454832077

> <CNN_VS>
2.4017484188

> <CNNaffinity_variance>
0.3982298970

$$$$
[H]OC(=O)C([H])([H])N([H])C(=O)C1=C(O[H])C([H])([H])C([H])([H])N(C([H])([H])c2c([H])c([H])c(-c3c([H])c([H])c([H])c([H])c3[H])c([H])c2[H])C1=O


 31 33  0  0  0  0  0  0  0  0999 V2000
   14.9896   26.8302   -5.1858 C   0  0  0  0  0  0  0  0  0  0  0  0
   15.3178   27.9127   -4.4835 C   0  0  0  0  0  0  0  0  0  0  0  0
   16.3595   28.7258   -4.9864 O   0  0  0  0  0  0  0  0  0  0  0  0
   14.6848   28.3206   -3.2422 C   0  0  0  0  0  0  0  0  0  0  0  0
   13.9513   27.2436   -2.4842 C   0  0  0  0  0  0  0  0  0  0  0  0
   13.2855   26.3647   -3.4067 N   0  0  0  0  0  0  0  0  0  0  0  0
   13.9274   26.0040   -4.6424 C   0  0  0  0  0  0  0  0  0  0  0  0
   13.5596   24.9735   -5.2396 O   0  0  0  0  0  0  0  0  0  0  0  0
   16.0482   29.5378   -5.5134 H   0  0  0  0  0  0  0  0  0  0  0  0
   16.9718   25.9608   -6.5637 N   0  0  0  0  0  0  0  0  0  0  0  0
   15.7135   26.5501   -6.4187 C   0  0  0  0  0  0  0  0  0  0  0  0
   15.1382   26.8797   -7.5195 O   0  0  0  0  0  0  0  0  0  0  0  0
   17.5178   25.6652   -5.7349 H   0  0  0  0  0  0  0  0  0  0  0  0
   17.5684   25.7355   -7.8569 C   0  0  0  0  0  0  0  0  0  0  0  0
   17.0765   24.5530  -10.0002 O   0  0  0  0  0  0  0  0  0  0  0  0
   16.6293   25.2542   -8.8773 C   0  0  0  0  0  0  0  0  0  0  0  0
   15.3940   25.4364   -8.8102 O   0  0  0  0  0  0  0  0  0  0  0  0
   17.9906   24.1489  -10.0680 H   0  0  0  0  0  0  0  0  0  0  0  0
   11.9892   25.8433   -3.1161 C   0  0  0  0  0  0  0  0  0  0  0  0
   12.0024   24.8361   -2.0068 C   0  0  0  0  0  0  0  0  0  0  0  0
   10.8558   24.4912   -1.3227 C   0  0  0  0  0  0  0  0  0  0  0  0
   10.8860   23.5554   -0.3004 C   0  0  0  0  0  0  0  0  0  0  0  0
   12.0531   22.9274    0.0816 C   0  0  0  0  0  0  0  0  0  0  0  0
   13.2004   23.2728   -0.6031 C   0  0  0  0  0  0  0  0  0  0  0  0
   13.1669   24.2063   -1.6221 C   0  0  0  0  0  0  0  0  0  0  0  0
   12.0491   21.9449    1.1611 C   0  0  0  0  0  0  0  0  0  0  0  0
   11.2051   22.0407    2.2485 C   0  0  0  0  0  0  0  0  0  0  0  0
   11.2173   21.0879    3.2730 C   0  0  0  0  0  0  0  0  0  0  0  0
   12.1038   20.0406    3.1661 C   0  0  0  0  0  0  0  0  0  0  0  0
   12.9689   19.9005    2.0971 C   0  0  0  0  0  0  0  0  0  0  0  0
   12.9115   20.8685    1.1197 C   0  0  0  0  0  0  0  0  0  0  0  0
 15 16  1  0  0  0
 16 17  2  0  0  0
 16 14  1  0  0  0
 14 10  1  0  0  0
 10 11  1  0  0  0
 11 12  2  0  0  0
 11  1  1  0  0  0
  1  2  2  0  0  0
  2  3  1  0  0  0
  2  4  1  0  0  0
  4  5  1  0  0  0
  5  6  1  0  0  0
  6 19  1  0  0  0
 19 20  1  0  0  0
 20 21  2  0  0  0
 21 22  1  0  0  0
 22 23  2  0  0  0
 23 24  1  0  0  0
 24 25  2  0  0  0
 23 26  1  0  0  0
 26 27  2  0  0  0
 27 28  1  0  0  0
 28 29  2  0  0  0
 29 30  1  0  0  0
 30 31  2  0  0  0
  6  7  1  0  0  0
  7  8  2  0  0  0
  7  1  1  0  0  0
 25 20  1  0  0  0
 31 26  1  0  0  0
 15 18  1  0  0  0
 10 13  1  0  0  0
  3  9  1  0  0  0
M  END
> <minimizedAffinity>
13.38784

> <CNNscore>
0.3938853741

> <CNNaffinity>
5.7823314667

> <CNN_VS>
2.2775757313

> <CNNaffinity_variance>
0.7617846727

$$$$
[H]OC(=O)C([H])([H])N([H])C(=O)C1=C(O[H])C([H])([H])C([H])([H])N(C([H])([H])c2c([H])c([H])c(-c3c([H])c([H])c([H])c([H])c3[H])c([H])c2[H])C1=O


 31 33  0  0  0  0  0  0  0  0999 V2000
   10.7937   21.7180    0.5733 C   0  0  0  0  0  0  0  0  0  0  0  0
   11.4389   20.7937   -0.1352 C   0  0  0  0  0  0  0  0  0  0  0  0
   10.6999   19.6676   -0.5655 O   0  0  0  0  0  0  0  0  0  0  0  0
   12.8429   20.8570   -0.4997 C   0  0  0  0  0  0  0  0  0  0  0  0
   13.7074   21.7642    0.3381 C   0  0  0  0  0  0  0  0  0  0  0  0
   12.9743   22.9500    0.6889 N   0  0  0  0  0  0  0  0  0  0  0  0
   11.5765   22.8573    1.0155 C   0  0  0  0  0  0  0  0  0  0  0  0
   11.0470   23.7675    1.6827 O   0  0  0  0  0  0  0  0  0  0  0  0
   10.3594   19.7230   -1.5220 H   0  0  0  0  0  0  0  0  0  0  0  0
    8.2866   21.7891    0.0318 N   0  0  0  0  0  0  0  0  0  0  0  0
    9.3791   21.5190    0.8595 C   0  0  0  0  0  0  0  0  0  0  0  0
    9.0806   21.0357    2.0122 O   0  0  0  0  0  0  0  0  0  0  0  0
    8.4237   22.1855   -0.9150 H   0  0  0  0  0  0  0  0  0  0  0  0
    6.9294   21.5333    0.4458 C   0  0  0  0  0  0  0  0  0  0  0  0
    6.1855   19.2444    1.1107 O   0  0  0  0  0  0  0  0  0  0  0  0
    6.4420   20.1891    0.1135 C   0  0  0  0  0  0  0  0  0  0  0  0
    6.2291   19.8092   -1.0587 O   0  0  0  0  0  0  0  0  0  0  0  0
    6.0977   19.4789    2.0807 H   0  0  0  0  0  0  0  0  0  0  0  0
   13.6136   24.2256    0.7159 C   0  0  0  0  0  0  0  0  0  0  0  0
   14.0195   24.7019   -0.6455 C   0  0  0  0  0  0  0  0  0  0  0  0
   15.3358   24.6960   -1.0566 C   0  0  0  0  0  0  0  0  0  0  0  0
   15.6931   25.1383   -2.3209 C   0  0  0  0  0  0  0  0  0  0  0  0
   14.7596   25.6027   -3.2239 C   0  0  0  0  0  0  0  0  0  0  0  0
   13.4425   25.6087   -2.8121 C   0  0  0  0  0  0  0  0  0  0  0  0
   13.0894   25.1669   -1.5508 C   0  0  0  0  0  0  0  0  0  0  0  0
   15.1700   26.0592   -4.5483 C   0  0  0  0  0  0  0  0  0  0  0  0
   15.5586   27.3594   -4.7975 C   0  0  0  0  0  0  0  0  0  0  0  0
   15.9484   27.7768   -6.0748 C   0  0  0  0  0  0  0  0  0  0  0  0
   15.9336   26.8451   -7.0876 C   0  0  0  0  0  0  0  0  0  0  0  0
   15.5527   25.5313   -6.8885 C   0  0  0  0  0  0  0  0  0  0  0  0
   15.1795   25.1789   -5.6109 C   0  0  0  0  0  0  0  0  0  0  0  0
 15 16  1  0  0  0
 16 17  2  0  0  0
 16 14  1  0  0  0
 14 10  1  0  0  0
 10 11  1  0  0  0
 11 12  2  0  0  0
 11  1  1  0  0  0
  1  2  2  0  0  0
  2  3  1  0  0  0
  2  4  1  0  0  0
  4  5  1  0  0  0
  5  6  1  0  0  0
  6 19  1  0  0  0
 19 20  1  0  0  0
 20 21  2  0  0  0
 21 22  1  0  0  0
 22 23  2  0  0  0
 23 24  1  0  0  0
 24 25  2  0  0  0
 23 26  1  0  0  0
 26 27  2  0  0  0
 27 28  1  0  0  0
 28 29  2  0  0  0
 29 30  1  0  0  0
 30 31  2  0  0  0
  6  7  1  0  0  0
  7  8  2  0  0  0
  7  1  1  0  0  0
 25 20  1  0  0  0
 31 26  1  0  0  0
 15 18  1  0  0  0
 10 13  1  0  0  0
  3  9  1  0  0  0
M  END
> <minimizedAffinity>
-9.18514

> <CNNscore>
0.3846561909

> <CNNaffinity>
6.3220505714

> <CNN_VS>
2.4318158627

> <CNNaffinity_variance>
0.0614619367

$$$$
[H]OC(=O)C([H])([H])N([H])C(=O)C1=C(O[H])C([H])([H])C([H])([H])N(C([H])([H])c2c([H])c([H])c(-c3c([H])c([H])c([H])c([H])c3[H])c([H])c2[H])C1=O


 31 33  0  0  0  0  0  0  0  0999 V2000
   10.2417   21.6838    0.8486 C   0  0  0  0  0  0  0  0  0  0  0  0
    9.8706   21.3081   -0.3736 C   0  0  0  0  0  0  0  0  0  0  0  0
    8.4893   21.3376   -0.6742 O   0  0  0  0  0  0  0  0  0  0  0  0
   10.7783   20.8727   -1.4198 C   0  0  0  0  0  0  0  0  0  0  0  0
   12.1325   20.3894   -0.9671 C   0  0  0  0  0  0  0  0  0  0  0  0
   12.5937   21.1907    0.1338 N   0  0  0  0  0  0  0  0  0  0  0  0
   11.6629   21.6316    1.1379 C   0  0  0  0  0  0  0  0  0  0  0  0
   12.0926   21.9680    2.2587 O   0  0  0  0  0  0  0  0  0  0  0  0
    8.1797   22.1702   -1.1690 H   0  0  0  0  0  0  0  0  0  0  0  0
    8.0352   21.4336    2.1341 N   0  0  0  0  0  0  0  0  0  0  0  0
    9.2148   22.1004    1.7944 C   0  0  0  0  0  0  0  0  0  0  0  0
    9.4006   23.2182    2.4008 O   0  0  0  0  0  0  0  0  0  0  0  0
    7.7929   20.5275    1.6953 H   0  0  0  0  0  0  0  0  0  0  0  0
    7.1058   21.9639    3.1006 C   0  0  0  0  0  0  0  0  0  0  0  0
    6.7671   20.0418    4.6578 O   0  0  0  0  0  0  0  0  0  0  0  0
    7.2041   21.3494    4.4301 C   0  0  0  0  0  0  0  0  0  0  0  0
    7.6752   21.9430    5.4248 O   0  0  0  0  0  0  0  0  0  0  0  0
    6.5822   19.3878    3.9218 H   0  0  0  0  0  0  0  0  0  0  0  0
   13.9674   21.5605    0.2460 C   0  0  0  0  0  0  0  0  0  0  0  0
   14.3562   22.6508   -0.7055 C   0  0  0  0  0  0  0  0  0  0  0  0
   14.5161   23.9563   -0.2910 C   0  0  0  0  0  0  0  0  0  0  0  0
   14.8784   24.9521   -1.1848 C   0  0  0  0  0  0  0  0  0  0  0  0
   15.0955   24.6909   -2.5216 C   0  0  0  0  0  0  0  0  0  0  0  0
   14.9352   23.3844   -2.9362 C   0  0  0  0  0  0  0  0  0  0  0  0
   14.5739   22.3938   -2.0424 C   0  0  0  0  0  0  0  0  0  0  0  0
   15.4782   25.7629   -3.4355 C   0  0  0  0  0  0  0  0  0  0  0  0
   14.8054   26.0081   -4.6149 C   0  0  0  0  0  0  0  0  0  0  0  0
   15.1886   27.0410   -5.4773 C   0  0  0  0  0  0  0  0  0  0  0  0
   16.2671   27.8149   -5.1136 C   0  0  0  0  0  0  0  0  0  0  0  0
   16.9732   27.6093   -3.9432 C   0  0  0  0  0  0  0  0  0  0  0  0
   16.5499   26.5784   -3.1346 C   0  0  0  0  0  0  0  0  0  0  0  0
 15 16  1  0  0  0
 16 17  2  0  0  0
 16 14  1  0  0  0
 14 10  1  0  0  0
 10 11  1  0  0  0
 11 12  2  0  0  0
 11  1  1  0  0  0
  1  2  2  0  0  0
  2  3  1  0  0  0
  2  4  1  0  0  0
  4  5  1  0  0  0
  5  6  1  0  0  0
  6 19  1  0  0  0
 19 20  1  0  0  0
 20 21  2  0  0  0
 21 22  1  0  0  0
 22 23  2  0  0  0
 23 24  1  0  0  0
 24 25  2  0  0  0
 23 26  1  0  0  0
 26 27  2  0  0  0
 27 28  1  0  0  0
 28 29  2  0  0  0
 29 30  1  0  0  0
 30 31  2  0  0  0
  6  7  1  0  0  0
  7  8  2  0  0  0
  7  1  1  0  0  0
 25 20  1  0  0  0
 31 26  1  0  0  0
 15 18  1  0  0  0
 10 13  1  0  0  0
  3  9  1  0  0  0
M  END
> <minimizedAffinity>
-8.31514

> <CNNscore>
0.3678389192

> <CNNaffinity>
6.1448879242

> <CNN_VS>
2.2603290081

> <CNNaffinity_variance>
0.1849101335

$$$$
[H]OC(=O)C([H])([H])N([H])C(=O)C1=C(O[H])C([H])([H])C([H])([H])N(C([H])([H])c2c([H])c([H])c(-c3c([H])c([H])c([H])c([H])c3[H])c([H])c2[H])C1=O


 31 33  0  0  0  0  0  0  0  0999 V2000
    8.0615   22.0799    1.5262 C   0  0  0  0  0  0  0  0  0  0  0  0
    7.7372   21.6594    2.7471 C   0  0  0  0  0  0  0  0  0  0  0  0
    7.0176   20.4466    2.8499 O   0  0  0  0  0  0  0  0  0  0  0  0
    8.0690   22.3519    3.9793 C   0  0  0  0  0  0  0  0  0  0  0  0
    8.3841   23.8207    3.8527 C   0  0  0  0  0  0  0  0  0  0  0  0
    9.1215   24.0591    2.6419 N   0  0  0  0  0  0  0  0  0  0  0  0
    8.7874   23.3340    1.4454 C   0  0  0  0  0  0  0  0  0  0  0  0
    9.1294   23.7964    0.3395 O   0  0  0  0  0  0  0  0  0  0  0  0
    7.5881   19.6298    3.0533 H   0  0  0  0  0  0  0  0  0  0  0  0
    6.6534   21.5398   -0.5497 N   0  0  0  0  0  0  0  0  0  0  0  0
    7.6620   21.2745    0.3798 C   0  0  0  0  0  0  0  0  0  0  0  0
    8.3067   20.1801    0.1839 O   0  0  0  0  0  0  0  0  0  0  0  0
    6.0740   22.3947   -0.4742 H   0  0  0  0  0  0  0  0  0  0  0  0
    6.3702   20.6502   -1.6486 C   0  0  0  0  0  0  0  0  0  0  0  0
    8.6497   20.9721   -2.6152 O   0  0  0  0  0  0  0  0  0  0  0  0
    7.5644   20.1387   -2.3320 C   0  0  0  0  0  0  0  0  0  0  0  0
    7.6862   18.9492   -2.6979 O   0  0  0  0  0  0  0  0  0  0  0  0
    8.7797   21.8694   -2.1892 H   0  0  0  0  0  0  0  0  0  0  0  0
   10.1877   25.0071    2.6080 C   0  0  0  0  0  0  0  0  0  0  0  0
   11.2305   24.6737    1.5850 C   0  0  0  0  0  0  0  0  0  0  0  0
   11.7764   25.6355    0.7612 C   0  0  0  0  0  0  0  0  0  0  0  0
   12.7421   25.3095   -0.1784 C   0  0  0  0  0  0  0  0  0  0  0  0
   13.2022   24.0188   -0.3362 C   0  0  0  0  0  0  0  0  0  0  0  0
   12.6557   23.0564    0.4882 C   0  0  0  0  0  0  0  0  0  0  0  0
   11.6929   23.3848    1.4241 C   0  0  0  0  0  0  0  0  0  0  0  0
   14.2218   23.7103   -1.3342 C   0  0  0  0  0  0  0  0  0  0  0  0
   15.5222   24.1599   -1.2298 C   0  0  0  0  0  0  0  0  0  0  0  0
   16.4846   23.8529   -2.1978 C   0  0  0  0  0  0  0  0  0  0  0  0
   16.0952   23.0819   -3.2692 C   0  0  0  0  0  0  0  0  0  0  0  0
   14.8054   22.6077   -3.4187 C   0  0  0  0  0  0  0  0  0  0  0  0
   13.9021   22.9419   -2.4348 C   0  0  0  0  0  0  0  0  0  0  0  0
 15 16  1  0  0  0
 16 17  2  0  0  0
 16 14  1  0  0  0
 14 10  1  0  0  0
 10 11  1  0  0  0
 11 12  2  0  0  0
 11  1  1  0  0  0
  1  2  2  0  0  0
  2  3  1  0  0  0
  2  4  1  0  0  0
  4  5  1  0  0  0
  5  6  1  0  0  0
  6 19  1  0  0  0
 19 20  1  0  0  0
 20 21  2  0  0  0
 21 22  1  0  0  0
 22 23  2  0  0  0
 23 24  1  0  0  0
 24 25  2  0  0  0
 23 26  1  0  0  0
 26 27  2  0  0  0
 27 28  1  0  0  0
 28 29  2  0  0  0
 29 30  1  0  0  0
 30 31  2  0  0  0
  6  7  1  0  0  0
  7  8  2  0  0  0
  7  1  1  0  0  0
 25 20  1  0  0  0
 31 26  1  0  0  0
 15 18  1  0  0  0
 10 13  1  0  0  0
  3  9  1  0  0  0
M  END
> <minimizedAffinity>
-2.72234

> <CNNscore>
0.3517452776

> <CNNaffinity>
5.4389786720

> <CNN_VS>
1.9131350517

> <CNNaffinity_variance>
1.3771390915

$$$$
[H]OC(=O)C([H])([H])N([H])C(=O)C1=C(O[H])C([H])([H])C([H])([H])N(c2c([H])c([H])c(-c3c([H])c([H])c([H])c([H])c3[H])c([H])c2[H])C1=O


 30 32  0  0  0  0  0  0  0  0999 V2000
   13.9631   25.3356   -3.2956 C   0  0  0  0  0  0  0  0  0  0  0  0
   13.3914   26.4669   -2.9505 C   0  0  0  0  0  0  0  0  0  0  0  0
   13.8258   27.6548   -3.4868 O   0  0  0  0  0  0  0  0  0  0  0  0
   12.2694   26.5598   -1.9860 C   0  0  0  0  0  0  0  0  0  0  0  0
   11.4266   25.3233   -2.1046 C   0  0  0  0  0  0  0  0  0  0  0  0
   12.3467   24.2158   -1.7975 N   0  0  0  0  0  0  0  0  0  0  0  0
   13.4298   24.0685   -2.6907 C   0  0  0  0  0  0  0  0  0  0  0  0
   13.8943   22.9522   -2.9430 O   0  0  0  0  0  0  0  0  0  0  0  0
   13.3527   28.1426   -4.2462 H   0  0  0  0  0  0  0  0  0  0  0  0
   12.1506   23.3720   -0.6983 C   0  0  0  0  0  0  0  0  0  0  0  0
   10.9274   22.9658   -0.2678 C   0  0  0  0  0  0  0  0  0  0  0  0
   10.8622   22.1315    0.8313 C   0  0  0  0  0  0  0  0  0  0  0  0
   11.9660   21.6850    1.5191 C   0  0  0  0  0  0  0  0  0  0  0  0
   13.2145   22.1102    1.0656 C   0  0  0  0  0  0  0  0  0  0  0  0
   13.3040   22.9429   -0.0292 C   0  0  0  0  0  0  0  0  0  0  0  0
   11.8407   20.8024    2.6761 C   0  0  0  0  0  0  0  0  0  0  0  0
   12.1893   19.4718    2.5601 C   0  0  0  0  0  0  0  0  0  0  0  0
   12.0936   18.5904    3.6173 C   0  0  0  0  0  0  0  0  0  0  0  0
   11.6409   19.0089    4.8436 C   0  0  0  0  0  0  0  0  0  0  0  0
   11.2853   20.3363    4.9849 C   0  0  0  0  0  0  0  0  0  0  0  0
   11.3871   21.2121    3.9123 C   0  0  0  0  0  0  0  0  0  0  0  0
   15.1153   24.4236   -5.3768 N   0  0  0  0  0  0  0  0  0  0  0  0
   15.0551   25.1944   -4.2227 C   0  0  0  0  0  0  0  0  0  0  0  0
   16.1328   25.8625   -3.9704 O   0  0  0  0  0  0  0  0  0  0  0  0
   14.3389   23.8387   -5.7080 H   0  0  0  0  0  0  0  0  0  0  0  0
   16.3067   24.3766   -6.2328 C   0  0  0  0  0  0  0  0  0  0  0  0
   14.8291   25.5309   -7.8544 O   0  0  0  0  0  0  0  0  0  0  0  0
   16.0936   25.1014   -7.5062 C   0  0  0  0  0  0  0  0  0  0  0  0
   17.0456   25.3331   -8.2782 O   0  0  0  0  0  0  0  0  0  0  0  0
   14.4041   25.3386   -8.7461 H   0  0  0  0  0  0  0  0  0  0  0  0
 27 28  1  0  0  0
 28 29  2  0  0  0
 28 26  1  0  0  0
 26 22  1  0  0  0
 22 23  1  0  0  0
 23 24  2  0  0  0
 23  1  1  0  0  0
  1  2  2  0  0  0
  2  3  1  0  0  0
  2  4  1  0  0  0
  4  5  1  0  0  0
  5  6  1  0  0  0
  6  7  1  0  0  0
  7  8  2  0  0  0
  6 10  1  0  0  0
 10 11  2  0  0  0
 11 12  1  0  0  0
 12 13  2  0  0  0
 13 14  1  0  0  0
 14 15  2  0  0  0
 13 16  1  0  0  0
 16 17  2  0  0  0
 17 18  1  0  0  0
 18 19  2  0  0  0
 19 20  1  0  0  0
 20 21  2  0  0  0
  7  1  1  0  0  0
 15 10  1  0  0  0
 21 16  1  0  0  0
 27 30  1  0  0  0
 22 25  1  0  0  0
  3  9  1  0  0  0
M  END
> <minimizedAffinity>
0.81945

> <CNNscore>
0.4723663628

> <CNNaffinity>
5.9517359734

> <CNN_VS>
2.8113999367

> <CNNaffinity_variance>
0.3515231609

$$$$
[H]OC(=O)C([H])([H])N([H])C(=O)C1=C(O[H])C([H])([H])C([H])([H])N(c2c([H])c([H])c(-c3c([H])c([H])c([H])c([H])c3[H])c([H])c2[H])C1=O


 30 32  0  0  0  0  0  0  0  0999 V2000
   11.7133   21.2903    0.2623 C   0  0  0  0  0  0  0  0  0  0  0  0
   12.4925   20.2396    0.1418 C   0  0  0  0  0  0  0  0  0  0  0  0
   12.2802   19.1266    0.9187 O   0  0  0  0  0  0  0  0  0  0  0  0
   13.6295   20.1642   -0.8066 C   0  0  0  0  0  0  0  0  0  0  0  0
   13.2923   20.9661   -2.0299 C   0  0  0  0  0  0  0  0  0  0  0  0
   13.0636   22.3311   -1.5278 N   0  0  0  0  0  0  0  0  0  0  0  0
   11.9835   22.4683   -0.6295 C   0  0  0  0  0  0  0  0  0  0  0  0
   11.3153   23.5067   -0.5975 O   0  0  0  0  0  0  0  0  0  0  0  0
   11.8119   18.2838    0.5889 H   0  0  0  0  0  0  0  0  0  0  0  0
   13.8630   23.4100   -1.9224 C   0  0  0  0  0  0  0  0  0  0  0  0
   14.9275   23.8610   -1.2082 C   0  0  0  0  0  0  0  0  0  0  0  0
   15.6405   24.9364   -1.7014 C   0  0  0  0  0  0  0  0  0  0  0  0
   15.3365   25.5811   -2.8775 C   0  0  0  0  0  0  0  0  0  0  0  0
   14.2415   25.1069   -3.5994 C   0  0  0  0  0  0  0  0  0  0  0  0
   13.5151   24.0350   -3.1267 C   0  0  0  0  0  0  0  0  0  0  0  0
   16.1247   26.7146   -3.3541 C   0  0  0  0  0  0  0  0  0  0  0  0
   15.6383   27.5009   -4.3791 C   0  0  0  0  0  0  0  0  0  0  0  0
   16.3362   28.5848   -4.8708 C   0  0  0  0  0  0  0  0  0  0  0  0
   17.5597   28.9280   -4.3521 C   0  0  0  0  0  0  0  0  0  0  0  0
   18.0682   28.1561   -3.3255 C   0  0  0  0  0  0  0  0  0  0  0  0
   17.3547   27.0683   -2.8405 C   0  0  0  0  0  0  0  0  0  0  0  0
   10.5669   22.0227    2.4163 N   0  0  0  0  0  0  0  0  0  0  0  0
   10.6018   21.4128    1.1687 C   0  0  0  0  0  0  0  0  0  0  0  0
    9.4772   20.8955    0.7958 O   0  0  0  0  0  0  0  0  0  0  0  0
   11.3807   22.4769    2.8474 H   0  0  0  0  0  0  0  0  0  0  0  0
    9.3507   22.0711    3.2368 C   0  0  0  0  0  0  0  0  0  0  0  0
    9.5719   19.6040    3.3350 O   0  0  0  0  0  0  0  0  0  0  0  0
    9.0771   20.7687    3.8857 C   0  0  0  0  0  0  0  0  0  0  0  0
    8.4003   20.7041    4.9315 O   0  0  0  0  0  0  0  0  0  0  0  0
    9.0040   18.7950    3.1463 H   0  0  0  0  0  0  0  0  0  0  0  0
 27 28  1  0  0  0
 28 29  2  0  0  0
 28 26  1  0  0  0
 26 22  1  0  0  0
 22 23  1  0  0  0
 23 24  2  0  0  0
 23  1  1  0  0  0
  1  2  2  0  0  0
  2  3  1  0  0  0
  2  4  1  0  0  0
  4  5  1  0  0  0
  5  6  1  0  0  0
  6  7  1  0  0  0
  7  8  2  0  0  0
  6 10  1  0  0  0
 10 11  2  0  0  0
 11 12  1  0  0  0
 12 13  2  0  0  0
 13 14  1  0  0  0
 14 15  2  0  0  0
 13 16  1  0  0  0
 16 17  2  0  0  0
 17 18  1  0  0  0
 18 19  2  0  0  0
 19 20  1  0  0  0
 20 21  2  0  0  0
  7  1  1  0  0  0
 15 10  1  0  0  0
 21 16  1  0  0  0
 27 30  1  0  0  0
 22 25  1  0  0  0
  3  9  1  0  0  0
M  END
> <minimizedAffinity>
-1.19430

> <CNNscore>
0.4156710505

> <CNNaffinity>
6.0383934975

> <CNN_VS>
2.5099854469

> <CNNaffinity_variance>
0.4683837891

$$$$
[H]OC(=O)C([H])([H])N([H])C(=O)C1=C(O[H])C([H])([H])C([H])([H])N(c2c([H])c([H])c(-c3c([H])c([H])c([H])c([H])c3[H])c([H])c2[H])C1=O


 30 32  0  0  0  0  0  0  0  0999 V2000
   13.8210   24.9658   -3.0801 C   0  0  0  0  0  0  0  0  0  0  0  0
   13.2071   26.0813   -2.7567 C   0  0  0  0  0  0  0  0  0  0  0  0
   13.5800   27.2703   -3.3351 O   0  0  0  0  0  0  0  0  0  0  0  0
   12.0995   26.1546   -1.7740 C   0  0  0  0  0  0  0  0  0  0  0  0
   11.3091   24.8802   -1.8409 C   0  0  0  0  0  0  0  0  0  0  0  0
   12.2817   23.8226   -1.5198 N   0  0  0  0  0  0  0  0  0  0  0  0
   13.3540   23.6955   -2.4289 C   0  0  0  0  0  0  0  0  0  0  0  0
   13.8618   22.5931   -2.6579 O   0  0  0  0  0  0  0  0  0  0  0  0
   13.0727   27.7149   -4.0990 H   0  0  0  0  0  0  0  0  0  0  0  0
   12.1420   23.0040   -0.3933 C   0  0  0  0  0  0  0  0  0  0  0  0
   13.1256   22.8081    0.5237 C   0  0  0  0  0  0  0  0  0  0  0  0
   12.8677   21.9753    1.5951 C   0  0  0  0  0  0  0  0  0  0  0  0
   11.6695   21.3295    1.7908 C   0  0  0  0  0  0  0  0  0  0  0  0
   10.6696   21.5402    0.8416 C   0  0  0  0  0  0  0  0  0  0  0  0
   10.9043   22.3671   -0.2360 C   0  0  0  0  0  0  0  0  0  0  0  0
   11.4491   20.4590    2.9427 C   0  0  0  0  0  0  0  0  0  0  0  0
   10.5097   20.8083    3.8919 C   0  0  0  0  0  0  0  0  0  0  0  0
   10.2564   20.0265    5.0003 C   0  0  0  0  0  0  0  0  0  0  0  0
   10.9396   18.8539    5.2051 C   0  0  0  0  0  0  0  0  0  0  0  0
   11.8856   18.4827    4.2692 C   0  0  0  0  0  0  0  0  0  0  0  0
   12.1296   19.2791    3.1584 C   0  0  0  0  0  0  0  0  0  0  0  0
   14.9373   25.2447   -5.3531 N   0  0  0  0  0  0  0  0  0  0  0  0
   14.9014   24.8442   -4.0234 C   0  0  0  0  0  0  0  0  0  0  0  0
   15.9926   24.2934   -3.6022 O   0  0  0  0  0  0  0  0  0  0  0  0
   14.1479   25.6965   -5.8297 H   0  0  0  0  0  0  0  0  0  0  0  0
   16.1191   25.0544   -6.2026 C   0  0  0  0  0  0  0  0  0  0  0  0
   15.7650   25.3452   -8.6388 O   0  0  0  0  0  0  0  0  0  0  0  0
   16.0644   25.9048   -7.4133 C   0  0  0  0  0  0  0  0  0  0  0  0
   16.2865   27.1304   -7.3455 O   0  0  0  0  0  0  0  0  0  0  0  0
   16.3244   25.4846   -9.4636 H   0  0  0  0  0  0  0  0  0  0  0  0
 27 28  1  0  0  0
 28 29  2  0  0  0
 28 26  1  0  0  0
 26 22  1  0  0  0
 22 23  1  0  0  0
 23 24  2  0  0  0
 23  1  1  0  0  0
  1  2  2  0  0  0
  2  3  1  0  0  0
  2  4  1  0  0  0
  4  5  1  0  0  0
  5  6  1  0  0  0
  6  7  1  0  0  0
  7  8  2  0  0  0
  6 10  1  0  0  0
 10 11  2  0  0  0
 11 12  1  0  0  0
 12 13  2  0  0  0
 13 14  1  0  0  0
 14 15  2  0  0  0
 13 16  1  0  0  0
 16 17  2  0  0  0
 17 18  1  0  0  0
 18 19  2  0  0  0
 19 20  1  0  0  0
 20 21  2  0  0  0
  7  1  1  0  0  0
 15 10  1  0  0  0
 21 16  1  0  0  0
 27 30  1  0  0  0
 22 25  1  0  0  0
  3  9  1  0  0  0
M  END
> <minimizedAffinity>
-4.00418

> <CNNscore>
0.4148045182

> <CNNaffinity>
5.8869066238

> <CNN_VS>
2.4419155121

> <CNNaffinity_variance>
0.1222001687

$$$$
[H]OC(=O)C([H])([H])N([H])C(=O)C1=C(O[H])C([H])([H])C([H])([H])N(c2c([H])c([H])c(-c3c([H])c([H])c([H])c([H])c3[H])c([H])c2[H])C1=O


 30 32  0  0  0  0  0  0  0  0999 V2000
   11.8940   21.8469    1.2444 C   0  0  0  0  0  0  0  0  0  0  0  0
   12.8899   21.0696    1.6045 C   0  0  0  0  0  0  0  0  0  0  0  0
   12.8900   20.4712    2.8411 O   0  0  0  0  0  0  0  0  0  0  0  0
   14.0602   20.7806    0.7415 C   0  0  0  0  0  0  0  0  0  0  0  0
   13.6147   20.7783   -0.6920 C   0  0  0  0  0  0  0  0  0  0  0  0
   13.0676   22.1271   -0.9131 N   0  0  0  0  0  0  0  0  0  0  0  0
   11.9416   22.4556   -0.1279 C   0  0  0  0  0  0  0  0  0  0  0  0
   11.0609   23.2026   -0.5661 O   0  0  0  0  0  0  0  0  0  0  0  0
   12.6347   19.4978    3.0019 H   0  0  0  0  0  0  0  0  0  0  0  0
   13.6287   23.0118   -1.8411 C   0  0  0  0  0  0  0  0  0  0  0  0
   14.6870   22.7014   -2.6350 C   0  0  0  0  0  0  0  0  0  0  0  0
   15.1524   23.6609   -3.5131 C   0  0  0  0  0  0  0  0  0  0  0  0
   14.6065   24.9173   -3.6329 C   0  0  0  0  0  0  0  0  0  0  0  0
   13.5210   25.2213   -2.8116 C   0  0  0  0  0  0  0  0  0  0  0  0
   13.0394   24.2797   -1.9277 C   0  0  0  0  0  0  0  0  0  0  0  0
   15.1378   25.8950   -4.5790 C   0  0  0  0  0  0  0  0  0  0  0  0
   15.1667   25.5949   -5.9260 C   0  0  0  0  0  0  0  0  0  0  0  0
   15.6554   26.4776   -6.8671 C   0  0  0  0  0  0  0  0  0  0  0  0
   16.1395   27.7066   -6.4944 C   0  0  0  0  0  0  0  0  0  0  0  0
   16.1218   28.0304   -5.1515 C   0  0  0  0  0  0  0  0  0  0  0  0
   15.6267   27.1322   -4.2157 C   0  0  0  0  0  0  0  0  0  0  0  0
    9.8238   21.2882    2.6201 N   0  0  0  0  0  0  0  0  0  0  0  0
   10.7403   22.1602    2.0460 C   0  0  0  0  0  0  0  0  0  0  0  0
   10.5042   23.4103    2.2764 O   0  0  0  0  0  0  0  0  0  0  0  0
    9.8781   20.2672    2.5259 H   0  0  0  0  0  0  0  0  0  0  0  0
    8.6849   21.7551    3.4198 C   0  0  0  0  0  0  0  0  0  0  0  0
    7.3627   21.1155    5.4168 O   0  0  0  0  0  0  0  0  0  0  0  0
    8.3711   20.8184    4.5227 C   0  0  0  0  0  0  0  0  0  0  0  0
    9.0082   19.7548    4.6602 O   0  0  0  0  0  0  0  0  0  0  0  0
    7.4823   21.0914    6.4157 H   0  0  0  0  0  0  0  0  0  0  0  0
 27 28  1  0  0  0
 28 29  2  0  0  0
 28 26  1  0  0  0
 26 22  1  0  0  0
 22 23  1  0  0  0
 23 24  2  0  0  0
 23  1  1  0  0  0
  1  2  2  0  0  0
  2  3  1  0  0  0
  2  4  1  0  0  0
  4  5  1  0  0  0
  5  6  1  0  0  0
  6  7  1  0  0  0
  7  8  2  0  0  0
  6 10  1  0  0  0
 10 11  2  0  0  0
 11 12  1  0  0  0
 12 13  2  0  0  0
 13 14  1  0  0  0
 14 15  2  0  0  0
 13 16  1  0  0  0
 16 17  2  0  0  0
 17 18  1  0  0  0
 18 19  2  0  0  0
 19 20  1  0  0  0
 20 21  2  0  0  0
  7  1  1  0  0  0
 15 10  1  0  0  0
 21 16  1  0  0  0
 27 30  1  0  0  0
 22 25  1  0  0  0
  3  9  1  0  0  0
M  END
> <minimizedAffinity>
-9.43915

> <CNNscore>
0.3963081837

> <CNNaffinity>
6.0454831123

> <CNN_VS>
2.3958745003

> <CNNaffinity_variance>
0.0256879441

$$$$
[H]OC(=O)C([H])([H])N([H])C(=O)C1=C(O[H])C([H])([H])C([H])([H])N(c2c([H])c([H])c(-c3c([H])c([H])c([H])c([H])c3[H])c([H])c2[H])C1=O


 30 32  0  0  0  0  0  0  0  0999 V2000
   11.2138   22.2511    1.9173 C   0  0  0  0  0  0  0  0  0  0  0  0
   12.1203   21.3173    2.0967 C   0  0  0  0  0  0  0  0  0  0  0  0
   12.1483   20.5938    3.2642 O   0  0  0  0  0  0  0  0  0  0  0  0
   13.1568   20.9748    1.0936 C   0  0  0  0  0  0  0  0  0  0  0  0
   12.5883   21.1851   -0.2797 C   0  0  0  0  0  0  0  0  0  0  0  0
   12.2164   22.6092   -0.3138 N   0  0  0  0  0  0  0  0  0  0  0  0
   11.2221   22.9934    0.6116 C   0  0  0  0  0  0  0  0  0  0  0  0
   10.4180   23.8908    0.3399 O   0  0  0  0  0  0  0  0  0  0  0  0
   11.7757   19.6498    3.3572 H   0  0  0  0  0  0  0  0  0  0  0  0
   12.8093   23.5093   -1.2065 C   0  0  0  0  0  0  0  0  0  0  0  0
   12.2809   24.7220   -1.5175 C   0  0  0  0  0  0  0  0  0  0  0  0
   12.9601   25.5232   -2.4147 C   0  0  0  0  0  0  0  0  0  0  0  0
   14.1446   25.1658   -3.0149 C   0  0  0  0  0  0  0  0  0  0  0  0
   14.6747   23.9184   -2.6859 C   0  0  0  0  0  0  0  0  0  0  0  0
   14.0144   23.1018   -1.7930 C   0  0  0  0  0  0  0  0  0  0  0  0
   14.8224   26.0522   -3.9573 C   0  0  0  0  0  0  0  0  0  0  0  0
   15.8788   26.8283   -3.5249 C   0  0  0  0  0  0  0  0  0  0  0  0
   16.5584   27.6832   -4.3682 C   0  0  0  0  0  0  0  0  0  0  0  0
   16.2045   27.7970   -5.6894 C   0  0  0  0  0  0  0  0  0  0  0  0
   15.1497   27.0307   -6.1462 C   0  0  0  0  0  0  0  0  0  0  0  0
   14.4751   26.1744   -5.2863 C   0  0  0  0  0  0  0  0  0  0  0  0
    9.8280   23.8936    3.2856 N   0  0  0  0  0  0  0  0  0  0  0  0
   10.1916   22.6221    2.8603 C   0  0  0  0  0  0  0  0  0  0  0  0
    9.5078   21.6644    3.3958 O   0  0  0  0  0  0  0  0  0  0  0  0
   10.2791   24.7531    2.9505 H   0  0  0  0  0  0  0  0  0  0  0  0
    8.7562   24.1224    4.2620 C   0  0  0  0  0  0  0  0  0  0  0  0
    6.6977   23.1114    3.3210 O   0  0  0  0  0  0  0  0  0  0  0  0
    7.4349   24.2430    3.6049 C   0  0  0  0  0  0  0  0  0  0  0  0
    6.9712   25.3600    3.2996 O   0  0  0  0  0  0  0  0  0  0  0  0
    6.3087   22.9161    2.4137 H   0  0  0  0  0  0  0  0  0  0  0  0
 27 28  1  0  0  0
 28 29  2  0  0  0
 28 26  1  0  0  0
 26 22  1  0  0  0
 22 23  1  0  0  0
 23 24  2  0  0  0
 23  1  1  0  0  0
  1  2  2  0  0  0
  2  3  1  0  0  0
  2  4  1  0  0  0
  4  5  1  0  0  0
  5  6  1  0  0  0
  6  7  1  0  0  0
  7  8  2  0  0  0
  6 10  1  0  0  0
 10 11  2  0  0  0
 11 12  1  0  0  0
 12 13  2  0  0  0
 13 14  1  0  0  0
 14 15  2  0  0  0
 13 16  1  0  0  0
 16 17  2  0  0  0
 17 18  1  0  0  0
 18 19  2  0  0  0
 19 20  1  0  0  0
 20 21  2  0  0  0
  7  1  1  0  0  0
 15 10  1  0  0  0
 21 16  1  0  0  0
 27 30  1  0  0  0
 22 25  1  0  0  0
  3  9  1  0  0  0
M  END
> <minimizedAffinity>
-10.21692

> <CNNscore>
0.3735459745

> <CNNaffinity>
5.8900847435

> <CNN_VS>
2.2002174854

> <CNNaffinity_variance>
0.0954648554

$$$$
[H]OC(=O)C([H])([H])N([H])C(=O)C1=C(O[H])C([H])([H])C([H])([H])N(c2c([H])c([H])c(-c3c([H])c([H])c([H])c([H])c3[H])c([H])c2[H])C1=O


 30 32  0  0  0  0  0  0  0  0999 V2000
   11.2580   22.2278    1.9356 C   0  0  0  0  0  0  0  0  0  0  0  0
   12.1538   21.2810    2.0993 C   0  0  0  0  0  0  0  0  0  0  0  0
   12.1801   20.5450    3.2590 O   0  0  0  0  0  0  0  0  0  0  0  0
   13.1794   20.9360    1.0859 C   0  0  0  0  0  0  0  0  0  0  0  0
   12.6048   21.1677   -0.2813 C   0  0  0  0  0  0  0  0  0  0  0  0
   12.2506   22.5967   -0.2982 N   0  0  0  0  0  0  0  0  0  0  0  0
   11.2672   22.9835    0.6376 C   0  0  0  0  0  0  0  0  0  0  0  0
   10.4727   23.8937    0.3806 O   0  0  0  0  0  0  0  0  0  0  0  0
   11.7963   19.6048    3.3447 H   0  0  0  0  0  0  0  0  0  0  0  0
   12.8490   23.4985   -1.1854 C   0  0  0  0  0  0  0  0  0  0  0  0
   12.3136   24.7044   -1.5109 C   0  0  0  0  0  0  0  0  0  0  0  0
   12.9994   25.5083   -2.4007 C   0  0  0  0  0  0  0  0  0  0  0  0
   14.1972   25.1601   -2.9795 C   0  0  0  0  0  0  0  0  0  0  0  0
   14.7343   23.9197   -2.6359 C   0  0  0  0  0  0  0  0  0  0  0  0
   14.0677   23.1006   -1.7500 C   0  0  0  0  0  0  0  0  0  0  0  0
   14.8814   26.0489   -3.9150 C   0  0  0  0  0  0  0  0  0  0  0  0
   14.4644   26.1074   -5.2296 C   0  0  0  0  0  0  0  0  0  0  0  0
   15.0702   26.9279   -6.1588 C   0  0  0  0  0  0  0  0  0  0  0  0
   16.1272   27.7295   -5.8066 C   0  0  0  0  0  0  0  0  0  0  0  0
   16.5636   27.6885   -4.4965 C   0  0  0  0  0  0  0  0  0  0  0  0
   15.9441   26.8582   -3.5721 C   0  0  0  0  0  0  0  0  0  0  0  0
    9.8250   23.8760    3.2474 N   0  0  0  0  0  0  0  0  0  0  0  0
   10.2465   22.6017    2.8890 C   0  0  0  0  0  0  0  0  0  0  0  0
    9.6353   21.6441    3.5062 O   0  0  0  0  0  0  0  0  0  0  0  0
   10.2159   24.7357    2.8444 H   0  0  0  0  0  0  0  0  0  0  0  0
    8.7733   24.1075    4.2448 C   0  0  0  0  0  0  0  0  0  0  0  0
    7.2847   25.5221    2.8561 O   0  0  0  0  0  0  0  0  0  0  0  0
    7.4650   24.3779    3.6065 C   0  0  0  0  0  0  0  0  0  0  0  0
    6.5128   23.5827    3.7361 O   0  0  0  0  0  0  0  0  0  0  0  0
    6.5190   26.1605    2.9936 H   0  0  0  0  0  0  0  0  0  0  0  0
 27 28  1  0  0  0
 28 29  2  0  0  0
 28 26  1  0  0  0
 26 22  1  0  0  0
 22 23  1  0  0  0
 23 24  2  0  0  0
 23  1  1  0  0  0
  1  2  2  0  0  0
  2  3  1  0  0  0
  2  4  1  0  0  0
  4  5  1  0  0  0
  5  6  1  0  0  0
  6  7  1  0  0  0
  7  8  2  0  0  0
  6 10  1  0  0  0
 10 11  2  0  0  0
 11 12  1  0  0  0
 12 13  2  0  0  0
 13 14  1  0  0  0
 14 15  2  0  0  0
 13 16  1  0  0  0
 16 17  2  0  0  0
 17 18  1  0  0  0
 18 19  2  0  0  0
 19 20  1  0  0  0
 20 21  2  0  0  0
  7  1  1  0  0  0
 15 10  1  0  0  0
 21 16  1  0  0  0
 27 30  1  0  0  0
 22 25  1  0  0  0
  3  9  1  0  0  0
M  END
> <minimizedAffinity>
-10.18437

> <CNNscore>
0.3658685088

> <CNNaffinity>
5.8556203842

> <CNN_VS>
2.1423871517

> <CNNaffinity_variance>
0.1190296188

$$$$
[H]OC(=O)C([H])([H])N([H])C(=O)C1=C(O[H])C([H])([H])C([H])([H])N(c2c([H])c([H])c(-c3c([H])c([H])c([H])c([H])c3[H])c([H])c2[H])C1=O


 30 32  0  0  0  0  0  0  0  0999 V2000
   15.8983   26.8017   -3.5048 C   0  0  0  0  0  0  0  0  0  0  0  0
   14.9878   26.9965   -4.4315 C   0  0  0  0  0  0  0  0  0  0  0  0
   15.1551   27.9854   -5.3704 O   0  0  0  0  0  0  0  0  0  0  0  0
   13.7437   26.1978   -4.5418 C   0  0  0  0  0  0  0  0  0  0  0  0
   14.0256   24.7979   -4.0794 C   0  0  0  0  0  0  0  0  0  0  0  0
   14.4786   24.9507   -2.6869 N   0  0  0  0  0  0  0  0  0  0  0  0
   15.6681   25.6919   -2.5193 C   0  0  0  0  0  0  0  0  0  0  0  0
   16.4570   25.4243   -1.6073 O   0  0  0  0  0  0  0  0  0  0  0  0
   15.4736   27.8165   -6.3236 H   0  0  0  0  0  0  0  0  0  0  0  0
   13.7750   24.3935   -1.6130 C   0  0  0  0  0  0  0  0  0  0  0  0
   14.0364   23.1641   -1.0963 C   0  0  0  0  0  0  0  0  0  0  0  0
   13.2716   22.7224   -0.0342 C   0  0  0  0  0  0  0  0  0  0  0  0
   12.2567   23.4555    0.5346 C   0  0  0  0  0  0  0  0  0  0  0  0
   12.0001   24.7152   -0.0062 C   0  0  0  0  0  0  0  0  0  0  0  0
   12.7505   25.1769   -1.0663 C   0  0  0  0  0  0  0  0  0  0  0  0
   11.4782   22.9406    1.6580 C   0  0  0  0  0  0  0  0  0  0  0  0
   11.8833   21.7857    2.2963 C   0  0  0  0  0  0  0  0  0  0  0  0
   11.1901   21.2516    3.3631 C   0  0  0  0  0  0  0  0  0  0  0  0
   10.0534   21.8571    3.8376 C   0  0  0  0  0  0  0  0  0  0  0  0
    9.6271   23.0143    3.2149 C   0  0  0  0  0  0  0  0  0  0  0  0
   10.3350   23.5405    2.1426 C   0  0  0  0  0  0  0  0  0  0  0  0
   18.1090   27.7884   -4.2984 N   0  0  0  0  0  0  0  0  0  0  0  0
   17.1180   27.5512   -3.3543 C   0  0  0  0  0  0  0  0  0  0  0  0
   17.3440   28.0836   -2.1980 O   0  0  0  0  0  0  0  0  0  0  0  0
   18.0715   27.4313   -5.2605 H   0  0  0  0  0  0  0  0  0  0  0  0
   19.3098   28.5782   -4.0002 C   0  0  0  0  0  0  0  0  0  0  0  0
   21.3003   27.3126   -4.7625 O   0  0  0  0  0  0  0  0  0  0  0  0
   20.4795   27.7125   -3.7276 C   0  0  0  0  0  0  0  0  0  0  0  0
   20.7393   27.3336   -2.5679 O   0  0  0  0  0  0  0  0  0  0  0  0
   21.5580   26.3539   -4.9272 H   0  0  0  0  0  0  0  0  0  0  0  0
 27 28  1  0  0  0
 28 29  2  0  0  0
 28 26  1  0  0  0
 26 22  1  0  0  0
 22 23  1  0  0  0
 23 24  2  0  0  0
 23  1  1  0  0  0
  1  2  2  0  0  0
  2  3  1  0  0  0
  2  4  1  0  0  0
  4  5  1  0  0  0
  5  6  1  0  0  0
  6  7  1  0  0  0
  7  8  2  0  0  0
  6 10  1  0  0  0
 10 11  2  0  0  0
 11 12  1  0  0  0
 12 13  2  0  0  0
 13 14  1  0  0  0
 14 15  2  0  0  0
 13 16  1  0  0  0
 16 17  2  0  0  0
 17 18  1  0  0  0
 18 19  2  0  0  0
 19 20  1  0  0  0
 20 21  2  0  0  0
  7  1  1  0  0  0
 15 10  1  0  0  0
 21 16  1  0  0  0
 27 30  1  0  0  0
 22 25  1  0  0  0
  3  9  1  0  0  0
M  END
> <minimizedAffinity>
-1.48986

> <CNNscore>
0.3206505477

> <CNNaffinity>
6.0855507851

> <CNN_VS>
1.9513351917

> <CNNaffinity_variance>
0.4056309164

$$$$
[H]OC(=O)C([H])([H])N([H])C(=O)C1=C(O[H])C([H])([H])C([H])([H])N(c2c([H])c([H])c(-c3c([H])c([H])c([H])c([H])c3[H])c([H])c2[H])C1=O


 30 32  0  0  0  0  0  0  0  0999 V2000
   11.7095   21.1295    0.5896 C   0  0  0  0  0  0  0  0  0  0  0  0
   12.7134   20.8525    1.3903 C   0  0  0  0  0  0  0  0  0  0  0  0
   12.4780   20.3916    2.6629 O   0  0  0  0  0  0  0  0  0  0  0  0
   14.1371   21.0084    1.0074 C   0  0  0  0  0  0  0  0  0  0  0  0
   14.2761   20.7274   -0.4606 C   0  0  0  0  0  0  0  0  0  0  0  0
   13.4029   21.7173   -1.1127 N   0  0  0  0  0  0  0  0  0  0  0  0
   12.0314   21.6101   -0.7965 C   0  0  0  0  0  0  0  0  0  0  0  0
   11.1659   21.9012   -1.6283 O   0  0  0  0  0  0  0  0  0  0  0  0
   12.5488   19.4121    2.9351 H   0  0  0  0  0  0  0  0  0  0  0  0
   13.9059   22.6887   -1.9855 C   0  0  0  0  0  0  0  0  0  0  0  0
   14.8537   22.4392   -2.9268 C   0  0  0  0  0  0  0  0  0  0  0  0
   15.2711   23.4823   -3.7304 C   0  0  0  0  0  0  0  0  0  0  0  0
   14.7827   24.7642   -3.6350 C   0  0  0  0  0  0  0  0  0  0  0  0
   13.8105   25.0051   -2.6645 C   0  0  0  0  0  0  0  0  0  0  0  0
   13.3786   23.9795   -1.8510 C   0  0  0  0  0  0  0  0  0  0  0  0
   15.2591   25.8313   -4.5112 C   0  0  0  0  0  0  0  0  0  0  0  0
   15.8192   26.9667   -3.9611 C   0  0  0  0  0  0  0  0  0  0  0  0
   16.2876   28.0071   -4.7369 C   0  0  0  0  0  0  0  0  0  0  0  0
   16.2132   27.9526   -6.1063 C   0  0  0  0  0  0  0  0  0  0  0  0
   15.6561   26.8265   -6.6809 C   0  0  0  0  0  0  0  0  0  0  0  0
   15.1892   25.7871   -5.8877 C   0  0  0  0  0  0  0  0  0  0  0  0
    9.2433   20.7730    0.0592 N   0  0  0  0  0  0  0  0  0  0  0  0
   10.3136   20.9983    0.9156 C   0  0  0  0  0  0  0  0  0  0  0  0
    9.9873   21.0996    2.1625 O   0  0  0  0  0  0  0  0  0  0  0  0
    9.3436   20.6707   -0.9576 H   0  0  0  0  0  0  0  0  0  0  0  0
    7.8602   20.6609    0.5378 C   0  0  0  0  0  0  0  0  0  0  0  0
    6.1059   22.0712   -0.5010 O   0  0  0  0  0  0  0  0  0  0  0  0
    7.1328   21.9444    0.4123 C   0  0  0  0  0  0  0  0  0  0  0  0
    7.4344   22.9235    1.1239 O   0  0  0  0  0  0  0  0  0  0  0  0
    6.0489   22.8200   -1.1709 H   0  0  0  0  0  0  0  0  0  0  0  0
 27 28  1  0  0  0
 28 29  2  0  0  0
 28 26  1  0  0  0
 26 22  1  0  0  0
 22 23  1  0  0  0
 23 24  2  0  0  0
 23  1  1  0  0  0
  1  2  2  0  0  0
  2  3  1  0  0  0
  2  4  1  0  0  0
  4  5  1  0  0  0
  5  6  1  0  0  0
  6  7  1  0  0  0
  7  8  2  0  0  0
  6 10  1  0  0  0
 10 11  2  0  0  0
 11 12  1  0  0  0
 12 13  2  0  0  0
 13 14  1  0  0  0
 14 15  2  0  0  0
 13 16  1  0  0  0
 16 17  2  0  0  0
 17 18  1  0  0  0
 18 19  2  0  0  0
 19 20  1  0  0  0
 20 21  2  0  0  0
  7  1  1  0  0  0
 15 10  1  0  0  0
 21 16  1  0  0  0
 27 30  1  0  0  0
 22 25  1  0  0  0
  3  9  1  0  0  0
M  END
> <minimizedAffinity>
-10.12253

> <CNNscore>
0.3172056377

> <CNNaffinity>
6.1336607933

> <CNN_VS>
1.9456317425

> <CNNaffinity_variance>
0.0223927535

$$$$
[H]OC(=O)C([H])([H])N([H])C(=O)C1=C(O[H])C([H])([H])C([H])([H])N(c2c([H])c([H])c(-c3c([H])c([H])c([H])c([H])c3[H])c([H])c2[H])C1=O


 30 32  0  0  0  0  0  0  0  0999 V2000
   14.6778   23.5757   -1.9409 C   0  0  0  0  0  0  0  0  0  0  0  0
   14.4747   22.3533   -2.3772 C   0  0  0  0  0  0  0  0  0  0  0  0
   15.0291   21.9401   -3.5643 O   0  0  0  0  0  0  0  0  0  0  0  0
   13.6580   21.3483   -1.6555 C   0  0  0  0  0  0  0  0  0  0  0  0
   13.7980   21.5818   -0.1793 C   0  0  0  0  0  0  0  0  0  0  0  0
   13.3148   22.9573    0.0266 N   0  0  0  0  0  0  0  0  0  0  0  0
   14.0621   23.9612   -0.6263 C   0  0  0  0  0  0  0  0  0  0  0  0
   14.1869   25.0834   -0.1255 O   0  0  0  0  0  0  0  0  0  0  0  0
   15.8684   21.3659   -3.6306 H   0  0  0  0  0  0  0  0  0  0  0  0
   12.1959   23.2394    0.8185 C   0  0  0  0  0  0  0  0  0  0  0  0
   11.4625   24.3783    0.7099 C   0  0  0  0  0  0  0  0  0  0  0  0
   10.3781   24.5431    1.5495 C   0  0  0  0  0  0  0  0  0  0  0  0
    9.9940   23.6194    2.4932 C   0  0  0  0  0  0  0  0  0  0  0  0
   10.7562   22.4557    2.5929 C   0  0  0  0  0  0  0  0  0  0  0  0
   11.8428   22.2695    1.7654 C   0  0  0  0  0  0  0  0  0  0  0  0
    8.8374   23.8437    3.3563 C   0  0  0  0  0  0  0  0  0  0  0  0
    8.0187   24.9320    3.1309 C   0  0  0  0  0  0  0  0  0  0  0  0
    6.9117   25.1953    3.9113 C   0  0  0  0  0  0  0  0  0  0  0  0
    6.5772   24.3731    4.9581 C   0  0  0  0  0  0  0  0  0  0  0  0
    7.3815   23.2772    5.2044 C   0  0  0  0  0  0  0  0  0  0  0  0
    8.4921   23.0244    4.4105 C   0  0  0  0  0  0  0  0  0  0  0  0
   15.0568   25.8456   -3.0337 N   0  0  0  0  0  0  0  0  0  0  0  0
   15.4579   24.5864   -2.6055 C   0  0  0  0  0  0  0  0  0  0  0  0
   16.6976   24.3104   -2.8469 O   0  0  0  0  0  0  0  0  0  0  0  0
   14.1034   26.2075   -2.9130 H   0  0  0  0  0  0  0  0  0  0  0  0
   15.9702   26.7789   -3.7040 C   0  0  0  0  0  0  0  0  0  0  0  0
   15.8619   28.5843   -5.3992 O   0  0  0  0  0  0  0  0  0  0  0  0
   15.3310   27.4240   -4.8733 C   0  0  0  0  0  0  0  0  0  0  0  0
   14.3109   26.9333   -5.3972 O   0  0  0  0  0  0  0  0  0  0  0  0
   15.3186   29.4131   -5.5743 H   0  0  0  0  0  0  0  0  0  0  0  0
 27 28  1  0  0  0
 28 29  2  0  0  0
 28 26  1  0  0  0
 26 22  1  0  0  0
 22 23  1  0  0  0
 23 24  2  0  0  0
 23  1  1  0  0  0
  1  2  2  0  0  0
  2  3  1  0  0  0
  2  4  1  0  0  0
  4  5  1  0  0  0
  5  6  1  0  0  0
  6  7  1  0  0  0
  7  8  2  0  0  0
  6 10  1  0  0  0
 10 11  2  0  0  0
 11 12  1  0  0  0
 12 13  2  0  0  0
 13 14  1  0  0  0
 14 15  2  0  0  0
 13 16  1  0  0  0
 16 17  2  0  0  0
 17 18  1  0  0  0
 18 19  2  0  0  0
 19 20  1  0  0  0
 20 21  2  0  0  0
  7  1  1  0  0  0
 15 10  1  0  0  0
 21 16  1  0  0  0
 27 30  1  0  0  0
 22 25  1  0  0  0
  3  9  1  0  0  0
M  END
> <minimizedAffinity>
-8.64046

> <CNNscore>
0.2748588026

> <CNNaffinity>
6.0671553612

> <CNN_VS>
1.6676110029

> <CNNaffinity_variance>
0.0854940489

$$$$
[H]OC(=O)c1c([H])c([H])c([H])c(O[H])c1[H]


 12 12  0  0  0  0  0  0  0  0999 V2000
   15.1230   26.5181   -4.2821 C   0  0  0  0  0  0  0  0  0  0  0  0
   13.9273   25.9014   -3.9195 C   0  0  0  0  0  0  0  0  0  0  0  0
   13.8045   25.0906   -2.8175 C   0  0  0  0  0  0  0  0  0  0  0  0
   14.8888   24.8487   -2.0050 C   0  0  0  0  0  0  0  0  0  0  0  0
   16.0765   25.4560   -2.3577 C   0  0  0  0  0  0  0  0  0  0  0  0
   17.1708   25.2052   -1.5282 O   0  0  0  0  0  0  0  0  0  0  0  0
   16.2034   26.2690   -3.4611 C   0  0  0  0  0  0  0  0  0  0  0  0
   17.7358   24.4047   -1.7717 H   0  0  0  0  0  0  0  0  0  0  0  0
   15.8435   28.5962   -5.3860 O   0  0  0  0  0  0  0  0  0  0  0  0
   15.2112   27.3705   -5.4585 C   0  0  0  0  0  0  0  0  0  0  0  0
   14.7201   27.0026   -6.5321 O   0  0  0  0  0  0  0  0  0  0  0  0
   15.2869   29.3718   -4.9941 H   0  0  0  0  0  0  0  0  0  0  0  0
  9 10  1  0  0  0
 10 11  2  0  0  0
 10  1  1  0  0  0
  1  2  2  0  0  0
  2  3  1  0  0  0
  3  4  2  0  0  0
  4  5  1  0  0  0
  5  6  1  0  0  0
  5  7  2  0  0  0
  7  1  1  0  0  0
  9 12  1  0  0  0
  6  8  1  0  0  0
M  END
> <minimizedAffinity>
-5.99870

> <CNNscore>
0.7940387130

> <CNNaffinity>
3.9661736488

> <CNN_VS>
3.1492953300

> <CNNaffinity_variance>
0.2323664129

$$$$
[H]OC(=O)c1c([H])c([H])c([H])c(O[H])c1[H]


 12 12  0  0  0  0  0  0  0  0999 V2000
   14.0194   25.5351   -3.6590 C   0  0  0  0  0  0  0  0  0  0  0  0
   14.9901   24.6036   -4.0216 C   0  0  0  0  0  0  0  0  0  0  0  0
   15.2324   23.4552   -3.3081 C   0  0  0  0  0  0  0  0  0  0  0  0
   14.5052   23.1714   -2.1745 C   0  0  0  0  0  0  0  0  0  0  0  0
   13.5420   24.0893   -1.8091 C   0  0  0  0  0  0  0  0  0  0  0  0
   12.8092   23.7937   -0.6584 O   0  0  0  0  0  0  0  0  0  0  0  0
   13.2963   25.2412   -2.5215 C   0  0  0  0  0  0  0  0  0  0  0  0
   13.1895   24.1421    0.2096 H   0  0  0  0  0  0  0  0  0  0  0  0
   14.7599   27.1934   -5.3198 O   0  0  0  0  0  0  0  0  0  0  0  0
   13.7938   26.7406   -4.4429 C   0  0  0  0  0  0  0  0  0  0  0  0
   12.7343   27.3681   -4.3289 O   0  0  0  0  0  0  0  0  0  0  0  0
   15.5336   27.7345   -4.9031 H   0  0  0  0  0  0  0  0  0  0  0  0
  9 10  1  0  0  0
 10 11  2  0  0  0
 10  1  1  0  0  0
  1  2  2  0  0  0
  2  3  1  0  0  0
  3  4  2  0  0  0
  4  5  1  0  0  0
  5  6  1  0  0  0
  5  7  2  0  0  0
  7  1  1  0  0  0
  9 12  1  0  0  0
  6  8  1  0  0  0
M  END
> <minimizedAffinity>
-5.78851

> <CNNscore>
0.7937451005

> <CNNaffinity>
3.9216017723

> <CNN_VS>
3.1127521992

> <CNNaffinity_variance>
0.1996860951

$$$$
[H]OC(=O)c1c([H])c([H])c([H])c(O[H])c1[H]


 12 12  0  0  0  0  0  0  0  0999 V2000
   15.8912   26.6292   -4.4063 C   0  0  0  0  0  0  0  0  0  0  0  0
   16.6719   26.9396   -3.2947 C   0  0  0  0  0  0  0  0  0  0  0  0
   16.7499   26.1357   -2.1837 C   0  0  0  0  0  0  0  0  0  0  0  0
   16.0396   24.9583   -2.1231 C   0  0  0  0  0  0  0  0  0  0  0  0
   15.2642   24.6441   -3.2202 C   0  0  0  0  0  0  0  0  0  0  0  0
   14.5473   23.4484   -3.1504 O   0  0  0  0  0  0  0  0  0  0  0  0
   15.1834   25.4472   -4.3353 C   0  0  0  0  0  0  0  0  0  0  0  0
   13.6188   23.5118   -2.7590 H   0  0  0  0  0  0  0  0  0  0  0  0
   15.8401   28.8801   -5.4000 O   0  0  0  0  0  0  0  0  0  0  0  0
   15.8358   27.5089   -5.5646 C   0  0  0  0  0  0  0  0  0  0  0  0
   15.7847   27.0338   -6.7052 O   0  0  0  0  0  0  0  0  0  0  0  0
   14.9339   29.3114   -5.1596 H   0  0  0  0  0  0  0  0  0  0  0  0
  9 10  1  0  0  0
 10 11  2  0  0  0
 10  1  1  0  0  0
  1  2  2  0  0  0
  2  3  1  0  0  0
  3  4  2  0  0  0
  4  5  1  0  0  0
  5  6  1  0  0  0
  5  7  2  0  0  0
  7  1  1  0  0  0
  9 12  1  0  0  0
  6  8  1  0  0  0
M  END
> <minimizedAffinity>
-6.26428

> <CNNscore>
0.7539404631

> <CNNaffinity>
3.9680969715

> <CNN_VS>
2.9917087555

> <CNNaffinity_variance>
0.1796362698

$$$$
[H]OC(=O)c1c([H])c([H])c([H])c(O[H])c1[H]


 12 12  0  0  0  0  0  0  0  0999 V2000
   14.6908   26.1391   -4.7363 C   0  0  0  0  0  0  0  0  0  0  0  0
   13.6571   26.7227   -4.0067 C   0  0  0  0  0  0  0  0  0  0  0  0
   13.0457   26.1038   -2.9438 C   0  0  0  0  0  0  0  0  0  0  0  0
   13.4415   24.8469   -2.5463 C   0  0  0  0  0  0  0  0  0  0  0  0
   14.4647   24.2625   -3.2641 C   0  0  0  0  0  0  0  0  0  0  0  0
   14.8597   22.9879   -2.8542 O   0  0  0  0  0  0  0  0  0  0  0  0
   15.0798   24.8795   -4.3298 C   0  0  0  0  0  0  0  0  0  0  0  0
   14.3777   22.2146   -3.2889 H   0  0  0  0  0  0  0  0  0  0  0  0
   15.5195   26.1709   -7.0534 O   0  0  0  0  0  0  0  0  0  0  0  0
   15.3126   26.8291   -5.8570 C   0  0  0  0  0  0  0  0  0  0  0  0
   15.6600   28.0106   -5.7453 O   0  0  0  0  0  0  0  0  0  0  0  0
   16.3527   25.5639   -7.0995 H   0  0  0  0  0  0  0  0  0  0  0  0
  9 10  1  0  0  0
 10 11  2  0  0  0
 10  1  1  0  0  0
  1  2  2  0  0  0
  2  3  1  0  0  0
  3  4  2  0  0  0
  4  5  1  0  0  0
  5  6  1  0  0  0
  5  7  2  0  0  0
  7  1  1  0  0  0
  9 12  1  0  0  0
  6  8  1  0  0  0
M  END
> <minimizedAffinity>
-6.47777

> <CNNscore>
0.7281792164

> <CNNaffinity>
3.8465740681

> <CNN_VS>
2.8009953499

> <CNNaffinity_variance>
0.1190365925

$$$$
[H]OC(=O)c1c([H])c([H])c([H])c(O[H])c1[H]


 12 12  0  0  0  0  0  0  0  0999 V2000
   14.9153   26.3633   -4.7655 C   0  0  0  0  0  0  0  0  0  0  0  0
   13.8445   26.8453   -4.0156 C   0  0  0  0  0  0  0  0  0  0  0  0
   13.2021   26.0991   -3.0579 C   0  0  0  0  0  0  0  0  0  0  0  0
   13.6024   24.8089   -2.7939 C   0  0  0  0  0  0  0  0  0  0  0  0
   14.6623   24.3245   -3.5327 C   0  0  0  0  0  0  0  0  0  0  0  0
   15.0617   23.0154   -3.2585 O   0  0  0  0  0  0  0  0  0  0  0  0
   15.3085   25.0693   -4.4932 C   0  0  0  0  0  0  0  0  0  0  0  0
   14.6097   22.2928   -3.7996 H   0  0  0  0  0  0  0  0  0  0  0  0
   15.8906   28.5014   -5.4960 O   0  0  0  0  0  0  0  0  0  0  0  0
   15.5691   27.1869   -5.7718 C   0  0  0  0  0  0  0  0  0  0  0  0
   15.8416   26.7147   -6.8818 O   0  0  0  0  0  0  0  0  0  0  0  0
   15.1228   29.1850   -5.5854 H   0  0  0  0  0  0  0  0  0  0  0  0
  9 10  1  0  0  0
 10 11  2  0  0  0
 10  1  1  0  0  0
  1  2  2  0  0  0
  2  3  1  0  0  0
  3  4  2  0  0  0
  4  5  1  0  0  0
  5  6  1  0  0  0
  5  7  2  0  0  0
  7  1  1  0  0  0
  9 12  1  0  0  0
  6  8  1  0  0  0
M  END
> <minimizedAffinity>
-6.56944

> <CNNscore>
0.7168037891

> <CNNaffinity>
3.8465371132

> <CNN_VS>
2.7572124004

> <CNNaffinity_variance>
0.1608105600

$$$$
[H]OC(=O)c1c([H])c([H])c([H])c(O[H])c1[H]


 12 12  0  0  0  0  0  0  0  0999 V2000
   14.9787   25.6282   -3.5949 C   0  0  0  0  0  0  0  0  0  0  0  0
   16.2258   25.8313   -3.0074 C   0  0  0  0  0  0  0  0  0  0  0  0
   16.5400   25.3964   -1.7430 C   0  0  0  0  0  0  0  0  0  0  0  0
   15.6086   24.7237   -0.9849 C   0  0  0  0  0  0  0  0  0  0  0  0
   14.3713   24.5189   -1.5600 C   0  0  0  0  0  0  0  0  0  0  0  0
   13.4329   23.8359   -0.7843 O   0  0  0  0  0  0  0  0  0  0  0  0
   14.0527   24.9532   -2.8267 C   0  0  0  0  0  0  0  0  0  0  0  0
   12.8456   24.4082   -0.1954 H   0  0  0  0  0  0  0  0  0  0  0  0
   13.6902   27.0400   -5.1451 O   0  0  0  0  0  0  0  0  0  0  0  0
   14.6858   26.1054   -4.9384 C   0  0  0  0  0  0  0  0  0  0  0  0
   15.3272   25.6768   -5.9049 O   0  0  0  0  0  0  0  0  0  0  0  0
   12.7251   26.6759   -5.1763 H   0  0  0  0  0  0  0  0  0  0  0  0
  9 10  1  0  0  0
 10 11  2  0  0  0
 10  1  1  0  0  0
  1  2  2  0  0  0
  2  3  1  0  0  0
  3  4  2  0  0  0
  4  5  1  0  0  0
  5  6  1  0  0  0
  5  7  2  0  0  0
  7  1  1  0  0  0
  9 12  1  0  0  0
  6  8  1  0  0  0
M  END
> <minimizedAffinity>
-5.39764

> <CNNscore>
0.6807129383

> <CNNaffinity>
3.8711941242

> <CNN_VS>
2.6351718903

> <CNNaffinity_variance>
0.1521082520

$$$$
[H]OC(=O)c1c([H])c([H])c([H])c(O[H])c1[H]


 12 12  0  0  0  0  0  0  0  0999 V2000
   15.0793   26.2190   -4.7801 C   0  0  0  0  0  0  0  0  0  0  0  0
   15.6294   24.9432   -4.6744 C   0  0  0  0  0  0  0  0  0  0  0  0
   15.1889   24.0081   -3.7699 C   0  0  0  0  0  0  0  0  0  0  0  0
   14.1573   24.3031   -2.9077 C   0  0  0  0  0  0  0  0  0  0  0  0
   13.6075   25.5647   -3.0064 C   0  0  0  0  0  0  0  0  0  0  0  0
   12.5619   25.8554   -2.1284 O   0  0  0  0  0  0  0  0  0  0  0  0
   14.0462   26.5044   -3.9115 C   0  0  0  0  0  0  0  0  0  0  0  0
   12.8285   26.2556   -1.2407 H   0  0  0  0  0  0  0  0  0  0  0  0
   15.7944   28.4946   -5.3858 O   0  0  0  0  0  0  0  0  0  0  0  0
   15.5754   27.1814   -5.7529 C   0  0  0  0  0  0  0  0  0  0  0  0
   15.8046   26.8292   -6.9160 O   0  0  0  0  0  0  0  0  0  0  0  0
   14.9622   29.1043   -5.3623 H   0  0  0  0  0  0  0  0  0  0  0  0
  9 10  1  0  0  0
 10 11  2  0  0  0
 10  1  1  0  0  0
  1  2  2  0  0  0
  2  3  1  0  0  0
  3  4  2  0  0  0
  4  5  1  0  0  0
  5  6  1  0  0  0
  5  7  2  0  0  0
  7  1  1  0  0  0
  9 12  1  0  0  0
  6  8  1  0  0  0
M  END
> <minimizedAffinity>
-6.24437

> <CNNscore>
0.6620678306

> <CNNaffinity>
3.7621052265

> <CNN_VS>
2.4907689095

> <CNNaffinity_variance>
0.1601864994

$$$$
[H]OC(=O)c1c([H])c([H])c([H])c(O[H])c1[H]


 12 12  0  0  0  0  0  0  0  0999 V2000
   15.4640   25.2228   -3.4900 C   0  0  0  0  0  0  0  0  0  0  0  0
   16.4111   25.6424   -2.5581 C   0  0  0  0  0  0  0  0  0  0  0  0
   17.0892   26.8325   -2.6602 C   0  0  0  0  0  0  0  0  0  0  0  0
   16.8531   27.6816   -3.7174 C   0  0  0  0  0  0  0  0  0  0  0  0
   15.9165   27.2729   -4.6445 C   0  0  0  0  0  0  0  0  0  0  0  0
   15.6832   28.1400   -5.7133 O   0  0  0  0  0  0  0  0  0  0  0  0
   15.2349   26.0810   -4.5455 C   0  0  0  0  0  0  0  0  0  0  0  0
   16.2618   28.0019   -6.5290 H   0  0  0  0  0  0  0  0  0  0  0  0
   13.7216   23.8295   -2.4513 O   0  0  0  0  0  0  0  0  0  0  0  0
   14.7670   23.9533   -3.3451 C   0  0  0  0  0  0  0  0  0  0  0  0
   15.1066   22.9758   -4.0223 O   0  0  0  0  0  0  0  0  0  0  0  0
   13.9833   23.6795   -1.4644 H   0  0  0  0  0  0  0  0  0  0  0  0
  9 10  1  0  0  0
 10 11  2  0  0  0
 10  1  1  0  0  0
  1  2  2  0  0  0
  2  3  1  0  0  0
  3  4  2  0  0  0
  4  5  1  0  0  0
  5  6  1  0  0  0
  5  7  2  0  0  0
  7  1  1  0  0  0
  9 12  1  0  0  0
  6  8  1  0  0  0
M  END
> <minimizedAffinity>
-6.09134

> <CNNscore>
0.6560216546

> <CNNaffinity>
3.7901644707

> <CNN_VS>
2.4864299297

> <CNNaffinity_variance>
0.2639795244

$$$$
[H]OC(=O)c1c([H])c([H])c([H])c(O[H])c1[H]


 12 12  0  0  0  0  0  0  0  0999 V2000
   13.5754   25.0905   -2.6088 C   0  0  0  0  0  0  0  0  0  0  0  0
   14.5393   24.1161   -2.8599 C   0  0  0  0  0  0  0  0  0  0  0  0
   15.3616   24.1392   -3.9598 C   0  0  0  0  0  0  0  0  0  0  0  0
   15.2630   25.1548   -4.8836 C   0  0  0  0  0  0  0  0  0  0  0  0
   14.3108   26.1234   -4.6417 C   0  0  0  0  0  0  0  0  0  0  0  0
   14.2176   27.1495   -5.5835 O   0  0  0  0  0  0  0  0  0  0  0  0
   13.4848   26.1037   -3.5407 C   0  0  0  0  0  0  0  0  0  0  0  0
   13.5778   26.9910   -6.3483 H   0  0  0  0  0  0  0  0  0  0  0  0
   13.2807   24.9387   -0.1703 O   0  0  0  0  0  0  0  0  0  0  0  0
   12.7232   25.0294   -1.4305 C   0  0  0  0  0  0  0  0  0  0  0  0
   11.4927   25.0585   -1.5500 O   0  0  0  0  0  0  0  0  0  0  0  0
   13.5814   23.9972    0.1265 H   0  0  0  0  0  0  0  0  0  0  0  0
  9 10  1  0  0  0
 10 11  2  0  0  0
 10  1  1  0  0  0
  1  2  2  0  0  0
  2  3  1  0  0  0
  3  4  2  0  0  0
  4  5  1  0  0  0
  5  6  1  0  0  0
  5  7  2  0  0  0
  7  1  1  0  0  0
  9 12  1  0  0  0
  6  8  1  0  0  0
M  END
> <minimizedAffinity>
-5.99604

> <CNNscore>
0.6478655934

> <CNNaffinity>
3.6905684471

> <CNN_VS>
2.3909924030

> <CNNaffinity_variance>
0.1482322216

$$$$
